MODEL 1
REMARK VINA RESULT:    -9.383      0.000      0.000
REMARK INTER + INTRA:         -11.564
REMARK INTER:                 -11.172
REMARK INTRA:                  -0.392
REMARK CONF_INDEPENDENT:        1.790
REMARK UNBOUND:                -0.392
REMARK  6 active torsions:
REMARK  status: ('A' for Active; 'I' for Inactive)
REMARK    1  A    between atoms: C_2  and  N_3 
REMARK       I    between atoms: N_3  and  C_4 
REMARK       I    between atoms: C_4  and  N_6 
REMARK       I    between atoms: N_6  and  C_7 
REMARK    2  A    between atoms: C_7  and  C_9 
REMARK    3  A    between atoms: C_9  and  N_10 
REMARK    4  A    between atoms: N_10  and  C_11 
REMARK    5  A    between atoms: C_14  and  C_15 
REMARK       I    between atoms: C_15  and  N_17 
REMARK    6  A    between atoms: N_17  and  C_18 
ROOT
ATOM      1  C   UNL d   1      24.550 -16.841  -1.034  0.00  0.00     0.028 A 
ATOM      2  C   UNL d   1      23.243 -16.336  -1.133  0.00  0.00     0.030 A 
ATOM      3  C   UNL d   1      22.115 -17.148  -0.895  0.00  0.00     0.019 A 
ATOM      4  C   UNL d   1      22.261 -18.512  -0.606  0.00  0.00     0.032 A 
ATOM      5  C   UNL d   1      23.556 -19.020  -0.506  0.00  0.00     0.019 A 
ATOM      6  C   UNL d   1      24.676 -18.196  -0.724  0.00  0.00     0.030 A 
ENDROOT
BRANCH   1   7
ATOM      7  N   UNL d   1      25.634 -15.998  -1.244  0.00  0.00    -0.381 N 
ATOM      8  H   UNL d   1      26.525 -16.489  -1.391  0.00  0.00     0.160 HD
BRANCH   7   9
ATOM      9  C   UNL d   1      25.571 -14.695  -1.948  0.00  0.00     0.223 C 
BRANCH   9  10
ATOM     10  C   UNL d   1      26.006 -14.846  -3.436  0.00  0.00     0.243 C 
ATOM     11  N   UNL d   1      27.357 -15.121  -3.695  0.00  0.00    -0.278 N 
ATOM     12  C   UNL d   1      27.842 -15.288  -4.982  0.00  0.00     0.322 C 
ATOM     13  H   UNL d   1      28.000 -15.221  -2.926  0.00  0.00     0.173 HD
ATOM     14  N   UNL d   1      29.196 -15.567  -5.099  0.00  0.00    -0.343 N 
ATOM     15  O   UNL d   1      27.155 -15.199  -6.000  0.00  0.00    -0.247 OA
ATOM     16  H   UNL d   1      29.808 -15.654  -4.303  0.00  0.00     0.164 HD
ATOM     17  O   UNL d   1      25.154 -14.685  -4.316  0.00  0.00    -0.271 OA
BRANCH  14  18
ATOM     18  C   UNL d   1      29.761 -15.756  -6.444  0.00  0.00     0.120 C 
ATOM     19  C   UNL d   1      30.520 -17.059  -6.638  0.00  0.00     0.026 C 
ENDBRANCH  14  18
ENDBRANCH   9  10
ENDBRANCH   7   9
ENDBRANCH   1   7
BRANCH   4  20
ATOM     20  C   UNL d   1      21.031 -19.363  -0.464  0.00  0.00     0.251 C 
ATOM     21  O   UNL d   1      20.415 -19.699  -1.476  0.00  0.00    -0.268 OA
ATOM     22  N   UNL d   1      20.655 -19.775   0.806  0.00  0.00    -0.353 N 
ATOM     23  H   UNL d   1      21.167 -19.470   1.617  0.00  0.00     0.163 HD
BRANCH  22  24
ATOM     24  C   UNL d   1      19.517 -20.666   1.035  0.00  0.00     0.076 C 
ATOM     25  C   UNL d   1      18.912 -20.453   2.423  0.00  0.00     0.032 C 
ATOM     26  C   UNL d   1      18.424 -20.447  -0.016  0.00  0.00     0.032 C 
ENDBRANCH  22  24
ENDBRANCH   4  20
TORSDOF 6
ENDMDL
MODEL 2
REMARK VINA RESULT:    -9.273      4.153      5.751
REMARK INTER + INTRA:         -11.589
REMARK INTER:                 -11.063
REMARK INTRA:                  -0.526
REMARK CONF_INDEPENDENT:        1.790
REMARK UNBOUND:                -0.526
REMARK  6 active torsions:
REMARK  status: ('A' for Active; 'I' for Inactive)
REMARK    1  A    between atoms: C_2  and  N_3 
REMARK       I    between atoms: N_3  and  C_4 
REMARK       I    between atoms: C_4  and  N_6 
REMARK       I    between atoms: N_6  and  C_7 
REMARK    2  A    between atoms: C_7  and  C_9 
REMARK    3  A    between atoms: C_9  and  N_10 
REMARK    4  A    between atoms: N_10  and  C_11 
REMARK    5  A    between atoms: C_14  and  C_15 
REMARK       I    between atoms: C_15  and  N_17 
REMARK    6  A    between atoms: N_17  and  C_18 
ROOT
ATOM      1  C   UNL d   1      25.955 -17.020  -0.530  0.00  0.00     0.028 A 
ATOM      2  C   UNL d   1      25.573 -18.297  -0.088  0.00  0.00     0.030 A 
ATOM      3  C   UNL d   1      24.228 -18.716  -0.110  0.00  0.00     0.019 A 
ATOM      4  C   UNL d   1      23.211 -17.845  -0.524  0.00  0.00     0.032 A 
ATOM      5  C   UNL d   1      23.583 -16.574  -0.965  0.00  0.00     0.019 A 
ATOM      6  C   UNL d   1      24.932 -16.173  -0.959  0.00  0.00     0.030 A 
ENDROOT
BRANCH   1   7
ATOM      7  N   UNL d   1      27.297 -16.659  -0.523  0.00  0.00    -0.381 N 
ATOM      8  H   UNL d   1      27.899 -17.266  -1.093  0.00  0.00     0.160 HD
BRANCH   7   9
ATOM      9  C   UNL d   1      27.799 -15.266  -0.437  0.00  0.00     0.223 C 
BRANCH   9  10
ATOM     10  C   UNL d   1      27.381 -14.608   0.911  0.00  0.00     0.243 C 
ATOM     11  N   UNL d   1      28.080 -14.986   2.066  0.00  0.00    -0.278 N 
ATOM     12  C   UNL d   1      27.795 -14.448   3.312  0.00  0.00     0.322 C 
ATOM     13  H   UNL d   1      28.828 -15.657   1.997  0.00  0.00     0.173 HD
ATOM     14  N   UNL d   1      28.568 -14.900   4.370  0.00  0.00    -0.343 N 
ATOM     15  O   UNL d   1      26.912 -13.616   3.522  0.00  0.00    -0.247 OA
ATOM     16  H   UNL d   1      29.306 -15.578   4.260  0.00  0.00     0.164 HD
ATOM     17  O   UNL d   1      26.436 -13.812   0.906  0.00  0.00    -0.271 OA
BRANCH  14  18
ATOM     18  C   UNL d   1      28.307 -14.359   5.713  0.00  0.00     0.120 C 
ATOM     19  C   UNL d   1      29.499 -13.675   6.365  0.00  0.00     0.026 C 
ENDBRANCH  14  18
ENDBRANCH   9  10
ENDBRANCH   7   9
ENDBRANCH   1   7
BRANCH   4  20
ATOM     20  C   UNL d   1      21.781 -18.295  -0.431  0.00  0.00     0.251 C 
ATOM     21  O   UNL d   1      20.898 -17.595  -0.927  0.00  0.00    -0.268 OA
ATOM     22  N   UNL d   1      21.509 -19.511   0.180  0.00  0.00    -0.353 N 
ATOM     23  H   UNL d   1      22.249 -20.054   0.594  0.00  0.00     0.163 HD
BRANCH  22  24
ATOM     24  C   UNL d   1      20.157 -20.067   0.252  0.00  0.00     0.076 C 
ATOM     25  C   UNL d   1      19.414 -19.568   1.492  0.00  0.00     0.032 C 
ATOM     26  C   UNL d   1      19.342 -19.698  -0.991  0.00  0.00     0.032 C 
ENDBRANCH  22  24
ENDBRANCH   4  20
TORSDOF 6
ENDMDL
MODEL 3
REMARK VINA RESULT:    -9.158      3.928      5.383
REMARK INTER + INTRA:         -11.823
REMARK INTER:                 -10.948
REMARK INTRA:                  -0.875
REMARK CONF_INDEPENDENT:        1.790
REMARK UNBOUND:                -0.875
REMARK  6 active torsions:
REMARK  status: ('A' for Active; 'I' for Inactive)
REMARK    1  A    between atoms: C_2  and  N_3 
REMARK       I    between atoms: N_3  and  C_4 
REMARK       I    between atoms: C_4  and  N_6 
REMARK       I    between atoms: N_6  and  C_7 
REMARK    2  A    between atoms: C_7  and  C_9 
REMARK    3  A    between atoms: C_9  and  N_10 
REMARK    4  A    between atoms: N_10  and  C_11 
REMARK    5  A    between atoms: C_14  and  C_15 
REMARK       I    between atoms: C_15  and  N_17 
REMARK    6  A    between atoms: N_17  and  C_18 
ROOT
ATOM      1  C   UNL d   1      24.585 -16.827  -0.824  0.00  0.00     0.028 A 
ATOM      2  C   UNL d   1      23.276 -16.323  -0.894  0.00  0.00     0.030 A 
ATOM      3  C   UNL d   1      22.152 -17.160  -0.745  0.00  0.00     0.019 A 
ATOM      4  C   UNL d   1      22.303 -18.543  -0.577  0.00  0.00     0.032 A 
ATOM      5  C   UNL d   1      23.601 -19.051  -0.507  0.00  0.00     0.019 A 
ATOM      6  C   UNL d   1      24.718 -18.203  -0.635  0.00  0.00     0.030 A 
ENDROOT
BRANCH   1   7
ATOM      7  N   UNL d   1      25.666 -15.962  -0.944  0.00  0.00    -0.381 N 
ATOM      8  H   UNL d   1      25.404 -14.984  -1.119  0.00  0.00     0.160 HD
BRANCH   7   9
ATOM      9  C   UNL d   1      26.942 -16.093  -0.200  0.00  0.00     0.223 C 
BRANCH   9  10
ATOM     10  C   UNL d   1      27.082 -14.966   0.866  0.00  0.00     0.243 C 
ATOM     11  N   UNL d   1      27.936 -15.200   1.954  0.00  0.00    -0.278 N 
ATOM     12  C   UNL d   1      28.140 -14.256   2.948  0.00  0.00     0.322 C 
ATOM     13  H   UNL d   1      28.436 -16.072   2.014  0.00  0.00     0.173 HD
ATOM     14  N   UNL d   1      29.018 -14.609   3.962  0.00  0.00    -0.343 N 
ATOM     15  O   UNL d   1      27.594 -13.153   2.980  0.00  0.00    -0.247 OA
ATOM     16  H   UNL d   1      29.496 -15.496   3.989  0.00  0.00     0.164 HD
ATOM     17  O   UNL d   1      26.413 -13.937   0.723  0.00  0.00    -0.271 OA
BRANCH  14  18
ATOM     18  C   UNL d   1      29.272 -13.642   5.040  0.00  0.00     0.120 C 
ATOM     19  C   UNL d   1      28.908 -14.132   6.433  0.00  0.00     0.026 C 
ENDBRANCH  14  18
ENDBRANCH   9  10
ENDBRANCH   7   9
ENDBRANCH   1   7
BRANCH   4  20
ATOM     20  C   UNL d   1      21.079 -19.411  -0.529  0.00  0.00     0.251 C 
ATOM     21  O   UNL d   1      20.507 -19.701  -1.580  0.00  0.00    -0.268 OA
ATOM     22  N   UNL d   1      20.657 -19.891   0.703  0.00  0.00    -0.353 N 
ATOM     23  H   UNL d   1      21.133 -19.623   1.549  0.00  0.00     0.163 HD
BRANCH  22  24
ATOM     24  C   UNL d   1      19.520 -20.802   0.841  0.00  0.00     0.076 C 
ATOM     25  C   UNL d   1      18.947 -20.770   2.258  0.00  0.00     0.032 C 
ATOM     26  C   UNL d   1      18.405 -20.447  -0.147  0.00  0.00     0.032 C 
ENDBRANCH  22  24
ENDBRANCH   4  20
TORSDOF 6
ENDMDL
MODEL 4
REMARK VINA RESULT:    -8.534      2.109      3.283
REMARK INTER + INTRA:         -10.760
REMARK INTER:                 -10.324
REMARK INTRA:                  -0.437
REMARK CONF_INDEPENDENT:        1.790
REMARK UNBOUND:                -0.437
REMARK  6 active torsions:
REMARK  status: ('A' for Active; 'I' for Inactive)
REMARK    1  A    between atoms: C_2  and  N_3 
REMARK       I    between atoms: N_3  and  C_4 
REMARK       I    between atoms: C_4  and  N_6 
REMARK       I    between atoms: N_6  and  C_7 
REMARK    2  A    between atoms: C_7  and  C_9 
REMARK    3  A    between atoms: C_9  and  N_10 
REMARK    4  A    between atoms: N_10  and  C_11 
REMARK    5  A    between atoms: C_14  and  C_15 
REMARK       I    between atoms: C_15  and  N_17 
REMARK    6  A    between atoms: N_17  and  C_18 
ROOT
ATOM      1  C   UNL d   1      24.553 -16.836  -0.829  0.00  0.00     0.028 A 
ATOM      2  C   UNL d   1      24.630 -18.217  -0.585  0.00  0.00     0.030 A 
ATOM      3  C   UNL d   1      23.475 -19.023  -0.525  0.00  0.00     0.019 A 
ATOM      4  C   UNL d   1      22.198 -18.459  -0.652  0.00  0.00     0.032 A 
ATOM      5  C   UNL d   1      22.115 -17.087  -0.895  0.00  0.00     0.019 A 
ATOM      6  C   UNL d   1      23.275 -16.295  -0.974  0.00  0.00     0.030 A 
ENDROOT
BRANCH   1   7
ATOM      7  N   UNL d   1      25.718 -16.083  -0.913  0.00  0.00    -0.381 N 
ATOM      8  H   UNL d   1      26.224 -15.992  -0.023  0.00  0.00     0.160 HD
BRANCH   7   9
ATOM      9  C   UNL d   1      26.615 -16.037  -2.093  0.00  0.00     0.223 C 
BRANCH   9  10
ATOM     10  C   UNL d   1      26.074 -15.042  -3.162  0.00  0.00     0.243 C 
ATOM     11  N   UNL d   1      26.209 -13.670  -2.903  0.00  0.00    -0.278 N 
ATOM     12  C   UNL d   1      25.774 -12.704  -3.796  0.00  0.00     0.322 C 
ATOM     13  H   UNL d   1      26.651 -13.367  -2.050  0.00  0.00     0.173 HD
ATOM     14  N   UNL d   1      25.977 -11.383  -3.422  0.00  0.00    -0.343 N 
ATOM     15  O   UNL d   1      25.228 -12.949  -4.872  0.00  0.00    -0.247 OA
ATOM     16  H   UNL d   1      26.420 -11.121  -2.556  0.00  0.00     0.164 HD
ATOM     17  O   UNL d   1      25.526 -15.502  -4.168  0.00  0.00    -0.271 OA
BRANCH  14  18
ATOM     18  C   UNL d   1      25.536 -10.319  -4.337  0.00  0.00     0.120 C 
ATOM     19  C   UNL d   1      25.332  -8.962  -3.681  0.00  0.00     0.026 C 
ENDBRANCH  14  18
ENDBRANCH   9  10
ENDBRANCH   7   9
ENDBRANCH   1   7
BRANCH   4  20
ATOM     20  C   UNL d   1      20.992 -19.336  -0.476  0.00  0.00     0.251 C 
ATOM     21  O   UNL d   1      20.364 -19.700  -1.471  0.00  0.00    -0.268 OA
ATOM     22  N   UNL d   1      20.650 -19.741   0.806  0.00  0.00    -0.353 N 
ATOM     23  H   UNL d   1      21.170 -19.413   1.604  0.00  0.00     0.163 HD
BRANCH  22  24
ATOM     24  C   UNL d   1      19.537 -20.654   1.069  0.00  0.00     0.076 C 
ATOM     25  C   UNL d   1      18.977 -20.461   2.479  0.00  0.00     0.032 C 
ATOM     26  C   UNL d   1      18.405 -20.450   0.058  0.00  0.00     0.032 C 
ENDBRANCH  22  24
ENDBRANCH   4  20
TORSDOF 6
ENDMDL
MODEL 5
REMARK VINA RESULT:    -8.082      3.293      3.558
REMARK INTER + INTRA:         -10.376
REMARK INTER:                  -9.871
REMARK INTRA:                  -0.504
REMARK CONF_INDEPENDENT:        1.790
REMARK UNBOUND:                -0.504
REMARK  6 active torsions:
REMARK  status: ('A' for Active; 'I' for Inactive)
REMARK    1  A    between atoms: C_2  and  N_3 
REMARK       I    between atoms: N_3  and  C_4 
REMARK       I    between atoms: C_4  and  N_6 
REMARK       I    between atoms: N_6  and  C_7 
REMARK    2  A    between atoms: C_7  and  C_9 
REMARK    3  A    between atoms: C_9  and  N_10 
REMARK    4  A    between atoms: N_10  and  C_11 
REMARK    5  A    between atoms: C_14  and  C_15 
REMARK       I    between atoms: C_15  and  N_17 
REMARK    6  A    between atoms: N_17  and  C_18 
ROOT
ATOM      1  C   UNL d   1      24.975 -16.655  -0.522  0.00  0.00     0.028 A 
ATOM      2  C   UNL d   1      25.000 -18.034  -0.253  0.00  0.00     0.030 A 
ATOM      3  C   UNL d   1      23.834 -18.823  -0.327  0.00  0.00     0.019 A 
ATOM      4  C   UNL d   1      22.591 -18.243  -0.618  0.00  0.00     0.032 A 
ATOM      5  C   UNL d   1      22.560 -16.874  -0.886  0.00  0.00     0.019 A 
ATOM      6  C   UNL d   1      23.733 -16.099  -0.832  0.00  0.00     0.030 A 
ENDROOT
BRANCH   1   7
ATOM      7  N   UNL d   1      26.153 -15.920  -0.471  0.00  0.00    -0.381 N 
ATOM      8  H   UNL d   1      26.011 -14.904  -0.408  0.00  0.00     0.160 HD
BRANCH   7   9
ATOM      9  C   UNL d   1      27.405 -16.370   0.184  0.00  0.00     0.223 C 
BRANCH   9  10
ATOM     10  C   UNL d   1      28.401 -16.951  -0.862  0.00  0.00     0.243 C 
ATOM     11  N   UNL d   1      29.469 -17.725  -0.385  0.00  0.00    -0.278 N 
ATOM     12  C   UNL d   1      30.401 -18.300  -1.234  0.00  0.00     0.322 C 
ATOM     13  H   UNL d   1      29.560 -17.891   0.605  0.00  0.00     0.173 HD
ATOM     14  N   UNL d   1      31.401 -19.051  -0.634  0.00  0.00    -0.343 N 
ATOM     15  O   UNL d   1      30.392 -18.178  -2.459  0.00  0.00    -0.247 OA
ATOM     16  H   UNL d   1      31.460 -19.188   0.362  0.00  0.00     0.164 HD
ATOM     17  O   UNL d   1      28.226 -16.679  -2.054  0.00  0.00    -0.271 OA
BRANCH  14  18
ATOM     18  C   UNL d   1      32.415 -19.684  -1.491  0.00  0.00     0.120 C 
ATOM     19  C   UNL d   1      31.988 -21.006  -2.111  0.00  0.00     0.026 C 
ENDBRANCH  14  18
ENDBRANCH   9  10
ENDBRANCH   7   9
ENDBRANCH   1   7
BRANCH   4  20
ATOM     20  C   UNL d   1      21.359 -19.102  -0.581  0.00  0.00     0.251 C 
ATOM     21  O   UNL d   1      20.795 -19.385  -1.638  0.00  0.00    -0.268 OA
ATOM     22  N   UNL d   1      20.923 -19.580   0.645  0.00  0.00    -0.353 N 
ATOM     23  H   UNL d   1      21.393 -19.317   1.496  0.00  0.00     0.163 HD
BRANCH  22  24
ATOM     24  C   UNL d   1      19.778 -20.482   0.773  0.00  0.00     0.076 C 
ATOM     25  C   UNL d   1      19.229 -20.491   2.200  0.00  0.00     0.032 C 
ATOM     26  C   UNL d   1      18.651 -20.081  -0.185  0.00  0.00     0.032 C 
ENDBRANCH  22  24
ENDBRANCH   4  20
TORSDOF 6
ENDMDL
MODEL 6
REMARK VINA RESULT:    -7.891      1.770      9.381
REMARK INTER + INTRA:         -10.468
REMARK INTER:                  -9.681
REMARK INTRA:                  -0.787
REMARK CONF_INDEPENDENT:        1.790
REMARK UNBOUND:                -0.787
REMARK  6 active torsions:
REMARK  status: ('A' for Active; 'I' for Inactive)
REMARK    1  A    between atoms: C_2  and  N_3 
REMARK       I    between atoms: N_3  and  C_4 
REMARK       I    between atoms: C_4  and  N_6 
REMARK       I    between atoms: N_6  and  C_7 
REMARK    2  A    between atoms: C_7  and  C_9 
REMARK    3  A    between atoms: C_9  and  N_10 
REMARK    4  A    between atoms: N_10  and  C_11 
REMARK    5  A    between atoms: C_14  and  C_15 
REMARK       I    between atoms: C_15  and  N_17 
REMARK    6  A    between atoms: N_17  and  C_18 
ROOT
ATOM      1  C   UNL d   1      26.018 -16.032  -1.558  0.00  0.00     0.028 A 
ATOM      2  C   UNL d   1      25.275 -15.415  -2.578  0.00  0.00     0.030 A 
ATOM      3  C   UNL d   1      25.863 -15.051  -3.806  0.00  0.00     0.019 A 
ATOM      4  C   UNL d   1      27.233 -15.243  -4.031  0.00  0.00     0.032 A 
ATOM      5  C   UNL d   1      27.978 -15.855  -3.022  0.00  0.00     0.019 A 
ATOM      6  C   UNL d   1      27.376 -16.234  -1.807  0.00  0.00     0.030 A 
ENDROOT
BRANCH   1   7
ATOM      7  N   UNL d   1      25.392 -16.404  -0.375  0.00  0.00    -0.381 N 
ATOM      8  H   UNL d   1      24.863 -15.647   0.076  0.00  0.00     0.160 HD
BRANCH   7   9
ATOM      9  C   UNL d   1      24.825 -17.746  -0.102  0.00  0.00     0.223 C 
BRANCH   9  10
ATOM     10  C   UNL d   1      23.311 -17.794  -0.466  0.00  0.00     0.243 C 
ATOM     11  N   UNL d   1      22.548 -18.848   0.058  0.00  0.00    -0.278 N 
ATOM     12  C   UNL d   1      21.191 -18.972  -0.193  0.00  0.00     0.322 C 
ATOM     13  H   UNL d   1      22.988 -19.532   0.653  0.00  0.00     0.173 HD
ATOM     14  N   UNL d   1      20.552 -20.055   0.394  0.00  0.00    -0.343 N 
ATOM     15  O   UNL d   1      20.542 -18.197  -0.895  0.00  0.00    -0.247 OA
ATOM     16  H   UNL d   1      21.030 -20.721   0.980  0.00  0.00     0.164 HD
ATOM     17  O   UNL d   1      22.861 -16.926  -1.220  0.00  0.00    -0.271 OA
BRANCH  14  18
ATOM     18  C   UNL d   1      19.111 -20.231   0.161  0.00  0.00     0.120 C 
ATOM     19  C   UNL d   1      18.427 -21.204   1.109  0.00  0.00     0.026 C 
ENDBRANCH  14  18
ENDBRANCH   9  10
ENDBRANCH   7   9
ENDBRANCH   1   7
BRANCH   4  20
ATOM     20  C   UNL d   1      27.840 -14.744  -5.311  0.00  0.00     0.251 C 
ATOM     21  O   UNL d   1      27.439 -15.200  -6.382  0.00  0.00    -0.268 OA
ATOM     22  N   UNL d   1      28.808 -13.753  -5.242  0.00  0.00    -0.353 N 
ATOM     23  H   UNL d   1      29.130 -13.411  -4.352  0.00  0.00     0.163 HD
BRANCH  22  24
ATOM     24  C   UNL d   1      29.401 -13.153  -6.438  0.00  0.00     0.076 C 
ATOM     25  C   UNL d   1      30.211 -14.177  -7.234  0.00  0.00     0.032 C 
ATOM     26  C   UNL d   1      28.324 -12.561  -7.351  0.00  0.00     0.032 C 
ENDBRANCH  22  24
ENDBRANCH   4  20
TORSDOF 6
ENDMDL
MODEL 7
REMARK VINA RESULT:    -7.713      2.912      9.241
REMARK INTER + INTRA:         -10.145
REMARK INTER:                  -9.503
REMARK INTRA:                  -0.642
REMARK CONF_INDEPENDENT:        1.790
REMARK UNBOUND:                -0.642
REMARK  6 active torsions:
REMARK  status: ('A' for Active; 'I' for Inactive)
REMARK    1  A    between atoms: C_2  and  N_3 
REMARK       I    between atoms: N_3  and  C_4 
REMARK       I    between atoms: C_4  and  N_6 
REMARK       I    between atoms: N_6  and  C_7 
REMARK    2  A    between atoms: C_7  and  C_9 
REMARK    3  A    between atoms: C_9  and  N_10 
REMARK    4  A    between atoms: N_10  and  C_11 
REMARK    5  A    between atoms: C_14  and  C_15 
REMARK       I    between atoms: C_15  and  N_17 
REMARK    6  A    between atoms: N_17  and  C_18 
ROOT
ATOM      1  C   UNL d   1      25.818 -16.057  -1.803  0.00  0.00     0.028 A 
ATOM      2  C   UNL d   1      26.918 -15.282  -1.399  0.00  0.00     0.030 A 
ATOM      3  C   UNL d   1      27.133 -13.983  -1.902  0.00  0.00     0.019 A 
ATOM      4  C   UNL d   1      26.281 -13.439  -2.873  0.00  0.00     0.032 A 
ATOM      5  C   UNL d   1      25.186 -14.203  -3.279  0.00  0.00     0.019 A 
ATOM      6  C   UNL d   1      24.968 -15.490  -2.754  0.00  0.00     0.030 A 
ENDROOT
BRANCH   1   7
ATOM      7  N   UNL d   1      25.624 -17.320  -1.257  0.00  0.00    -0.381 N 
ATOM      8  H   UNL d   1      26.437 -17.943  -1.342  0.00  0.00     0.160 HD
BRANCH   7   9
ATOM      9  C   UNL d   1      24.799 -17.608  -0.059  0.00  0.00     0.223 C 
BRANCH   9  10
ATOM     10  C   UNL d   1      23.291 -17.706  -0.435  0.00  0.00     0.243 C 
ATOM     11  N   UNL d   1      22.563 -18.793   0.071  0.00  0.00    -0.278 N 
ATOM     12  C   UNL d   1      21.212 -18.964  -0.192  0.00  0.00     0.322 C 
ATOM     13  H   UNL d   1      23.022 -19.468   0.662  0.00  0.00     0.173 HD
ATOM     14  N   UNL d   1      20.609 -20.075   0.378  0.00  0.00    -0.343 N 
ATOM     15  O   UNL d   1      20.541 -18.205  -0.891  0.00  0.00    -0.247 OA
ATOM     16  H   UNL d   1      21.106 -20.730   0.960  0.00  0.00     0.164 HD
ATOM     17  O   UNL d   1      22.816 -16.847  -1.184  0.00  0.00    -0.271 OA
BRANCH  14  18
ATOM     18  C   UNL d   1      19.177 -20.301   0.132  0.00  0.00     0.120 C 
ATOM     19  C   UNL d   1      18.400 -20.828   1.328  0.00  0.00     0.026 C 
ENDBRANCH  14  18
ENDBRANCH   9  10
ENDBRANCH   7   9
ENDBRANCH   1   7
BRANCH   4  20
ATOM     20  C   UNL d   1      26.607 -12.095  -3.460  0.00  0.00     0.251 C 
ATOM     21  O   UNL d   1      27.708 -11.593  -3.232  0.00  0.00    -0.268 OA
ATOM     22  N   UNL d   1      25.666 -11.484  -4.275  0.00  0.00    -0.353 N 
ATOM     23  H   UNL d   1      24.766 -11.909  -4.429  0.00  0.00     0.163 HD
BRANCH  22  24
ATOM     24  C   UNL d   1      25.923 -10.211  -4.950  0.00  0.00     0.076 C 
ATOM     25  C   UNL d   1      25.615 -10.300  -6.446  0.00  0.00     0.032 C 
ATOM     26  C   UNL d   1      25.082  -9.085  -4.342  0.00  0.00     0.032 C 
ENDBRANCH  22  24
ENDBRANCH   4  20
TORSDOF 6
ENDMDL
MODEL 8
REMARK VINA RESULT:    -7.345      4.699      5.266
REMARK INTER + INTRA:         -10.286
REMARK INTER:                  -9.135
REMARK INTRA:                  -1.151
REMARK CONF_INDEPENDENT:        1.790
REMARK UNBOUND:                -1.151
REMARK  6 active torsions:
REMARK  status: ('A' for Active; 'I' for Inactive)
REMARK    1  A    between atoms: C_2  and  N_3 
REMARK       I    between atoms: N_3  and  C_4 
REMARK       I    between atoms: C_4  and  N_6 
REMARK       I    between atoms: N_6  and  C_7 
REMARK    2  A    between atoms: C_7  and  C_9 
REMARK    3  A    between atoms: C_9  and  N_10 
REMARK    4  A    between atoms: N_10  and  C_11 
REMARK    5  A    between atoms: C_14  and  C_15 
REMARK       I    between atoms: C_15  and  N_17 
REMARK    6  A    between atoms: N_17  and  C_18 
ROOT
ATOM      1  C   UNL d   1      25.948 -16.577  -0.317  0.00  0.00     0.028 A 
ATOM      2  C   UNL d   1      24.865 -16.090  -1.068  0.00  0.00     0.030 A 
ATOM      3  C   UNL d   1      23.665 -16.818  -1.195  0.00  0.00     0.019 A 
ATOM      4  C   UNL d   1      23.531 -18.088  -0.617  0.00  0.00     0.032 A 
ATOM      5  C   UNL d   1      24.602 -18.579   0.131  0.00  0.00     0.019 A 
ATOM      6  C   UNL d   1      25.789 -17.834   0.269  0.00  0.00     0.030 A 
ENDROOT
BRANCH   1   7
ATOM      7  N   UNL d   1      27.101 -15.813  -0.191  0.00  0.00    -0.381 N 
ATOM      8  H   UNL d   1      27.036 -14.881  -0.620  0.00  0.00     0.160 HD
BRANCH   7   9
ATOM      9  C   UNL d   1      28.019 -15.850   0.972  0.00  0.00     0.223 C 
BRANCH   9  10
ATOM     10  C   UNL d   1      28.892 -14.561   1.031  0.00  0.00     0.243 C 
ATOM     11  N   UNL d   1      29.920 -14.513   1.985  0.00  0.00    -0.278 N 
ATOM     12  C   UNL d   1      30.762 -13.419   2.109  0.00  0.00     0.322 C 
ATOM     13  H   UNL d   1      30.071 -15.303   2.592  0.00  0.00     0.173 HD
ATOM     14  N   UNL d   1      31.744 -13.505   3.085  0.00  0.00    -0.343 N 
ATOM     15  O   UNL d   1      30.682 -12.402   1.420  0.00  0.00    -0.247 OA
ATOM     16  H   UNL d   1      31.859 -14.312   3.677  0.00  0.00     0.164 HD
ATOM     17  O   UNL d   1      28.621 -13.633   0.263  0.00  0.00    -0.271 OA
BRANCH  14  18
ATOM     18  C   UNL d   1      32.665 -12.371   3.255  0.00  0.00     0.120 C 
ATOM     19  C   UNL d   1      34.116 -12.760   3.493  0.00  0.00     0.026 C 
ENDBRANCH  14  18
ENDBRANCH   9  10
ENDBRANCH   7   9
ENDBRANCH   1   7
BRANCH   4  20
ATOM     20  C   UNL d   1      22.275 -18.874  -0.864  0.00  0.00     0.251 C 
ATOM     21  O   UNL d   1      21.992 -19.205  -2.016  0.00  0.00    -0.268 OA
ATOM     22  N   UNL d   1      21.496 -19.236   0.225  0.00  0.00    -0.353 N 
ATOM     23  H   UNL d   1      21.742 -18.936   1.154  0.00  0.00     0.163 HD
BRANCH  22  24
ATOM     24  C   UNL d   1      20.296 -20.064   0.090  0.00  0.00     0.076 C 
ATOM     25  C   UNL d   1      19.612 -20.279   1.440  0.00  0.00     0.032 C 
ATOM     26  C   UNL d   1      19.292 -19.426  -0.874  0.00  0.00     0.032 C 
ENDBRANCH  22  24
ENDBRANCH   4  20
TORSDOF 6
ENDMDL
MODEL 9
REMARK VINA RESULT:    -7.099      3.909      9.482
REMARK INTER + INTRA:         -10.096
REMARK INTER:                  -8.889
REMARK INTRA:                  -1.207
REMARK CONF_INDEPENDENT:        1.790
REMARK UNBOUND:                -1.207
REMARK  6 active torsions:
REMARK  status: ('A' for Active; 'I' for Inactive)
REMARK    1  A    between atoms: C_2  and  N_3 
REMARK       I    between atoms: N_3  and  C_4 
REMARK       I    between atoms: C_4  and  N_6 
REMARK       I    between atoms: N_6  and  C_7 
REMARK    2  A    between atoms: C_7  and  C_9 
REMARK    3  A    between atoms: C_9  and  N_10 
REMARK    4  A    between atoms: N_10  and  C_11 
REMARK    5  A    between atoms: C_14  and  C_15 
REMARK       I    between atoms: C_15  and  N_17 
REMARK    6  A    between atoms: N_17  and  C_18 
ROOT
ATOM      1  C   UNL d   1      25.928 -16.887  -1.322  0.00  0.00     0.028 A 
ATOM      2  C   UNL d   1      26.623 -17.681  -0.395  0.00  0.00     0.030 A 
ATOM      3  C   UNL d   1      28.004 -17.516  -0.167  0.00  0.00     0.019 A 
ATOM      4  C   UNL d   1      28.747 -16.584  -0.906  0.00  0.00     0.032 A 
ATOM      5  C   UNL d   1      28.063 -15.792  -1.829  0.00  0.00     0.019 A 
ATOM      6  C   UNL d   1      26.679 -15.950  -2.032  0.00  0.00     0.030 A 
ENDROOT
BRANCH   1   7
ATOM      7  N   UNL d   1      24.560 -17.061  -1.491  0.00  0.00    -0.381 N 
ATOM      8  H   UNL d   1      24.299 -17.494  -2.386  0.00  0.00     0.160 HD
BRANCH   7   9
ATOM      9  C   UNL d   1      23.603 -17.369  -0.401  0.00  0.00     0.223 C 
BRANCH   9  10
ATOM     10  C   UNL d   1      22.494 -18.345  -0.896  0.00  0.00     0.243 C 
ATOM     11  N   UNL d   1      21.432 -18.620  -0.022  0.00  0.00    -0.278 N 
ATOM     12  C   UNL d   1      20.388 -19.463  -0.371  0.00  0.00     0.322 C 
ATOM     13  H   UNL d   1      21.408 -18.182   0.885  0.00  0.00     0.173 HD
ATOM     14  N   UNL d   1      19.396 -19.642   0.581  0.00  0.00    -0.343 N 
ATOM     15  O   UNL d   1      20.301 -20.048  -1.451  0.00  0.00    -0.247 OA
ATOM     16  H   UNL d   1      19.411 -19.189   1.481  0.00  0.00     0.164 HD
ATOM     17  O   UNL d   1      22.616 -18.854  -2.014  0.00  0.00    -0.271 OA
BRANCH  14  18
ATOM     18  C   UNL d   1      18.264 -20.525   0.259  0.00  0.00     0.120 C 
ATOM     19  C   UNL d   1      17.906 -21.523   1.349  0.00  0.00     0.026 C 
ENDBRANCH  14  18
ENDBRANCH   9  10
ENDBRANCH   7   9
ENDBRANCH   1   7
BRANCH   4  20
ATOM     20  C   UNL d   1      30.234 -16.514  -0.708  0.00  0.00     0.251 C 
ATOM     21  O   UNL d   1      30.959 -16.292  -1.678  0.00  0.00    -0.268 OA
ATOM     22  N   UNL d   1      30.738 -16.664   0.576  0.00  0.00    -0.353 N 
ATOM     23  H   UNL d   1      30.123 -16.864   1.349  0.00  0.00     0.163 HD
BRANCH  22  24
ATOM     24  C   UNL d   1      32.164 -16.538   0.879  0.00  0.00     0.076 C 
ATOM     25  C   UNL d   1      32.454 -15.272   1.686  0.00  0.00     0.032 C 
ATOM     26  C   UNL d   1      32.670 -17.750   1.667  0.00  0.00     0.032 C 
ENDBRANCH  22  24
ENDBRANCH   4  20
TORSDOF 6
ENDMDL
