MODEL 1
REMARK VINA RESULT:   -10.989      0.000      0.000
REMARK INTER + INTRA:         -16.287
REMARK INTER:                 -14.568
REMARK INTRA:                  -1.719
REMARK CONF_INDEPENDENT:        3.580
REMARK UNBOUND:                -1.719
REMARK  12 active torsions:
REMARK  status: ('A' for Active; 'I' for Inactive)
REMARK    1  A    between atoms: C_2  and  N_3 
REMARK    2  A    between atoms: N_3  and  C_4 
REMARK    3  A    between atoms: N_3  and  C_6 
REMARK    4  A    between atoms: C_9  and  N_10 
REMARK       I    between atoms: N_10  and  C_11 
REMARK    5  A    between atoms: C_11  and  C_13 
REMARK    6  A    between atoms: C_13  and  S_14 
REMARK    7  A    between atoms: S_14  and  C_15 
REMARK    8  A    between atoms: C_18  and  N_19 
REMARK    9  A    between atoms: N_19  and  N_20 
REMARK   10  A    between atoms: C_21  and  C_22 
REMARK   11  A    between atoms: C_26  and  O_27 
REMARK   12  A    between atoms: O_27  and  C_28 
ROOT
ATOM      1  C   UNL d   1      30.015 -17.015  -2.350  0.00  0.00     0.226 A 
ATOM      2  N   UNL d   1      30.939 -17.599  -1.582  0.00  0.00    -0.132 NA
ATOM      3  N   UNL d   1      30.182 -17.980  -0.521  0.00  0.00    -0.103 N 
ATOM      4  C   UNL d   1      28.861 -17.637  -0.669  0.00  0.00     0.739 A 
ATOM      5  N   UNL d   1      28.749 -17.018  -1.823  0.00  0.00    -0.034 NA
ATOM      6  H   UNL d   1      30.624 -18.462   0.251  0.00  0.00     0.208 HD
ENDROOT
BRANCH   1   7
ATOM      7  S   UNL d   1      30.301 -16.272  -3.889  0.00  0.00    -0.079 SA
BRANCH   7   8
ATOM      8  C   UNL d   1      29.843 -14.496  -3.800  0.00  0.00     0.185 C 
BRANCH   8   9
ATOM      9  C   UNL d   1      29.655 -14.151  -2.294  0.00  0.00     0.231 C 
ATOM     10  N   UNL d   1      30.688 -14.498  -1.397  0.00  0.00    -0.327 N 
ATOM     11  H   UNL d   1      31.496 -14.993  -1.757  0.00  0.00     0.169 HD
ATOM     12  O   UNL d   1      28.627 -13.605  -1.919  0.00  0.00    -0.272 OA
BRANCH  10  13
ATOM     13  C   UNL d   1      30.612 -14.288   0.027  0.00  0.00     0.034 A 
ATOM     14  C   UNL d   1      29.654 -13.441   0.609  0.00  0.00     0.032 A 
ATOM     15  C   UNL d   1      29.660 -13.170   2.015  0.00  0.00     0.039 A 
ATOM     16  C   UNL d   1      30.564 -13.824   2.870  0.00  0.00     0.134 A 
ATOM     17  C   UNL d   1      31.496 -14.667   2.288  0.00  0.00     0.039 A 
ATOM     18  C   UNL d   1      31.509 -14.890   0.911  0.00  0.00     0.032 A 
BRANCH  16  19
ATOM     19  N   UNL d   1      30.514 -13.858   4.384  0.00  0.00    -0.042 N 
ATOM     20  H   UNL d   1      31.366 -14.393   4.589  0.00  0.00     0.286 HD
BRANCH  19  21
ATOM     21  C   UNL d   1      30.899 -12.498   4.982  0.00  0.00     0.237 C 
ATOM     22  C   UNL d   1      29.748 -11.551   5.249  0.00  0.00     0.035 C 
ENDBRANCH  19  21
BRANCH  19  23
ATOM     23  C   UNL d   1      29.483 -14.838   4.916  0.00  0.00     0.237 C 
ATOM     24  C   UNL d   1      28.151 -14.825   4.196  0.00  0.00     0.035 C 
ENDBRANCH  19  23
ENDBRANCH  16  19
ENDBRANCH  10  13
ENDBRANCH   8   9
ENDBRANCH   7   8
ENDBRANCH   1   7
BRANCH   4  25
ATOM     25  N   UNL d   1      27.905 -17.923   0.264  0.00  0.00    -0.106 N 
ATOM     26  H   UNL d   1      28.128 -18.443   1.109  0.00  0.00     0.208 HD
BRANCH  25  27
ATOM     27  N   UNL d   1      26.612 -17.510   0.073  0.00  0.00    -0.172 NA
ATOM     28  C   UNL d   1      25.728 -18.362  -0.341  0.00  0.00     0.150 C 
BRANCH  28  29
ATOM     29  C   UNL d   1      24.324 -17.927  -0.549  0.00  0.00    -0.014 A 
ATOM     30  C   UNL d   1      23.949 -16.583  -0.549  0.00  0.00     0.013 A 
ATOM     31  C   UNL d   1      22.598 -16.240  -0.709  0.00  0.00     0.004 A 
ATOM     32  C   UNL d   1      21.633 -17.237  -0.895  0.00  0.00     0.037 A 
ATOM     33  C   UNL d   1      22.011 -18.582  -0.890  0.00  0.00     0.076 A 
ATOM     34  C   UNL d   1      23.361 -18.915  -0.738  0.00  0.00     0.050 A 
BRANCH  33  35
ATOM     35  O   UNL d   1      21.010 -19.513  -1.078  0.00  0.00    -0.311 OA
BRANCH  35  36
ATOM     36  C   UNL d   1      20.238 -19.885   0.001  0.00  0.00     0.076 A 
ATOM     37  C   UNL d   1      18.992 -20.450  -0.269  0.00  0.00     0.037 A 
ATOM     38  C   UNL d   1      18.138 -20.781   0.785  0.00  0.00     0.003 A 
ATOM     39  C   UNL d   1      18.562 -20.622   2.106  0.00  0.00     0.000 A 
ATOM     40  C   UNL d   1      19.813 -20.076   2.377  0.00  0.00     0.003 A 
ATOM     41  C   UNL d   1      20.633 -19.667   1.327  0.00  0.00     0.037 A 
ENDBRANCH  35  36
ENDBRANCH  33  35
ENDBRANCH  28  29
ENDBRANCH  25  27
ENDBRANCH   4  25
TORSDOF 12
ENDMDL
MODEL 2
REMARK VINA RESULT:   -10.390      3.423      5.197
REMARK INTER + INTRA:         -15.872
REMARK INTER:                 -13.970
REMARK INTRA:                  -1.902
REMARK CONF_INDEPENDENT:        3.580
REMARK UNBOUND:                -1.902
REMARK  12 active torsions:
REMARK  status: ('A' for Active; 'I' for Inactive)
REMARK    1  A    between atoms: C_2  and  N_3 
REMARK    2  A    between atoms: N_3  and  C_4 
REMARK    3  A    between atoms: N_3  and  C_6 
REMARK    4  A    between atoms: C_9  and  N_10 
REMARK       I    between atoms: N_10  and  C_11 
REMARK    5  A    between atoms: C_11  and  C_13 
REMARK    6  A    between atoms: C_13  and  S_14 
REMARK    7  A    between atoms: S_14  and  C_15 
REMARK    8  A    between atoms: C_18  and  N_19 
REMARK    9  A    between atoms: N_19  and  N_20 
REMARK   10  A    between atoms: C_21  and  C_22 
REMARK   11  A    between atoms: C_26  and  O_27 
REMARK   12  A    between atoms: O_27  and  C_28 
ROOT
ATOM      1  C   UNL d   1      31.230 -18.354  -2.427  0.00  0.00     0.226 A 
ATOM      2  N   UNL d   1      31.079 -19.440  -1.664  0.00  0.00    -0.132 NA
ATOM      3  N   UNL d   1      30.448 -18.906  -0.586  0.00  0.00    -0.103 N 
ATOM      4  C   UNL d   1      30.231 -17.557  -0.720  0.00  0.00     0.739 A 
ATOM      5  N   UNL d   1      30.732 -17.199  -1.881  0.00  0.00    -0.034 NA
ATOM      6  H   UNL d   1      30.198 -19.510   0.186  0.00  0.00     0.208 HD
ENDROOT
BRANCH   1   7
ATOM      7  S   UNL d   1      31.995 -18.308  -3.981  0.00  0.00    -0.079 SA
BRANCH   7   8
ATOM      8  C   UNL d   1      30.722 -18.498  -5.290  0.00  0.00     0.185 C 
BRANCH   8   9
ATOM      9  C   UNL d   1      29.969 -17.139  -5.392  0.00  0.00     0.231 C 
ATOM     10  N   UNL d   1      29.246 -16.692  -4.265  0.00  0.00    -0.327 N 
ATOM     11  H   UNL d   1      29.210 -17.288  -3.445  0.00  0.00     0.169 HD
ATOM     12  O   UNL d   1      30.006 -16.500  -6.433  0.00  0.00    -0.272 OA
BRANCH  10  13
ATOM     13  C   UNL d   1      28.459 -15.485  -4.249  0.00  0.00     0.034 A 
ATOM     14  C   UNL d   1      28.905 -14.310  -3.620  0.00  0.00     0.032 A 
ATOM     15  C   UNL d   1      28.065 -13.153  -3.530  0.00  0.00     0.039 A 
ATOM     16  C   UNL d   1      26.809 -13.125  -4.159  0.00  0.00     0.134 A 
ATOM     17  C   UNL d   1      26.385 -14.284  -4.788  0.00  0.00     0.039 A 
ATOM     18  C   UNL d   1      27.193 -15.420  -4.832  0.00  0.00     0.032 A 
BRANCH  16  19
ATOM     19  N   UNL d   1      25.940 -11.905  -4.391  0.00  0.00    -0.042 N 
ATOM     20  H   UNL d   1      25.005 -12.326  -4.336  0.00  0.00     0.286 HD
BRANCH  19  21
ATOM     21  C   UNL d   1      25.904 -11.007  -3.147  0.00  0.00     0.237 C 
ATOM     22  C   UNL d   1      27.233 -10.411  -2.732  0.00  0.00     0.035 C 
ENDBRANCH  19  21
BRANCH  19  23
ATOM     23  C   UNL d   1      25.920 -11.467  -5.845  0.00  0.00     0.237 C 
ATOM     24  C   UNL d   1      25.565 -10.013  -6.073  0.00  0.00     0.035 C 
ENDBRANCH  19  23
ENDBRANCH  16  19
ENDBRANCH  10  13
ENDBRANCH   8   9
ENDBRANCH   7   8
ENDBRANCH   1   7
BRANCH   4  25
ATOM     25  N   UNL d   1      29.606 -16.802   0.231  0.00  0.00    -0.106 N 
ATOM     26  H   UNL d   1      30.122 -16.397   1.009  0.00  0.00     0.208 HD
BRANCH  25  27
ATOM     27  N   UNL d   1      28.257 -16.577   0.154  0.00  0.00    -0.172 NA
ATOM     28  C   UNL d   1      27.504 -17.431  -0.465  0.00  0.00     0.150 C 
BRANCH  28  29
ATOM     29  C   UNL d   1      26.041 -17.198  -0.554  0.00  0.00    -0.014 A 
ATOM     30  C   UNL d   1      25.489 -16.205  -1.364  0.00  0.00     0.013 A 
ATOM     31  C   UNL d   1      24.100 -16.007  -1.369  0.00  0.00     0.004 A 
ATOM     32  C   UNL d   1      23.267 -16.819  -0.590  0.00  0.00     0.037 A 
ATOM     33  C   UNL d   1      23.824 -17.810   0.223  0.00  0.00     0.076 A 
ATOM     34  C   UNL d   1      25.208 -18.005   0.217  0.00  0.00     0.050 A 
BRANCH  33  35
ATOM     35  O   UNL d   1      22.947 -18.574   0.965  0.00  0.00    -0.311 OA
BRANCH  35  36
ATOM     36  C   UNL d   1      21.760 -18.973   0.387  0.00  0.00     0.076 A 
ATOM     37  C   UNL d   1      21.704 -18.998  -1.006  0.00  0.00     0.037 A 
ATOM     38  C   UNL d   1      20.506 -19.325  -1.645  0.00  0.00     0.003 A 
ATOM     39  C   UNL d   1      19.392 -19.704  -0.894  0.00  0.00     0.000 A 
ATOM     40  C   UNL d   1      19.452 -19.697   0.497  0.00  0.00     0.003 A 
ATOM     41  C   UNL d   1      20.621 -19.289   1.138  0.00  0.00     0.037 A 
ENDBRANCH  35  36
ENDBRANCH  33  35
ENDBRANCH  28  29
ENDBRANCH  25  27
ENDBRANCH   4  25
TORSDOF 12
ENDMDL
MODEL 3
REMARK VINA RESULT:    -9.906      2.832      4.002
REMARK INTER + INTRA:         -16.258
REMARK INTER:                 -13.486
REMARK INTRA:                  -2.773
REMARK CONF_INDEPENDENT:        3.580
REMARK UNBOUND:                -2.773
REMARK  12 active torsions:
REMARK  status: ('A' for Active; 'I' for Inactive)
REMARK    1  A    between atoms: C_2  and  N_3 
REMARK    2  A    between atoms: N_3  and  C_4 
REMARK    3  A    between atoms: N_3  and  C_6 
REMARK    4  A    between atoms: C_9  and  N_10 
REMARK       I    between atoms: N_10  and  C_11 
REMARK    5  A    between atoms: C_11  and  C_13 
REMARK    6  A    between atoms: C_13  and  S_14 
REMARK    7  A    between atoms: S_14  and  C_15 
REMARK    8  A    between atoms: C_18  and  N_19 
REMARK    9  A    between atoms: N_19  and  N_20 
REMARK   10  A    between atoms: C_21  and  C_22 
REMARK   11  A    between atoms: C_26  and  O_27 
REMARK   12  A    between atoms: O_27  and  C_28 
ROOT
ATOM      1  C   UNL d   1      27.534 -12.786  -5.873  0.00  0.00     0.226 A 
ATOM      2  N   UNL d   1      26.826 -11.655  -5.931  0.00  0.00    -0.132 NA
ATOM      3  N   UNL d   1      25.656 -12.061  -5.371  0.00  0.00    -0.103 N 
ATOM      4  C   UNL d   1      25.686 -13.381  -4.993  0.00  0.00     0.739 A 
ATOM      5  N   UNL d   1      26.872 -13.848  -5.315  0.00  0.00    -0.034 NA
ATOM      6  H   UNL d   1      24.899 -11.398  -5.279  0.00  0.00     0.208 HD
ENDROOT
BRANCH   1   7
ATOM      7  S   UNL d   1      29.156 -12.993  -6.446  0.00  0.00    -0.079 SA
BRANCH   7   8
ATOM      8  C   UNL d   1      29.767 -14.653  -5.954  0.00  0.00     0.185 C 
BRANCH   8   9
ATOM      9  C   UNL d   1      30.014 -14.608  -4.417  0.00  0.00     0.231 C 
ATOM     10  N   UNL d   1      28.897 -14.707  -3.560  0.00  0.00    -0.327 N 
ATOM     11  H   UNL d   1      27.973 -14.766  -3.973  0.00  0.00     0.169 HD
ATOM     12  O   UNL d   1      31.151 -14.476  -3.988  0.00  0.00    -0.272 OA
BRANCH  10  13
ATOM     13  C   UNL d   1      28.983 -14.620  -2.123  0.00  0.00     0.034 A 
ATOM     14  C   UNL d   1      28.386 -13.573  -1.401  0.00  0.00     0.032 A 
ATOM     15  C   UNL d   1      28.569 -13.451   0.015  0.00  0.00     0.039 A 
ATOM     16  C   UNL d   1      29.266 -14.434   0.737  0.00  0.00     0.134 A 
ATOM     17  C   UNL d   1      29.839 -15.469   0.017  0.00  0.00     0.039 A 
ATOM     18  C   UNL d   1      29.692 -15.554  -1.367  0.00  0.00     0.032 A 
BRANCH  16  19
ATOM     19  N   UNL d   1      29.302 -14.594   2.244  0.00  0.00    -0.042 N 
ATOM     20  H   UNL d   1      29.596 -15.575   2.323  0.00  0.00     0.286 HD
BRANCH  19  21
ATOM     21  C   UNL d   1      30.531 -13.897   2.845  0.00  0.00     0.237 C 
ATOM     22  C   UNL d   1      31.870 -14.497   2.471  0.00  0.00     0.035 C 
ENDBRANCH  19  21
BRANCH  19  23
ATOM     23  C   UNL d   1      27.918 -14.709   2.857  0.00  0.00     0.237 C 
ATOM     24  C   UNL d   1      27.879 -14.680   4.370  0.00  0.00     0.035 C 
ENDBRANCH  19  23
ENDBRANCH  16  19
ENDBRANCH  10  13
ENDBRANCH   8   9
ENDBRANCH   7   8
ENDBRANCH   1   7
BRANCH   4  25
ATOM     25  N   UNL d   1      24.631 -14.013  -4.400  0.00  0.00    -0.106 N 
ATOM     26  H   UNL d   1      23.675 -13.695  -4.542  0.00  0.00     0.208 HD
BRANCH  25  27
ATOM     27  N   UNL d   1      24.844 -15.097  -3.590  0.00  0.00    -0.172 NA
ATOM     28  C   UNL d   1      24.777 -14.954  -2.304  0.00  0.00     0.150 C 
BRANCH  28  29
ATOM     29  C   UNL d   1      25.005 -16.122  -1.417  0.00  0.00    -0.014 A 
ATOM     30  C   UNL d   1      26.238 -16.772  -1.338  0.00  0.00     0.013 A 
ATOM     31  C   UNL d   1      26.375 -17.898  -0.512  0.00  0.00     0.004 A 
ATOM     32  C   UNL d   1      25.293 -18.352   0.251  0.00  0.00     0.037 A 
ATOM     33  C   UNL d   1      24.059 -17.702   0.165  0.00  0.00     0.076 A 
ATOM     34  C   UNL d   1      23.933 -16.576  -0.655  0.00  0.00     0.050 A 
BRANCH  33  35
ATOM     35  O   UNL d   1      23.035 -18.201   0.942  0.00  0.00    -0.311 OA
BRANCH  35  36
ATOM     36  C   UNL d   1      21.913 -18.705   0.320  0.00  0.00     0.076 A 
ATOM     37  C   UNL d   1      20.880 -19.163   1.136  0.00  0.00     0.037 A 
ATOM     38  C   UNL d   1      19.750 -19.748   0.560  0.00  0.00     0.003 A 
ATOM     39  C   UNL d   1      19.618 -19.800  -0.828  0.00  0.00     0.000 A 
ATOM     40  C   UNL d   1      20.641 -19.325  -1.645  0.00  0.00     0.003 A 
ATOM     41  C   UNL d   1      21.806 -18.818  -1.073  0.00  0.00     0.037 A 
ENDBRANCH  35  36
ENDBRANCH  33  35
ENDBRANCH  28  29
ENDBRANCH  25  27
ENDBRANCH   4  25
TORSDOF 12
ENDMDL
MODEL 4
REMARK VINA RESULT:    -9.846      3.327      5.282
REMARK INTER + INTRA:         -15.558
REMARK INTER:                 -13.426
REMARK INTRA:                  -2.132
REMARK CONF_INDEPENDENT:        3.580
REMARK UNBOUND:                -2.132
REMARK  12 active torsions:
REMARK  status: ('A' for Active; 'I' for Inactive)
REMARK    1  A    between atoms: C_2  and  N_3 
REMARK    2  A    between atoms: N_3  and  C_4 
REMARK    3  A    between atoms: N_3  and  C_6 
REMARK    4  A    between atoms: C_9  and  N_10 
REMARK       I    between atoms: N_10  and  C_11 
REMARK    5  A    between atoms: C_11  and  C_13 
REMARK    6  A    between atoms: C_13  and  S_14 
REMARK    7  A    between atoms: S_14  and  C_15 
REMARK    8  A    between atoms: C_18  and  N_19 
REMARK    9  A    between atoms: N_19  and  N_20 
REMARK   10  A    between atoms: C_21  and  C_22 
REMARK   11  A    between atoms: C_26  and  O_27 
REMARK   12  A    between atoms: O_27  and  C_28 
ROOT
ATOM      1  C   UNL d   1      27.382 -12.229  -5.716  0.00  0.00     0.226 A 
ATOM      2  N   UNL d   1      26.655 -11.111  -5.770  0.00  0.00    -0.132 NA
ATOM      3  N   UNL d   1      25.606 -11.453  -4.976  0.00  0.00    -0.103 N 
ATOM      4  C   UNL d   1      25.724 -12.724  -4.471  0.00  0.00     0.739 A 
ATOM      5  N   UNL d   1      26.844 -13.225  -4.943  0.00  0.00    -0.034 NA
ATOM      6  H   UNL d   1      24.865 -10.782  -4.826  0.00  0.00     0.208 HD
ENDROOT
BRANCH   1   7
ATOM      7  S   UNL d   1      28.885 -12.499  -6.536  0.00  0.00    -0.079 SA
BRANCH   7   8
ATOM      8  C   UNL d   1      28.860 -14.159  -7.319  0.00  0.00     0.185 C 
BRANCH   8   9
ATOM      9  C   UNL d   1      29.314 -15.179  -6.233  0.00  0.00     0.231 C 
ATOM     10  N   UNL d   1      29.134 -14.833  -4.877  0.00  0.00    -0.327 N 
ATOM     11  H   UNL d   1      28.752 -13.919  -4.657  0.00  0.00     0.169 HD
ATOM     12  O   UNL d   1      29.821 -16.239  -6.570  0.00  0.00    -0.272 OA
BRANCH  10  13
ATOM     13  C   UNL d   1      29.564 -15.660  -3.778  0.00  0.00     0.034 A 
ATOM     14  C   UNL d   1      29.933 -17.004  -3.953  0.00  0.00     0.032 A 
ATOM     15  C   UNL d   1      30.262 -17.835  -2.833  0.00  0.00     0.039 A 
ATOM     16  C   UNL d   1      30.323 -17.301  -1.535  0.00  0.00     0.134 A 
ATOM     17  C   UNL d   1      29.970 -15.971  -1.376  0.00  0.00     0.039 A 
ATOM     18  C   UNL d   1      29.609 -15.183  -2.467  0.00  0.00     0.032 A 
BRANCH  16  19
ATOM     19  N   UNL d   1      30.917 -17.966  -0.310  0.00  0.00    -0.042 N 
ATOM     20  H   UNL d   1      30.106 -17.958   0.321  0.00  0.00     0.286 HD
BRANCH  19  21
ATOM     21  C   UNL d   1      31.075 -19.478  -0.523  0.00  0.00     0.237 C 
ATOM     22  C   UNL d   1      32.451 -19.936  -0.962  0.00  0.00     0.035 C 
ENDBRANCH  19  21
BRANCH  19  23
ATOM     23  C   UNL d   1      31.837 -17.045   0.471  0.00  0.00     0.237 C 
ATOM     24  C   UNL d   1      32.687 -17.726   1.523  0.00  0.00     0.035 C 
ENDBRANCH  19  23
ENDBRANCH  16  19
ENDBRANCH  10  13
ENDBRANCH   8   9
ENDBRANCH   7   8
ENDBRANCH   1   7
BRANCH   4  25
ATOM     25  N   UNL d   1      24.797 -13.288  -3.641  0.00  0.00    -0.106 N 
ATOM     26  H   UNL d   1      23.819 -13.014  -3.677  0.00  0.00     0.208 HD
BRANCH  25  27
ATOM     27  N   UNL d   1      25.176 -14.241  -2.733  0.00  0.00    -0.172 NA
ATOM     28  C   UNL d   1      24.367 -15.216  -2.460  0.00  0.00     0.150 C 
BRANCH  28  29
ATOM     29  C   UNL d   1      24.767 -16.256  -1.479  0.00  0.00    -0.014 A 
ATOM     30  C   UNL d   1      26.099 -16.619  -1.275  0.00  0.00     0.013 A 
ATOM     31  C   UNL d   1      26.407 -17.641  -0.364  0.00  0.00     0.004 A 
ATOM     32  C   UNL d   1      25.389 -18.274   0.359  0.00  0.00     0.037 A 
ATOM     33  C   UNL d   1      24.056 -17.910   0.150  0.00  0.00     0.076 A 
ATOM     34  C   UNL d   1      23.759 -16.886  -0.754  0.00  0.00     0.050 A 
BRANCH  33  35
ATOM     35  O   UNL d   1      23.104 -18.573   0.895  0.00  0.00    -0.311 OA
BRANCH  35  36
ATOM     36  C   UNL d   1      21.913 -18.920   0.294  0.00  0.00     0.076 A 
ATOM     37  C   UNL d   1      20.855 -19.278   1.129  0.00  0.00     0.037 A 
ATOM     38  C   UNL d   1      19.648 -19.707   0.573  0.00  0.00     0.003 A 
ATOM     39  C   UNL d   1      19.473 -19.699  -0.812  0.00  0.00     0.000 A 
ATOM     40  C   UNL d   1      20.522 -19.324  -1.647  0.00  0.00     0.003 A 
ATOM     41  C   UNL d   1      21.755 -18.977  -1.097  0.00  0.00     0.037 A 
ENDBRANCH  35  36
ENDBRANCH  33  35
ENDBRANCH  28  29
ENDBRANCH  25  27
ENDBRANCH   4  25
TORSDOF 12
ENDMDL
MODEL 5
REMARK VINA RESULT:    -9.614      4.269      8.103
REMARK INTER + INTRA:         -15.639
REMARK INTER:                 -13.194
REMARK INTRA:                  -2.445
REMARK CONF_INDEPENDENT:        3.580
REMARK UNBOUND:                -2.445
REMARK  12 active torsions:
REMARK  status: ('A' for Active; 'I' for Inactive)
REMARK    1  A    between atoms: C_2  and  N_3 
REMARK    2  A    between atoms: N_3  and  C_4 
REMARK    3  A    between atoms: N_3  and  C_6 
REMARK    4  A    between atoms: C_9  and  N_10 
REMARK       I    between atoms: N_10  and  C_11 
REMARK    5  A    between atoms: C_11  and  C_13 
REMARK    6  A    between atoms: C_13  and  S_14 
REMARK    7  A    between atoms: S_14  and  C_15 
REMARK    8  A    between atoms: C_18  and  N_19 
REMARK    9  A    between atoms: N_19  and  N_20 
REMARK   10  A    between atoms: C_21  and  C_22 
REMARK   11  A    between atoms: C_26  and  O_27 
REMARK   12  A    between atoms: O_27  and  C_28 
ROOT
ATOM      1  C   UNL d   1      31.369 -19.727  -2.362  0.00  0.00     0.226 A 
ATOM      2  N   UNL d   1      31.503 -20.377  -1.203  0.00  0.00    -0.132 NA
ATOM      3  N   UNL d   1      30.891 -19.510  -0.355  0.00  0.00    -0.103 N 
ATOM      4  C   UNL d   1      30.409 -18.398  -0.999  0.00  0.00     0.739 A 
ATOM      5  N   UNL d   1      30.715 -18.525  -2.271  0.00  0.00    -0.034 NA
ATOM      6  H   UNL d   1      30.838 -19.739   0.629  0.00  0.00     0.208 HD
ENDROOT
BRANCH   1   7
ATOM      7  S   UNL d   1      31.954 -20.271  -3.899  0.00  0.00    -0.079 SA
BRANCH   7   8
ATOM      8  C   UNL d   1      30.541 -20.454  -5.057  0.00  0.00     0.185 C 
BRANCH   8   9
ATOM      9  C   UNL d   1      30.553 -19.207  -5.989  0.00  0.00     0.231 C 
ATOM     10  N   UNL d   1      30.723 -17.936  -5.400  0.00  0.00    -0.327 N 
ATOM     11  H   UNL d   1      30.793 -17.876  -4.390  0.00  0.00     0.169 HD
ATOM     12  O   UNL d   1      30.405 -19.348  -7.194  0.00  0.00    -0.272 OA
BRANCH  10  13
ATOM     13  C   UNL d   1      30.694 -16.701  -6.143  0.00  0.00     0.034 A 
ATOM     14  C   UNL d   1      31.766 -16.290  -6.952  0.00  0.00     0.032 A 
ATOM     15  C   UNL d   1      31.756 -15.013  -7.602  0.00  0.00     0.039 A 
ATOM     16  C   UNL d   1      30.628 -14.178  -7.531  0.00  0.00     0.134 A 
ATOM     17  C   UNL d   1      29.572 -14.600  -6.741  0.00  0.00     0.039 A 
ATOM     18  C   UNL d   1      29.609 -15.825  -6.077  0.00  0.00     0.032 A 
BRANCH  16  19
ATOM     19  N   UNL d   1      30.357 -12.949  -8.376  0.00  0.00    -0.042 N 
ATOM     20  H   UNL d   1      30.399 -13.355  -9.318  0.00  0.00     0.286 HD
BRANCH  19  21
ATOM     21  C   UNL d   1      28.875 -12.554  -8.319  0.00  0.00     0.237 C 
ATOM     22  C   UNL d   1      28.161 -12.504  -9.654  0.00  0.00     0.035 C 
ENDBRANCH  19  21
BRANCH  19  23
ATOM     23  C   UNL d   1      31.555 -12.020  -8.462  0.00  0.00     0.237 C 
ATOM     24  C   UNL d   1      32.513 -12.308  -9.598  0.00  0.00     0.035 C 
ENDBRANCH  19  23
ENDBRANCH  16  19
ENDBRANCH  10  13
ENDBRANCH   8   9
ENDBRANCH   7   8
ENDBRANCH   1   7
BRANCH   4  25
ATOM     25  N   UNL d   1      29.748 -17.389  -0.358  0.00  0.00    -0.106 N 
ATOM     26  H   UNL d   1      30.207 -16.821   0.349  0.00  0.00     0.208 HD
BRANCH  25  27
ATOM     27  N   UNL d   1      28.437 -17.125  -0.659  0.00  0.00    -0.172 NA
ATOM     28  C   UNL d   1      27.500 -17.733  -0.002  0.00  0.00     0.150 C 
BRANCH  28  29
ATOM     29  C   UNL d   1      26.076 -17.454  -0.318  0.00  0.00    -0.014 A 
ATOM     30  C   UNL d   1      25.029 -18.200   0.226  0.00  0.00     0.013 A 
ATOM     31  C   UNL d   1      23.707 -17.913  -0.147  0.00  0.00     0.004 A 
ATOM     32  C   UNL d   1      23.435 -16.867  -1.036  0.00  0.00     0.037 A 
ATOM     33  C   UNL d   1      24.486 -16.125  -1.581  0.00  0.00     0.076 A 
ATOM     34  C   UNL d   1      25.799 -16.412  -1.199  0.00  0.00     0.050 A 
BRANCH  33  35
ATOM     35  O   UNL d   1      24.147 -15.108  -2.449  0.00  0.00    -0.311 OA
BRANCH  35  36
ATOM     36  C   UNL d   1      25.143 -14.504  -3.187  0.00  0.00     0.076 A 
ATOM     37  C   UNL d   1      25.638 -15.203  -4.287  0.00  0.00     0.037 A 
ATOM     38  C   UNL d   1      26.696 -14.671  -5.026  0.00  0.00     0.003 A 
ATOM     39  C   UNL d   1      27.203 -13.407  -4.717  0.00  0.00     0.000 A 
ATOM     40  C   UNL d   1      26.697 -12.700  -3.629  0.00  0.00     0.003 A 
ATOM     41  C   UNL d   1      25.699 -13.266  -2.838  0.00  0.00     0.037 A 
ENDBRANCH  35  36
ENDBRANCH  33  35
ENDBRANCH  28  29
ENDBRANCH  25  27
ENDBRANCH   4  25
TORSDOF 12
ENDMDL
MODEL 6
REMARK VINA RESULT:    -8.901      3.521      5.932
REMARK INTER + INTRA:         -15.982
REMARK INTER:                 -12.480
REMARK INTRA:                  -3.502
REMARK CONF_INDEPENDENT:        3.580
REMARK UNBOUND:                -3.502
REMARK  12 active torsions:
REMARK  status: ('A' for Active; 'I' for Inactive)
REMARK    1  A    between atoms: C_2  and  N_3 
REMARK    2  A    between atoms: N_3  and  C_4 
REMARK    3  A    between atoms: N_3  and  C_6 
REMARK    4  A    between atoms: C_9  and  N_10 
REMARK       I    between atoms: N_10  and  C_11 
REMARK    5  A    between atoms: C_11  and  C_13 
REMARK    6  A    between atoms: C_13  and  S_14 
REMARK    7  A    between atoms: S_14  and  C_15 
REMARK    8  A    between atoms: C_18  and  N_19 
REMARK    9  A    between atoms: N_19  and  N_20 
REMARK   10  A    between atoms: C_21  and  C_22 
REMARK   11  A    between atoms: C_26  and  O_27 
REMARK   12  A    between atoms: O_27  and  C_28 
ROOT
ATOM      1  C   UNL d   1      31.741 -17.233  -7.215  0.00  0.00     0.226 A 
ATOM      2  N   UNL d   1      32.642 -16.248  -7.215  0.00  0.00    -0.132 NA
ATOM      3  N   UNL d   1      31.828 -15.161  -7.252  0.00  0.00    -0.103 N 
ATOM      4  C   UNL d   1      30.498 -15.501  -7.264  0.00  0.00     0.739 A 
ATOM      5  N   UNL d   1      30.435 -16.814  -7.249  0.00  0.00    -0.034 NA
ATOM      6  H   UNL d   1      32.241 -14.238  -7.264  0.00  0.00     0.208 HD
ENDROOT
BRANCH   1   7
ATOM      7  S   UNL d   1      32.096 -18.929  -7.193  0.00  0.00    -0.079 SA
BRANCH   7   8
ATOM      8  C   UNL d   1      30.632 -19.848  -6.574  0.00  0.00     0.185 C 
BRANCH   8   9
ATOM      9  C   UNL d   1      30.462 -19.472  -5.072  0.00  0.00     0.231 C 
ATOM     10  N   UNL d   1      30.156 -18.132  -4.751  0.00  0.00    -0.327 N 
ATOM     11  H   UNL d   1      30.096 -17.456  -5.504  0.00  0.00     0.169 HD
ATOM     12  O   UNL d   1      30.607 -20.328  -4.211  0.00  0.00    -0.272 OA
BRANCH  10  13
ATOM     13  C   UNL d   1      30.032 -17.643  -3.401  0.00  0.00     0.034 A 
ATOM     14  C   UNL d   1      30.785 -18.175  -2.341  0.00  0.00     0.032 A 
ATOM     15  C   UNL d   1      30.574 -17.742  -0.992  0.00  0.00     0.039 A 
ATOM     16  C   UNL d   1      29.678 -16.698  -0.703  0.00  0.00     0.134 A 
ATOM     17  C   UNL d   1      28.951 -16.172  -1.758  0.00  0.00     0.039 A 
ATOM     18  C   UNL d   1      29.132 -16.632  -3.061  0.00  0.00     0.032 A 
BRANCH  16  19
ATOM     19  N   UNL d   1      29.554 -15.950   0.609  0.00  0.00    -0.042 N 
ATOM     20  H   UNL d   1      29.619 -16.728   1.277  0.00  0.00     0.286 HD
BRANCH  19  21
ATOM     21  C   UNL d   1      30.850 -15.200   0.944  0.00  0.00     0.237 C 
ATOM     22  C   UNL d   1      32.011 -16.066   1.387  0.00  0.00     0.035 C 
ENDBRANCH  19  21
BRANCH  19  23
ATOM     23  C   UNL d   1      28.131 -15.505   0.899  0.00  0.00     0.237 C 
ATOM     24  C   UNL d   1      27.920 -14.006   0.929  0.00  0.00     0.035 C 
ENDBRANCH  19  23
ENDBRANCH  16  19
ENDBRANCH  10  13
ENDBRANCH   8   9
ENDBRANCH   7   8
ENDBRANCH   1   7
BRANCH   4  25
ATOM     25  N   UNL d   1      29.490 -14.580  -7.292  0.00  0.00    -0.106 N 
ATOM     26  H   UNL d   1      29.158 -14.185  -8.169  0.00  0.00     0.208 HD
BRANCH  25  27
ATOM     27  N   UNL d   1      28.905 -14.165  -6.125  0.00  0.00    -0.172 NA
ATOM     28  C   UNL d   1      27.821 -14.745  -5.716  0.00  0.00     0.150 C 
BRANCH  28  29
ATOM     29  C   UNL d   1      27.178 -14.304  -4.453  0.00  0.00    -0.014 A 
ATOM     30  C   UNL d   1      27.694 -13.268  -3.673  0.00  0.00     0.013 A 
ATOM     31  C   UNL d   1      27.063 -12.929  -2.466  0.00  0.00     0.004 A 
ATOM     32  C   UNL d   1      25.907 -13.605  -2.059  0.00  0.00     0.037 A 
ATOM     33  C   UNL d   1      25.396 -14.644  -2.840  0.00  0.00     0.076 A 
ATOM     34  C   UNL d   1      26.026 -14.971  -4.045  0.00  0.00     0.050 A 
BRANCH  33  35
ATOM     35  O   UNL d   1      24.254 -15.267  -2.380  0.00  0.00    -0.311 OA
BRANCH  35  36
ATOM     36  C   UNL d   1      24.381 -16.322  -1.501  0.00  0.00     0.076 A 
ATOM     37  C   UNL d   1      25.672 -16.761  -1.211  0.00  0.00     0.037 A 
ATOM     38  C   UNL d   1      25.856 -17.870  -0.383  0.00  0.00     0.003 A 
ATOM     39  C   UNL d   1      24.758 -18.486   0.218  0.00  0.00     0.000 A 
ATOM     40  C   UNL d   1      23.469 -18.036  -0.055  0.00  0.00     0.003 A 
ATOM     41  C   UNL d   1      23.277 -16.984  -0.948  0.00  0.00     0.037 A 
ENDBRANCH  35  36
ENDBRANCH  33  35
ENDBRANCH  28  29
ENDBRANCH  25  27
ENDBRANCH   4  25
TORSDOF 12
ENDMDL
MODEL 7
REMARK VINA RESULT:    -8.456      3.880      6.526
REMARK INTER + INTRA:         -15.993
REMARK INTER:                 -12.036
REMARK INTRA:                  -3.957
REMARK CONF_INDEPENDENT:        3.580
REMARK UNBOUND:                -3.957
REMARK  12 active torsions:
REMARK  status: ('A' for Active; 'I' for Inactive)
REMARK    1  A    between atoms: C_2  and  N_3 
REMARK    2  A    between atoms: N_3  and  C_4 
REMARK    3  A    between atoms: N_3  and  C_6 
REMARK    4  A    between atoms: C_9  and  N_10 
REMARK       I    between atoms: N_10  and  C_11 
REMARK    5  A    between atoms: C_11  and  C_13 
REMARK    6  A    between atoms: C_13  and  S_14 
REMARK    7  A    between atoms: S_14  and  C_15 
REMARK    8  A    between atoms: C_18  and  N_19 
REMARK    9  A    between atoms: N_19  and  N_20 
REMARK   10  A    between atoms: C_21  and  C_22 
REMARK   11  A    between atoms: C_26  and  O_27 
REMARK   12  A    between atoms: O_27  and  C_28 
ROOT
ATOM      1  C   UNL d   1      27.267 -12.532  -6.050  0.00  0.00     0.226 A 
ATOM      2  N   UNL d   1      26.659 -11.347  -5.942  0.00  0.00    -0.132 NA
ATOM      3  N   UNL d   1      25.532 -11.702  -5.271  0.00  0.00    -0.103 N 
ATOM      4  C   UNL d   1      25.489 -13.045  -4.991  0.00  0.00     0.739 A 
ATOM      5  N   UNL d   1      26.583 -13.579  -5.489  0.00  0.00    -0.034 NA
ATOM      6  H   UNL d   1      24.853 -10.990  -5.041  0.00  0.00     0.208 HD
ENDROOT
BRANCH   1   7
ATOM      7  S   UNL d   1      28.786 -12.822  -6.832  0.00  0.00    -0.079 SA
BRANCH   7   8
ATOM      8  C   UNL d   1      29.098 -14.630  -6.900  0.00  0.00     0.185 C 
BRANCH   8   9
ATOM      9  C   UNL d   1      29.135 -15.139  -5.429  0.00  0.00     0.231 C 
ATOM     10  N   UNL d   1      30.148 -14.647  -4.579  0.00  0.00    -0.327 N 
ATOM     11  H   UNL d   1      30.837 -14.010  -4.964  0.00  0.00     0.169 HD
ATOM     12  O   UNL d   1      28.307 -15.953  -5.047  0.00  0.00    -0.272 OA
BRANCH  10  13
ATOM     13  C   UNL d   1      30.328 -15.082  -3.216  0.00  0.00     0.034 A 
ATOM     14  C   UNL d   1      30.113 -16.413  -2.822  0.00  0.00     0.032 A 
ATOM     15  C   UNL d   1      30.201 -16.802  -1.446  0.00  0.00     0.039 A 
ATOM     16  C   UNL d   1      30.607 -15.883  -0.463  0.00  0.00     0.134 A 
ATOM     17  C   UNL d   1      30.829 -14.577  -0.865  0.00  0.00     0.039 A 
ATOM     18  C   UNL d   1      30.697 -14.199  -2.201  0.00  0.00     0.032 A 
BRANCH  16  19
ATOM     19  N   UNL d   1      31.013 -16.203   0.961  0.00  0.00    -0.042 N 
ATOM     20  H   UNL d   1      30.135 -16.592   1.325  0.00  0.00     0.286 HD
BRANCH  19  21
ATOM     21  C   UNL d   1      31.904 -17.452   1.016  0.00  0.00     0.237 C 
ATOM     22  C   UNL d   1      33.168 -17.390   0.185  0.00  0.00     0.035 C 
ENDBRANCH  19  21
BRANCH  19  23
ATOM     23  C   UNL d   1      31.107 -14.965   1.837  0.00  0.00     0.237 C 
ATOM     24  C   UNL d   1      32.107 -15.053   2.970  0.00  0.00     0.035 C 
ENDBRANCH  19  23
ENDBRANCH  16  19
ENDBRANCH  10  13
ENDBRANCH   8   9
ENDBRANCH   7   8
ENDBRANCH   1   7
BRANCH   4  25
ATOM     25  N   UNL d   1      24.459 -13.636  -4.317  0.00  0.00    -0.106 N 
ATOM     26  H   UNL d   1      23.500 -13.563  -4.646  0.00  0.00     0.208 HD
BRANCH  25  27
ATOM     27  N   UNL d   1      24.703 -14.343  -3.169  0.00  0.00    -0.172 NA
ATOM     28  C   UNL d   1      25.551 -15.323  -3.194  0.00  0.00     0.150 C 
BRANCH  28  29
ATOM     29  C   UNL d   1      25.824 -16.096  -1.956  0.00  0.00    -0.014 A 
ATOM     30  C   UNL d   1      25.108 -17.244  -1.618  0.00  0.00     0.013 A 
ATOM     31  C   UNL d   1      25.386 -17.905  -0.411  0.00  0.00     0.004 A 
ATOM     32  C   UNL d   1      26.396 -17.433   0.436  0.00  0.00     0.037 A 
ATOM     33  C   UNL d   1      27.108 -16.280   0.096  0.00  0.00     0.076 A 
ATOM     34  C   UNL d   1      26.829 -15.632  -1.112  0.00  0.00     0.050 A 
BRANCH  33  35
ATOM     35  O   UNL d   1      28.089 -15.870   0.975  0.00  0.00    -0.311 OA
BRANCH  35  36
ATOM     36  C   UNL d   1      27.869 -14.742   1.737  0.00  0.00     0.076 A 
ATOM     37  C   UNL d   1      28.154 -14.824   3.099  0.00  0.00     0.037 A 
ATOM     38  C   UNL d   1      27.884 -13.735   3.930  0.00  0.00     0.003 A 
ATOM     39  C   UNL d   1      27.406 -12.541   3.388  0.00  0.00     0.000 A 
ATOM     40  C   UNL d   1      27.138 -12.451   2.024  0.00  0.00     0.003 A 
ATOM     41  C   UNL d   1      27.327 -13.564   1.206  0.00  0.00     0.037 A 
ENDBRANCH  35  36
ENDBRANCH  33  35
ENDBRANCH  28  29
ENDBRANCH  25  27
ENDBRANCH   4  25
TORSDOF 12
ENDMDL
MODEL 8
REMARK VINA RESULT:    -8.063      3.123      5.120
REMARK INTER + INTRA:         -15.956
REMARK INTER:                 -11.643
REMARK INTRA:                  -4.313
REMARK CONF_INDEPENDENT:        3.580
REMARK UNBOUND:                -4.313
REMARK  12 active torsions:
REMARK  status: ('A' for Active; 'I' for Inactive)
REMARK    1  A    between atoms: C_2  and  N_3 
REMARK    2  A    between atoms: N_3  and  C_4 
REMARK    3  A    between atoms: N_3  and  C_6 
REMARK    4  A    between atoms: C_9  and  N_10 
REMARK       I    between atoms: N_10  and  C_11 
REMARK    5  A    between atoms: C_11  and  C_13 
REMARK    6  A    between atoms: C_13  and  S_14 
REMARK    7  A    between atoms: S_14  and  C_15 
REMARK    8  A    between atoms: C_18  and  N_19 
REMARK    9  A    between atoms: N_19  and  N_20 
REMARK   10  A    between atoms: C_21  and  C_22 
REMARK   11  A    between atoms: C_26  and  O_27 
REMARK   12  A    between atoms: O_27  and  C_28 
ROOT
ATOM      1  C   UNL d   1      31.004 -18.364  -5.748  0.00  0.00     0.226 A 
ATOM      2  N   UNL d   1      31.949 -17.994  -6.615  0.00  0.00    -0.132 NA
ATOM      3  N   UNL d   1      31.400 -16.856  -7.117  0.00  0.00    -0.103 N 
ATOM      4  C   UNL d   1      30.181 -16.570  -6.554  0.00  0.00     0.739 A 
ATOM      5  N   UNL d   1      29.920 -17.526  -5.691  0.00  0.00    -0.034 NA
ATOM      6  H   UNL d   1      31.905 -16.337  -7.822  0.00  0.00     0.208 HD
ENDROOT
BRANCH   1   7
ATOM      7  S   UNL d   1      31.046 -19.779  -4.749  0.00  0.00    -0.079 SA
BRANCH   7   8
ATOM      8  C   UNL d   1      32.241 -19.519  -3.379  0.00  0.00     0.185 C 
BRANCH   8   9
ATOM      9  C   UNL d   1      31.500 -18.703  -2.279  0.00  0.00     0.231 C 
ATOM     10  N   UNL d   1      30.492 -17.802  -2.683  0.00  0.00    -0.327 N 
ATOM     11  H   UNL d   1      30.313 -17.688  -3.675  0.00  0.00     0.169 HD
ATOM     12  O   UNL d   1      31.807 -18.847  -1.105  0.00  0.00    -0.272 OA
BRANCH  10  13
ATOM     13  C   UNL d   1      29.774 -16.946  -1.772  0.00  0.00     0.034 A 
ATOM     14  C   UNL d   1      30.020 -15.566  -1.691  0.00  0.00     0.032 A 
ATOM     15  C   UNL d   1      29.366 -14.752  -0.710  0.00  0.00     0.039 A 
ATOM     16  C   UNL d   1      28.381 -15.295   0.133  0.00  0.00     0.134 A 
ATOM     17  C   UNL d   1      28.137 -16.654   0.035  0.00  0.00     0.039 A 
ATOM     18  C   UNL d   1      28.811 -17.445  -0.894  0.00  0.00     0.032 A 
BRANCH  16  19
ATOM     19  N   UNL d   1      27.417 -14.523   1.011  0.00  0.00    -0.042 N 
ATOM     20  H   UNL d   1      26.591 -15.132   0.966  0.00  0.00     0.286 HD
BRANCH  19  21
ATOM     21  C   UNL d   1      27.779 -14.672   2.495  0.00  0.00     0.237 C 
ATOM     22  C   UNL d   1      27.684 -13.406   3.322  0.00  0.00     0.035 C 
ENDBRANCH  19  21
BRANCH  19  23
ATOM     23  C   UNL d   1      26.847 -13.296   0.321  0.00  0.00     0.237 C 
ATOM     24  C   UNL d   1      27.842 -12.185   0.059  0.00  0.00     0.035 C 
ENDBRANCH  19  23
ENDBRANCH  16  19
ENDBRANCH  10  13
ENDBRANCH   8   9
ENDBRANCH   7   8
ENDBRANCH   1   7
BRANCH   4  25
ATOM     25  N   UNL d   1      29.441 -15.472  -6.891  0.00  0.00    -0.106 N 
ATOM     26  H   UNL d   1      29.745 -14.833  -7.621  0.00  0.00     0.208 HD
BRANCH  25  27
ATOM     27  N   UNL d   1      28.264 -15.209  -6.241  0.00  0.00    -0.172 NA
ATOM     28  C   UNL d   1      28.234 -15.234  -4.946  0.00  0.00     0.150 C 
BRANCH  28  29
ATOM     29  C   UNL d   1      26.965 -14.949  -4.230  0.00  0.00    -0.014 A 
ATOM     30  C   UNL d   1      25.930 -14.214  -4.808  0.00  0.00     0.013 A 
ATOM     31  C   UNL d   1      24.773 -13.942  -4.062  0.00  0.00     0.004 A 
ATOM     32  C   UNL d   1      24.643 -14.429  -2.756  0.00  0.00     0.037 A 
ATOM     33  C   UNL d   1      25.684 -15.161  -2.179  0.00  0.00     0.076 A 
ATOM     34  C   UNL d   1      26.830 -15.434  -2.932  0.00  0.00     0.050 A 
BRANCH  33  35
ATOM     35  O   UNL d   1      25.491 -15.610  -0.889  0.00  0.00    -0.311 OA
BRANCH  35  36
ATOM     36  C   UNL d   1      24.551 -16.593  -0.662  0.00  0.00     0.076 A 
ATOM     37  C   UNL d   1      25.020 -17.862  -0.326  0.00  0.00     0.037 A 
ATOM     38  C   UNL d   1      24.116 -18.912  -0.155  0.00  0.00     0.003 A 
ATOM     39  C   UNL d   1      22.742 -18.675  -0.239  0.00  0.00     0.000 A 
ATOM     40  C   UNL d   1      22.272 -17.403  -0.556  0.00  0.00     0.003 A 
ATOM     41  C   UNL d   1      23.175 -16.373  -0.811  0.00  0.00     0.037 A 
ENDBRANCH  35  36
ENDBRANCH  33  35
ENDBRANCH  28  29
ENDBRANCH  25  27
ENDBRANCH   4  25
TORSDOF 12
ENDMDL
