MODEL 1
REMARK VINA RESULT:   -10.497      0.000      0.000
REMARK INTER + INTRA:         -15.629
REMARK INTER:                 -13.182
REMARK INTRA:                  -2.447
REMARK CONF_INDEPENDENT:        2.685
REMARK UNBOUND:                -2.447
REMARK  9 active torsions:
REMARK  status: ('A' for Active; 'I' for Inactive)
REMARK    1  A    between atoms: C_2  and  C_3 
REMARK       I    between atoms: C_2  and  N_17 
REMARK    2  A    between atoms: C_3  and  N_4 
REMARK    3  A    between atoms: C_5  and  N_6 
REMARK    4  A    between atoms: N_6  and  C_7 
REMARK    5  A    between atoms: C_7  and  C_8 
REMARK    6  A    between atoms: C_8  and  O_9 
REMARK    7  A    between atoms: N_17  and  C_18 
REMARK    8  A    between atoms: C_23  and  S_24 
REMARK    9  A    between atoms: S_24  and  C_25 
ROOT
ATOM      1  O   UNL d   1      24.781 -14.825  -4.372  0.00  0.00    -0.278 OA
ATOM      2  C   UNL d   1      25.106 -14.532  -3.209  0.00  0.00     0.220 C 
ATOM      3  N   UNL d   1      24.414 -14.944  -2.075  0.00  0.00    -0.227 NA
ATOM      4  H   UNL d   1      23.527 -15.366  -2.297  0.00  0.00     0.136 HD
ENDROOT
BRANCH   2   5
ATOM      5  C   UNL d   1      26.228 -13.607  -3.094  0.00  0.00     0.244 C 
BRANCH   5   6
ATOM      6  N   UNL d   1      26.848 -13.337  -4.377  0.00  0.00    -0.171 N 
ATOM      7  C   UNL d   1      26.652 -12.367  -5.355  0.00  0.00     0.704 A 
ATOM      8  N   UNL d   1      27.410 -12.661  -6.398  0.00  0.00    -0.063 NA
ATOM      9  C   UNL d   1      28.169 -13.759  -6.057  0.00  0.00     0.103 A 
ATOM     10  C   UNL d   1      29.195 -14.433  -6.740  0.00  0.00     0.034 A 
ATOM     11  C   UNL d   1      27.823 -14.216  -4.802  0.00  0.00     0.081 A 
ATOM     12  C   UNL d   1      29.821 -15.532  -6.123  0.00  0.00     0.002 A 
ATOM     13  C   UNL d   1      29.419 -15.983  -4.868  0.00  0.00     0.002 A 
ATOM     14  C   UNL d   1      28.399 -15.336  -4.183  0.00  0.00     0.032 A 
BRANCH   7  15
ATOM     15  N   UNL d   1      25.854 -11.252  -5.339  0.00  0.00    -0.222 N 
ATOM     16  H   UNL d   1      24.939 -11.395  -4.916  0.00  0.00     0.177 HD
BRANCH  15  17
ATOM     17  C   UNL d   1      26.260  -9.878  -5.484  0.00  0.00     0.164 C 
BRANCH  17  18
ATOM     18  C   UNL d   1      25.940  -8.874  -4.403  0.00  0.00     0.184 C 
BRANCH  18  19
ATOM     19  O   UNL d   1      24.843  -9.376  -3.617  0.00  0.00    -0.399 OA
ATOM     20  H   UNL d   1      24.403  -8.624  -3.184  0.00  0.00     0.209 HD
ENDBRANCH  18  19
ENDBRANCH  17  18
ENDBRANCH  15  17
ENDBRANCH   7  15
ENDBRANCH   5   6
ENDBRANCH   2   5
BRANCH   3  21
ATOM     21  C   UNL d   1      25.135 -15.786  -1.227  0.00  0.00     0.032 C 
ATOM     22  C   UNL d   1      26.184 -15.157  -0.545  0.00  0.00     0.025 C 
ATOM     23  C   UNL d   1      27.236 -15.892  -0.060  0.00  0.00     0.002 C 
ATOM     24  C   UNL d   1      27.108 -17.271  -0.033  0.00  0.00     0.001 C 
ATOM     25  C   UNL d   1      25.938 -17.895  -0.520  0.00  0.00     0.021 C 
ATOM     26  C   UNL d   1      24.940 -17.175  -1.210  0.00  0.00     0.027 C 
BRANCH  26  27
ATOM     27  S   UNL d   1      23.656 -18.171  -2.020  0.00  0.00    -0.089 SA
BRANCH  27  28
ATOM     28  C   UNL d   1      22.258 -18.584  -0.978  0.00  0.00     0.005 C 
ATOM     29  C   UNL d   1      22.259 -18.418   0.405  0.00  0.00     0.020 C 
ATOM     30  C   UNL d   1      21.236 -18.950   1.231  0.00  0.00     0.025 C 
ATOM     31  C   UNL d   1      20.066 -19.422   0.657  0.00  0.00     0.034 C 
ATOM     32 CL   UNL d   1      18.782 -20.092   1.597  0.00  0.00    -0.084 Cl
ATOM     33  C   UNL d   1      19.982 -19.462  -0.729  0.00  0.00     0.025 C 
ATOM     34  C   UNL d   1      21.077 -19.079  -1.534  0.00  0.00     0.020 C 
ENDBRANCH  27  28
ENDBRANCH  26  27
ENDBRANCH   3  21
TORSDOF 9
ENDMDL
MODEL 2
REMARK VINA RESULT:    -9.625      1.439      2.043
REMARK INTER + INTRA:         -16.012
REMARK INTER:                 -12.310
REMARK INTRA:                  -3.702
REMARK CONF_INDEPENDENT:        2.685
REMARK UNBOUND:                -3.702
REMARK  9 active torsions:
REMARK  status: ('A' for Active; 'I' for Inactive)
REMARK    1  A    between atoms: C_2  and  C_3 
REMARK       I    between atoms: C_2  and  N_17 
REMARK    2  A    between atoms: C_3  and  N_4 
REMARK    3  A    between atoms: C_5  and  N_6 
REMARK    4  A    between atoms: N_6  and  C_7 
REMARK    5  A    between atoms: C_7  and  C_8 
REMARK    6  A    between atoms: C_8  and  O_9 
REMARK    7  A    between atoms: N_17  and  C_18 
REMARK    8  A    between atoms: C_23  and  S_24 
REMARK    9  A    between atoms: S_24  and  C_25 
ROOT
ATOM      1  O   UNL d   1      25.565 -15.863  -4.074  0.00  0.00    -0.278 OA
ATOM      2  C   UNL d   1      26.124 -15.643  -2.986  0.00  0.00     0.220 C 
ATOM      3  N   UNL d   1      25.451 -15.359  -1.802  0.00  0.00    -0.227 NA
ATOM      4  H   UNL d   1      24.469 -15.186  -1.949  0.00  0.00     0.136 HD
ENDROOT
BRANCH   2   5
ATOM      5  C   UNL d   1      27.581 -15.584  -3.039  0.00  0.00     0.244 C 
BRANCH   5   6
ATOM      6  N   UNL d   1      28.069 -15.314  -4.377  0.00  0.00    -0.171 N 
ATOM      7  C   UNL d   1      27.693 -14.422  -5.377  0.00  0.00     0.704 A 
ATOM      8  N   UNL d   1      28.400 -14.685  -6.464  0.00  0.00    -0.063 NA
ATOM      9  C   UNL d   1      29.301 -15.675  -6.138  0.00  0.00     0.103 A 
ATOM     10  C   UNL d   1      30.342 -16.266  -6.871  0.00  0.00     0.034 A 
ATOM     11  C   UNL d   1      29.103 -16.102  -4.842  0.00  0.00     0.081 A 
ATOM     12  C   UNL d   1      31.132 -17.258  -6.260  0.00  0.00     0.002 A 
ATOM     13  C   UNL d   1      30.878 -17.685  -4.959  0.00  0.00     0.002 A 
ATOM     14  C   UNL d   1      29.846 -17.119  -4.224  0.00  0.00     0.032 A 
BRANCH   7  15
ATOM     15  N   UNL d   1      26.777 -13.402  -5.344  0.00  0.00    -0.222 N 
ATOM     16  H   UNL d   1      25.941 -13.567  -5.901  0.00  0.00     0.177 HD
BRANCH  15  17
ATOM     17  C   UNL d   1      26.672 -12.346  -4.370  0.00  0.00     0.164 C 
BRANCH  17  18
ATOM     18  C   UNL d   1      25.426 -12.210  -3.530  0.00  0.00     0.184 C 
BRANCH  18  19
ATOM     19  O   UNL d   1      24.538 -13.300  -3.842  0.00  0.00    -0.399 OA
ATOM     20  H   UNL d   1      24.764 -14.055  -3.271  0.00  0.00     0.209 HD
ENDBRANCH  18  19
ENDBRANCH  17  18
ENDBRANCH  15  17
ENDBRANCH   7  15
ENDBRANCH   5   6
ENDBRANCH   2   5
BRANCH   3  21
ATOM     21  C   UNL d   1      25.614 -16.314  -0.797  0.00  0.00     0.032 C 
ATOM     22  C   UNL d   1      26.745 -16.119   0.005  0.00  0.00     0.025 C 
ATOM     23  C   UNL d   1      27.292 -17.169   0.700  0.00  0.00     0.002 C 
ATOM     24  C   UNL d   1      26.558 -18.340   0.792  0.00  0.00     0.001 C 
ATOM     25  C   UNL d   1      25.299 -18.452   0.162  0.00  0.00     0.021 C 
ATOM     26  C   UNL d   1      24.817 -17.466  -0.724  0.00  0.00     0.027 C 
BRANCH  26  27
ATOM     27  S   UNL d   1      23.328 -17.902  -1.667  0.00  0.00    -0.089 SA
BRANCH  27  28
ATOM     28  C   UNL d   1      22.015 -18.640  -0.698  0.00  0.00     0.005 C 
ATOM     29  C   UNL d   1      20.939 -19.324  -1.262  0.00  0.00     0.020 C 
ATOM     30  C   UNL d   1      19.805 -19.708  -0.503  0.00  0.00     0.025 C 
ATOM     31  C   UNL d   1      19.855 -19.651   0.882  0.00  0.00     0.034 C 
ATOM     32 CL   UNL d   1      18.512 -20.093   1.873  0.00  0.00    -0.084 Cl
ATOM     33  C   UNL d   1      20.984 -19.104   1.478  0.00  0.00     0.025 C 
ATOM     34  C   UNL d   1      22.034 -18.576   0.696  0.00  0.00     0.020 C 
ENDBRANCH  27  28
ENDBRANCH  26  27
ENDBRANCH   3  21
TORSDOF 9
ENDMDL
MODEL 3
REMARK VINA RESULT:    -9.343      4.493      6.990
REMARK INTER + INTRA:         -16.004
REMARK INTER:                 -12.027
REMARK INTRA:                  -3.977
REMARK CONF_INDEPENDENT:        2.685
REMARK UNBOUND:                -3.977
REMARK  9 active torsions:
REMARK  status: ('A' for Active; 'I' for Inactive)
REMARK    1  A    between atoms: C_2  and  C_3 
REMARK       I    between atoms: C_2  and  N_17 
REMARK    2  A    between atoms: C_3  and  N_4 
REMARK    3  A    between atoms: C_5  and  N_6 
REMARK    4  A    between atoms: N_6  and  C_7 
REMARK    5  A    between atoms: C_7  and  C_8 
REMARK    6  A    between atoms: C_8  and  O_9 
REMARK    7  A    between atoms: N_17  and  C_18 
REMARK    8  A    between atoms: C_23  and  S_24 
REMARK    9  A    between atoms: S_24  and  C_25 
ROOT
ATOM      1  O   UNL d   1      28.009 -15.622   1.467  0.00  0.00    -0.278 OA
ATOM      2  C   UNL d   1      27.823 -14.676   0.683  0.00  0.00     0.220 C 
ATOM      3  N   UNL d   1      28.398 -14.581  -0.580  0.00  0.00    -0.227 NA
ATOM      4  H   UNL d   1      29.112 -15.275  -0.732  0.00  0.00     0.136 HD
ENDROOT
BRANCH   2   5
ATOM      5  C   UNL d   1      27.030 -13.575   1.219  0.00  0.00     0.244 C 
BRANCH   5   6
ATOM      6  N   UNL d   1      27.678 -12.932   2.346  0.00  0.00    -0.171 N 
ATOM      7  C   UNL d   1      28.672 -13.325   3.237  0.00  0.00     0.704 A 
ATOM      8  N   UNL d   1      28.800 -12.391   4.164  0.00  0.00    -0.063 NA
ATOM      9  C   UNL d   1      27.965 -11.351   3.817  0.00  0.00     0.103 A 
ATOM     10  C   UNL d   1      27.769 -10.083   4.386  0.00  0.00     0.034 A 
ATOM     11  C   UNL d   1      27.235 -11.672   2.692  0.00  0.00     0.081 A 
ATOM     12  C   UNL d   1      26.847  -9.201   3.791  0.00  0.00     0.002 A 
ATOM     13  C   UNL d   1      26.105  -9.575   2.674  0.00  0.00     0.002 A 
ATOM     14  C   UNL d   1      26.278 -10.830   2.105  0.00  0.00     0.032 A 
BRANCH   7  15
ATOM     15  N   UNL d   1      29.455 -14.451   3.238  0.00  0.00    -0.222 N 
ATOM     16  H   UNL d   1      28.945 -15.319   3.090  0.00  0.00     0.177 HD
BRANCH  15  17
ATOM     17  C   UNL d   1      30.881 -14.530   3.044  0.00  0.00     0.164 C 
BRANCH  17  18
ATOM     18  C   UNL d   1      31.454 -14.611   1.651  0.00  0.00     0.184 C 
BRANCH  18  19
ATOM     19  O   UNL d   1      30.606 -15.459   0.851  0.00  0.00    -0.399 OA
ATOM     20  H   UNL d   1      30.074 -16.013   1.448  0.00  0.00     0.209 HD
ENDBRANCH  18  19
ENDBRANCH  17  18
ENDBRANCH  15  17
ENDBRANCH   7  15
ENDBRANCH   5   6
ENDBRANCH   2   5
BRANCH   3  21
ATOM     21  C   UNL d   1      27.486 -14.606  -1.637  0.00  0.00     0.032 C 
ATOM     22  C   UNL d   1      27.564 -13.501  -2.492  0.00  0.00     0.025 C 
ATOM     23  C   UNL d   1      26.488 -13.145  -3.266  0.00  0.00     0.002 C 
ATOM     24  C   UNL d   1      25.438 -14.041  -3.372  0.00  0.00     0.001 C 
ATOM     25  C   UNL d   1      25.468 -15.271  -2.677  0.00  0.00     0.021 C 
ATOM     26  C   UNL d   1      26.462 -15.562  -1.718  0.00  0.00     0.027 C 
BRANCH  26  27
ATOM     27  S   UNL d   1      26.188 -17.049  -0.713  0.00  0.00    -0.089 SA
BRANCH  27  28
ATOM     28  C   UNL d   1      24.485 -17.598  -0.634  0.00  0.00     0.005 C 
ATOM     29  C   UNL d   1      24.117 -18.912  -0.353  0.00  0.00     0.020 C 
ATOM     30  C   UNL d   1      22.785 -19.375  -0.508  0.00  0.00     0.025 C 
ATOM     31  C   UNL d   1      21.758 -18.462  -0.689  0.00  0.00     0.034 C 
ATOM     32 CL   UNL d   1      20.115 -18.949  -0.895  0.00  0.00    -0.084 Cl
ATOM     33  C   UNL d   1      22.088 -17.119  -0.828  0.00  0.00     0.025 C 
ATOM     34  C   UNL d   1      23.436 -16.699  -0.832  0.00  0.00     0.020 C 
ENDBRANCH  27  28
ENDBRANCH  26  27
ENDBRANCH   3  21
TORSDOF 9
ENDMDL
MODEL 4
REMARK VINA RESULT:    -9.329      2.207      3.661
REMARK INTER + INTRA:         -15.557
REMARK INTER:                 -12.013
REMARK INTRA:                  -3.544
REMARK CONF_INDEPENDENT:        2.685
REMARK UNBOUND:                -3.544
REMARK  9 active torsions:
REMARK  status: ('A' for Active; 'I' for Inactive)
REMARK    1  A    between atoms: C_2  and  C_3 
REMARK       I    between atoms: C_2  and  N_17 
REMARK    2  A    between atoms: C_3  and  N_4 
REMARK    3  A    between atoms: C_5  and  N_6 
REMARK    4  A    between atoms: N_6  and  C_7 
REMARK    5  A    between atoms: C_7  and  C_8 
REMARK    6  A    between atoms: C_8  and  O_9 
REMARK    7  A    between atoms: N_17  and  C_18 
REMARK    8  A    between atoms: C_23  and  S_24 
REMARK    9  A    between atoms: S_24  and  C_25 
ROOT
ATOM      1  O   UNL d   1      27.312 -15.445  -5.905  0.00  0.00    -0.278 OA
ATOM      2  C   UNL d   1      27.588 -14.941  -4.803  0.00  0.00     0.220 C 
ATOM      3  N   UNL d   1      27.138 -15.431  -3.582  0.00  0.00    -0.227 NA
ATOM      4  H   UNL d   1      26.430 -16.140  -3.689  0.00  0.00     0.136 HD
ENDROOT
BRANCH   2   5
ATOM      5  C   UNL d   1      28.344 -13.694  -4.865  0.00  0.00     0.244 C 
BRANCH   5   6
ATOM      6  N   UNL d   1      27.663 -12.679  -5.645  0.00  0.00    -0.171 N 
ATOM      7  C   UNL d   1      26.482 -11.964  -5.471  0.00  0.00     0.704 A 
ATOM      8  N   UNL d   1      26.261 -11.246  -6.560  0.00  0.00    -0.063 NA
ATOM      9  C   UNL d   1      27.345 -11.418  -7.392  0.00  0.00     0.103 A 
ATOM     10  C   UNL d   1      27.678 -10.829  -8.623  0.00  0.00     0.034 A 
ATOM     11  C   UNL d   1      28.230 -12.327  -6.852  0.00  0.00     0.081 A 
ATOM     12  C   UNL d   1      28.889 -11.187  -9.246  0.00  0.00     0.002 A 
ATOM     13  C   UNL d   1      29.740 -12.134  -8.684  0.00  0.00     0.002 A 
ATOM     14  C   UNL d   1      29.421 -12.734  -7.474  0.00  0.00     0.032 A 
BRANCH   7  15
ATOM     15  N   UNL d   1      25.632 -11.921  -4.397  0.00  0.00    -0.222 N 
ATOM     16  H   UNL d   1      24.821 -11.319  -4.524  0.00  0.00     0.177 HD
BRANCH  15  17
ATOM     17  C   UNL d   1      25.535 -12.866  -3.313  0.00  0.00     0.164 C 
BRANCH  17  18
ATOM     18  C   UNL d   1      24.499 -13.962  -3.352  0.00  0.00     0.184 C 
BRANCH  18  19
ATOM     19  O   UNL d   1      24.780 -14.823  -4.474  0.00  0.00    -0.399 OA
ATOM     20  H   UNL d   1      25.705 -15.117  -4.412  0.00  0.00     0.209 HD
ENDBRANCH  18  19
ENDBRANCH  17  18
ENDBRANCH  15  17
ENDBRANCH   7  15
ENDBRANCH   5   6
ENDBRANCH   2   5
BRANCH   3  21
ATOM     21  C   UNL d   1      28.145 -15.898  -2.736  0.00  0.00     0.032 C 
ATOM     22  C   UNL d   1      29.299 -16.333  -3.398  0.00  0.00     0.025 C 
ATOM     23  C   UNL d   1      30.157 -17.216  -2.791  0.00  0.00     0.002 C 
ATOM     24  C   UNL d   1      29.992 -17.456  -1.437  0.00  0.00     0.001 C 
ATOM     25  C   UNL d   1      28.951 -16.829  -0.716  0.00  0.00     0.021 C 
ATOM     26  C   UNL d   1      27.938 -16.087  -1.361  0.00  0.00     0.027 C 
BRANCH  26  27
ATOM     27  S   UNL d   1      26.527 -15.602  -0.328  0.00  0.00    -0.089 SA
BRANCH  27  28
ATOM     28  C   UNL d   1      25.082 -16.648  -0.492  0.00  0.00     0.005 C 
ATOM     29  C   UNL d   1      23.855 -16.189  -0.966  0.00  0.00     0.020 C 
ATOM     30  C   UNL d   1      22.673 -16.968  -0.883  0.00  0.00     0.025 C 
ATOM     31  C   UNL d   1      22.759 -18.316  -0.570  0.00  0.00     0.034 C 
ATOM     32 CL   UNL d   1      21.365 -19.326  -0.442  0.00  0.00    -0.084 Cl
ATOM     33  C   UNL d   1      24.003 -18.835  -0.232  0.00  0.00     0.025 C 
ATOM     34  C   UNL d   1      25.142 -18.003  -0.163  0.00  0.00     0.020 C 
ENDBRANCH  27  28
ENDBRANCH  26  27
ENDBRANCH   3  21
TORSDOF 9
ENDMDL
MODEL 5
REMARK VINA RESULT:    -8.875      2.164      3.948
REMARK INTER + INTRA:         -15.715
REMARK INTER:                 -11.560
REMARK INTRA:                  -4.155
REMARK CONF_INDEPENDENT:        2.685
REMARK UNBOUND:                -4.155
REMARK  9 active torsions:
REMARK  status: ('A' for Active; 'I' for Inactive)
REMARK    1  A    between atoms: C_2  and  C_3 
REMARK       I    between atoms: C_2  and  N_17 
REMARK    2  A    between atoms: C_3  and  N_4 
REMARK    3  A    between atoms: C_5  and  N_6 
REMARK    4  A    between atoms: N_6  and  C_7 
REMARK    5  A    between atoms: C_7  and  C_8 
REMARK    6  A    between atoms: C_8  and  O_9 
REMARK    7  A    between atoms: N_17  and  C_18 
REMARK    8  A    between atoms: C_23  and  S_24 
REMARK    9  A    between atoms: S_24  and  C_25 
ROOT
ATOM      1  O   UNL d   1      25.148 -14.750  -4.632  0.00  0.00    -0.278 OA
ATOM      2  C   UNL d   1      25.496 -14.808  -3.441  0.00  0.00     0.220 C 
ATOM      3  N   UNL d   1      25.769 -15.990  -2.761  0.00  0.00    -0.227 NA
ATOM      4  H   UNL d   1      25.497 -16.807  -3.284  0.00  0.00     0.136 HD
ENDROOT
BRANCH   2   5
ATOM      5  C   UNL d   1      25.494 -13.532  -2.732  0.00  0.00     0.244 C 
BRANCH   5   6
ATOM      6  N   UNL d   1      26.835 -13.080  -2.416  0.00  0.00    -0.171 N 
ATOM      7  C   UNL d   1      27.867 -12.529  -3.169  0.00  0.00     0.704 A 
ATOM      8  N   UNL d   1      28.937 -12.417  -2.399  0.00  0.00    -0.063 NA
ATOM      9  C   UNL d   1      28.569 -12.800  -1.128  0.00  0.00     0.103 A 
ATOM     10  C   UNL d   1      29.271 -12.792   0.088  0.00  0.00     0.034 A 
ATOM     11  C   UNL d   1      27.262 -13.239  -1.114  0.00  0.00     0.081 A 
ATOM     12  C   UNL d   1      28.620 -13.227   1.258  0.00  0.00     0.002 A 
ATOM     13  C   UNL d   1      27.309 -13.695   1.224  0.00  0.00     0.002 A 
ATOM     14  C   UNL d   1      26.603 -13.719   0.028  0.00  0.00     0.032 A 
BRANCH   7  15
ATOM     15  N   UNL d   1      27.877 -12.119  -4.477  0.00  0.00    -0.222 N 
ATOM     16  H   UNL d   1      28.497 -11.336  -4.669  0.00  0.00     0.177 HD
BRANCH  15  17
ATOM     17  C   UNL d   1      27.441 -12.860  -5.634  0.00  0.00     0.164 C 
BRANCH  17  18
ATOM     18  C   UNL d   1      28.240 -14.043  -6.123  0.00  0.00     0.184 C 
BRANCH  18  19
ATOM     19  O   UNL d   1      27.383 -15.201  -6.145  0.00  0.00    -0.399 OA
ATOM     20  H   UNL d   1      26.503 -14.939  -5.825  0.00  0.00     0.209 HD
ENDBRANCH  18  19
ENDBRANCH  17  18
ENDBRANCH  15  17
ENDBRANCH   7  15
ENDBRANCH   5   6
ENDBRANCH   2   5
BRANCH   3  21
ATOM     21  C   UNL d   1      27.093 -16.124  -2.336  0.00  0.00     0.032 C 
ATOM     22  C   UNL d   1      28.046 -15.829  -3.317  0.00  0.00     0.025 C 
ATOM     23  C   UNL d   1      29.318 -16.337  -3.224  0.00  0.00     0.002 C 
ATOM     24  C   UNL d   1      29.699 -16.919  -2.027  0.00  0.00     0.001 C 
ATOM     25  C   UNL d   1      28.791 -17.011  -0.949  0.00  0.00     0.021 C 
ATOM     26  C   UNL d   1      27.425 -16.686  -1.093  0.00  0.00     0.027 C 
BRANCH  26  27
ATOM     27  S   UNL d   1      26.348 -17.136   0.296  0.00  0.00    -0.089 SA
BRANCH  27  28
ATOM     28  C   UNL d   1      24.680 -17.597  -0.166  0.00  0.00     0.005 C 
ATOM     29  C   UNL d   1      23.700 -16.672  -0.521  0.00  0.00     0.020 C 
ATOM     30  C   UNL d   1      22.337 -17.032  -0.670  0.00  0.00     0.025 C 
ATOM     31  C   UNL d   1      21.984 -18.372  -0.728  0.00  0.00     0.034 C 
ATOM     32 CL   UNL d   1      20.345 -18.888  -0.898  0.00  0.00    -0.084 Cl
ATOM     33  C   UNL d   1      22.974 -19.324  -0.520  0.00  0.00     0.025 C 
ATOM     34  C   UNL d   1      24.297 -18.939  -0.211  0.00  0.00     0.020 C 
ENDBRANCH  27  28
ENDBRANCH  26  27
ENDBRANCH   3  21
TORSDOF 9
ENDMDL
MODEL 6
REMARK VINA RESULT:    -8.539      2.172      3.036
REMARK INTER + INTRA:         -15.680
REMARK INTER:                 -11.223
REMARK INTRA:                  -4.457
REMARK CONF_INDEPENDENT:        2.685
REMARK UNBOUND:                -4.457
REMARK  9 active torsions:
REMARK  status: ('A' for Active; 'I' for Inactive)
REMARK    1  A    between atoms: C_2  and  C_3 
REMARK       I    between atoms: C_2  and  N_17 
REMARK    2  A    between atoms: C_3  and  N_4 
REMARK    3  A    between atoms: C_5  and  N_6 
REMARK    4  A    between atoms: N_6  and  C_7 
REMARK    5  A    between atoms: C_7  and  C_8 
REMARK    6  A    between atoms: C_8  and  O_9 
REMARK    7  A    between atoms: N_17  and  C_18 
REMARK    8  A    between atoms: C_23  and  S_24 
REMARK    9  A    between atoms: S_24  and  C_25 
ROOT
ATOM      1  O   UNL d   1      26.164 -16.326  -2.823  0.00  0.00    -0.278 OA
ATOM      2  C   UNL d   1      26.821 -15.381  -2.355  0.00  0.00     0.220 C 
ATOM      3  N   UNL d   1      26.279 -14.351  -1.594  0.00  0.00    -0.227 NA
ATOM      4  H   UNL d   1      25.271 -14.358  -1.597  0.00  0.00     0.136 HD
ENDROOT
BRANCH   2   5
ATOM      5  C   UNL d   1      28.224 -15.344  -2.755  0.00  0.00     0.244 C 
BRANCH   5   6
ATOM      6  N   UNL d   1      28.381 -15.311  -4.196  0.00  0.00    -0.171 N 
ATOM      7  C   UNL d   1      27.567 -14.893  -5.244  0.00  0.00     0.704 A 
ATOM      8  N   UNL d   1      28.155 -15.207  -6.386  0.00  0.00    -0.063 NA
ATOM      9  C   UNL d   1      29.390 -15.735  -6.080  0.00  0.00     0.103 A 
ATOM     10  C   UNL d   1      30.456 -16.147  -6.896  0.00  0.00     0.034 A 
ATOM     11  C   UNL d   1      29.550 -15.831  -4.714  0.00  0.00     0.081 A 
ATOM     12  C   UNL d   1      31.631 -16.634  -6.292  0.00  0.00     0.002 A 
ATOM     13  C   UNL d   1      31.740 -16.745  -4.908  0.00  0.00     0.002 A 
ATOM     14  C   UNL d   1      30.692 -16.353  -4.087  0.00  0.00     0.032 A 
BRANCH   7  15
ATOM     15  N   UNL d   1      26.360 -14.243  -5.212  0.00  0.00    -0.222 N 
ATOM     16  H   UNL d   1      25.554 -14.843  -5.377  0.00  0.00     0.177 HD
BRANCH  15  17
ATOM     17  C   UNL d   1      26.066 -12.961  -4.624  0.00  0.00     0.164 C 
BRANCH  17  18
ATOM     18  C   UNL d   1      24.951 -12.826  -3.616  0.00  0.00     0.184 C 
BRANCH  18  19
ATOM     19  O   UNL d   1      24.258 -14.086  -3.522  0.00  0.00    -0.399 OA
ATOM     20  H   UNL d   1      24.818 -14.710  -3.029  0.00  0.00     0.209 HD
ENDBRANCH  18  19
ENDBRANCH  17  18
ENDBRANCH  15  17
ENDBRANCH   7  15
ENDBRANCH   5   6
ENDBRANCH   2   5
BRANCH   3  21
ATOM     21  C   UNL d   1      26.743 -14.293  -0.279  0.00  0.00     0.032 C 
ATOM     22  C   UNL d   1      27.064 -13.004   0.163  0.00  0.00     0.025 C 
ATOM     23  C   UNL d   1      27.936 -12.826   1.209  0.00  0.00     0.002 C 
ATOM     24  C   UNL d   1      28.277 -13.933   1.966  0.00  0.00     0.001 C 
ATOM     25  C   UNL d   1      27.763 -15.210   1.648  0.00  0.00     0.021 C 
ATOM     26  C   UNL d   1      27.038 -15.448   0.461  0.00  0.00     0.027 C 
BRANCH  26  27
ATOM     27  S   UNL d   1      26.708 -17.189   0.065  0.00  0.00    -0.089 SA
BRANCH  27  28
ATOM     28  C   UNL d   1      25.002 -17.557  -0.335  0.00  0.00     0.005 C 
ATOM     29  C   UNL d   1      24.087 -16.591  -0.749  0.00  0.00     0.020 C 
ATOM     30  C   UNL d   1      22.698 -16.859  -0.849  0.00  0.00     0.025 C 
ATOM     31  C   UNL d   1      22.245 -18.168  -0.794  0.00  0.00     0.034 C 
ATOM     32 CL   UNL d   1      20.569 -18.570  -0.899  0.00  0.00    -0.084 Cl
ATOM     33  C   UNL d   1      23.166 -19.173  -0.526  0.00  0.00     0.025 C 
ATOM     34  C   UNL d   1      24.520 -18.865  -0.267  0.00  0.00     0.020 C 
ENDBRANCH  27  28
ENDBRANCH  26  27
ENDBRANCH   3  21
TORSDOF 9
ENDMDL
MODEL 7
REMARK VINA RESULT:    -8.409      4.526      7.318
REMARK INTER + INTRA:         -15.781
REMARK INTER:                 -11.094
REMARK INTRA:                  -4.687
REMARK CONF_INDEPENDENT:        2.685
REMARK UNBOUND:                -4.687
REMARK  9 active torsions:
REMARK  status: ('A' for Active; 'I' for Inactive)
REMARK    1  A    between atoms: C_2  and  C_3 
REMARK       I    between atoms: C_2  and  N_17 
REMARK    2  A    between atoms: C_3  and  N_4 
REMARK    3  A    between atoms: C_5  and  N_6 
REMARK    4  A    between atoms: N_6  and  C_7 
REMARK    5  A    between atoms: C_7  and  C_8 
REMARK    6  A    between atoms: C_8  and  O_9 
REMARK    7  A    between atoms: N_17  and  C_18 
REMARK    8  A    between atoms: C_23  and  S_24 
REMARK    9  A    between atoms: S_24  and  C_25 
ROOT
ATOM      1  O   UNL d   1      27.804 -18.501   0.221  0.00  0.00    -0.278 OA
ATOM      2  C   UNL d   1      27.098 -17.508  -0.021  0.00  0.00     0.220 C 
ATOM      3  N   UNL d   1      26.192 -17.428  -1.073  0.00  0.00    -0.227 NA
ATOM      4  H   UNL d   1      26.285 -18.195  -1.720  0.00  0.00     0.136 HD
ENDROOT
BRANCH   2   5
ATOM      5  C   UNL d   1      27.357 -16.344   0.820  0.00  0.00     0.244 C 
BRANCH   5   6
ATOM      6  N   UNL d   1      28.518 -15.597   0.377  0.00  0.00    -0.171 N 
ATOM      7  C   UNL d   1      29.814 -15.956   0.021  0.00  0.00     0.704 A 
ATOM      8  N   UNL d   1      30.516 -14.854  -0.184  0.00  0.00    -0.063 NA
ATOM      9  C   UNL d   1      29.651 -13.788  -0.059  0.00  0.00     0.103 A 
ATOM     10  C   UNL d   1      29.834 -12.411  -0.261  0.00  0.00     0.034 A 
ATOM     11  C   UNL d   1      28.396 -14.224   0.311  0.00  0.00     0.081 A 
ATOM     12  C   UNL d   1      28.741 -11.542  -0.079  0.00  0.00     0.002 A 
ATOM     13  C   UNL d   1      27.498 -12.019   0.328  0.00  0.00     0.002 A 
ATOM     14  C   UNL d   1      27.303 -13.376   0.542  0.00  0.00     0.032 A 
BRANCH   7  15
ATOM     15  N   UNL d   1      30.369 -17.200  -0.138  0.00  0.00    -0.222 N 
ATOM     16  H   UNL d   1      29.976 -17.918   0.467  0.00  0.00     0.177 HD
BRANCH  15  17
ATOM     17  C   UNL d   1      31.127 -17.688  -1.263  0.00  0.00     0.164 C 
BRANCH  17  18
ATOM     18  C   UNL d   1      31.145 -19.162  -1.584  0.00  0.00     0.184 C 
BRANCH  18  19
ATOM     19  O   UNL d   1      30.493 -19.875  -0.515  0.00  0.00    -0.399 OA
ATOM     20  H   UNL d   1      29.792 -19.309  -0.149  0.00  0.00     0.209 HD
ENDBRANCH  18  19
ENDBRANCH  17  18
ENDBRANCH  15  17
ENDBRANCH   7  15
ENDBRANCH   5   6
ENDBRANCH   2   5
BRANCH   3  21
ATOM     21  C   UNL d   1      24.857 -17.302  -0.684  0.00  0.00     0.032 C 
ATOM     22  C   UNL d   1      24.398 -18.332   0.144  0.00  0.00     0.025 C 
ATOM     23  C   UNL d   1      23.056 -18.607   0.230  0.00  0.00     0.002 C 
ATOM     24  C   UNL d   1      22.169 -17.690  -0.307  0.00  0.00     0.001 C 
ATOM     25  C   UNL d   1      22.639 -16.524  -0.950  0.00  0.00     0.021 C 
ATOM     26  C   UNL d   1      24.008 -16.328  -1.232  0.00  0.00     0.027 C 
BRANCH  26  27
ATOM     27  S   UNL d   1      24.405 -14.927  -2.316  0.00  0.00    -0.089 SA
BRANCH  27  28
ATOM     28  C   UNL d   1      25.926 -15.105  -3.246  0.00  0.00     0.005 C 
ATOM     29  C   UNL d   1      27.175 -15.261  -2.647  0.00  0.00     0.020 C 
ATOM     30  C   UNL d   1      28.383 -15.180  -3.386  0.00  0.00     0.025 C 
ATOM     31  C   UNL d   1      28.344 -15.210  -4.771  0.00  0.00     0.034 C 
ATOM     32 CL   UNL d   1      29.771 -15.107  -5.738  0.00  0.00    -0.084 Cl
ATOM     33  C   UNL d   1      27.102 -15.201  -5.395  0.00  0.00     0.025 C 
ATOM     34  C   UNL d   1      25.912 -15.117  -4.641  0.00  0.00     0.020 C 
ENDBRANCH  27  28
ENDBRANCH  26  27
ENDBRANCH   3  21
TORSDOF 9
ENDMDL
MODEL 8
REMARK VINA RESULT:    -8.300      2.967      4.756
REMARK INTER + INTRA:         -15.710
REMARK INTER:                 -10.985
REMARK INTRA:                  -4.725
REMARK CONF_INDEPENDENT:        2.685
REMARK UNBOUND:                -4.725
REMARK  9 active torsions:
REMARK  status: ('A' for Active; 'I' for Inactive)
REMARK    1  A    between atoms: C_2  and  C_3 
REMARK       I    between atoms: C_2  and  N_17 
REMARK    2  A    between atoms: C_3  and  N_4 
REMARK    3  A    between atoms: C_5  and  N_6 
REMARK    4  A    between atoms: N_6  and  C_7 
REMARK    5  A    between atoms: C_7  and  C_8 
REMARK    6  A    between atoms: C_8  and  O_9 
REMARK    7  A    between atoms: N_17  and  C_18 
REMARK    8  A    between atoms: C_23  and  S_24 
REMARK    9  A    between atoms: S_24  and  C_25 
ROOT
ATOM      1  O   UNL d   1      27.970 -11.001  -0.379  0.00  0.00    -0.278 OA
ATOM      2  C   UNL d   1      28.018 -12.204  -0.687  0.00  0.00     0.220 C 
ATOM      3  N   UNL d   1      26.923 -13.062  -0.670  0.00  0.00    -0.227 NA
ATOM      4  H   UNL d   1      26.118 -12.651  -0.224  0.00  0.00     0.136 HD
ENDROOT
BRANCH   2   5
ATOM      5  C   UNL d   1      29.354 -12.718  -0.970  0.00  0.00     0.244 C 
BRANCH   5   6
ATOM      6  N   UNL d   1      29.397 -14.167  -0.957  0.00  0.00    -0.171 N 
ATOM      7  C   UNL d   1      29.375 -15.121   0.055  0.00  0.00     0.704 A 
ATOM      8  N   UNL d   1      29.569 -16.313  -0.485  0.00  0.00    -0.063 NA
ATOM      9  C   UNL d   1      29.615 -16.141  -1.851  0.00  0.00     0.103 A 
ATOM     10  C   UNL d   1      29.709 -17.066  -2.904  0.00  0.00     0.034 A 
ATOM     11  C   UNL d   1      29.529 -14.803  -2.174  0.00  0.00     0.081 A 
ATOM     12  C   UNL d   1      29.710 -16.594  -4.230  0.00  0.00     0.002 A 
ATOM     13  C   UNL d   1      29.656 -15.232  -4.513  0.00  0.00     0.002 A 
ATOM     14  C   UNL d   1      29.574 -14.304  -3.484  0.00  0.00     0.032 A 
BRANCH   7  15
ATOM     15  N   UNL d   1      29.176 -14.967   1.403  0.00  0.00    -0.222 N 
ATOM     16  H   UNL d   1      29.772 -15.551   1.987  0.00  0.00     0.177 HD
BRANCH  15  17
ATOM     17  C   UNL d   1      28.540 -13.864   2.078  0.00  0.00     0.164 C 
BRANCH  17  18
ATOM     18  C   UNL d   1      27.034 -13.783   2.146  0.00  0.00     0.184 C 
BRANCH  18  19
ATOM     19  O   UNL d   1      26.636 -12.414   1.939  0.00  0.00    -0.399 OA
ATOM     20  H   UNL d   1      26.802 -12.181   1.009  0.00  0.00     0.209 HD
ENDBRANCH  18  19
ENDBRANCH  17  18
ENDBRANCH  15  17
ENDBRANCH   7  15
ENDBRANCH   5   6
ENDBRANCH   2   5
BRANCH   3  21
ATOM     21  C   UNL d   1      26.560 -13.567  -1.919  0.00  0.00     0.032 C 
ATOM     22  C   UNL d   1      26.485 -12.603  -2.931  0.00  0.00     0.025 C 
ATOM     23  C   UNL d   1      25.723 -12.830  -4.051  0.00  0.00     0.002 C 
ATOM     24  C   UNL d   1      25.254 -14.115  -4.268  0.00  0.00     0.001 C 
ATOM     25  C   UNL d   1      25.530 -15.148  -3.345  0.00  0.00     0.021 C 
ATOM     26  C   UNL d   1      26.128 -14.891  -2.093  0.00  0.00     0.027 C 
BRANCH  26  27
ATOM     27  S   UNL d   1      26.141 -16.274  -0.918  0.00  0.00    -0.089 SA
BRANCH  27  28
ATOM     28  C   UNL d   1      24.590 -17.158  -0.781  0.00  0.00     0.005 C 
ATOM     29  C   UNL d   1      23.345 -16.538  -0.869  0.00  0.00     0.020 C 
ATOM     30  C   UNL d   1      22.140 -17.211  -0.542  0.00  0.00     0.025 C 
ATOM     31  C   UNL d   1      22.144 -18.588  -0.383  0.00  0.00     0.034 C 
ATOM     32 CL   UNL d   1      20.720 -19.475   0.025  0.00  0.00    -0.084 Cl
ATOM     33  C   UNL d   1      23.363 -19.253  -0.435  0.00  0.00     0.025 C 
ATOM     34  C   UNL d   1      24.571 -18.542  -0.600  0.00  0.00     0.020 C 
ENDBRANCH  27  28
ENDBRANCH  26  27
ENDBRANCH   3  21
TORSDOF 9
ENDMDL
