MODEL 1
REMARK VINA RESULT:    -8.927      0.000      0.000
REMARK INTER + INTRA:         -13.076
REMARK INTER:                 -10.717
REMARK INTRA:                  -2.359
REMARK CONF_INDEPENDENT:        1.790
REMARK UNBOUND:                -2.359
REMARK  6 active torsions:
REMARK  status: ('A' for Active; 'I' for Inactive)
REMARK    1  A    between atoms: C_12  and  N_13 
REMARK       I    between atoms: N_13  and  C_14 
REMARK    2  A    between atoms: C_14  and  C_16 
REMARK    3  A    between atoms: C_16  and  O_17 
REMARK    4  A    between atoms: O_17  and  C_18 
REMARK    5  A    between atoms: C_18  and  C_20 
REMARK    6  A    between atoms: C_25  and  C_26 
ROOT
ATOM      1  C   UNL d   1      24.693 -14.171  -3.258  0.00  0.00     0.281 C 
ENDROOT
BRANCH   1   2
ATOM      2  C   UNL d   1      26.074 -13.665  -3.686  0.00  0.00     0.244 C 
ATOM      3  N   UNL d   1      27.163 -14.385  -3.238  0.00  0.00    -0.329 N 
ATOM      4  H   UNL d   1      27.066 -15.225  -2.686  0.00  0.00     0.165 HD
ATOM      5  O   UNL d   1      26.210 -12.655  -4.376  0.00  0.00    -0.271 OA
BRANCH   3   6
ATOM      6  C   UNL d   1      28.481 -13.922  -3.569  0.00  0.00     0.264 A 
ATOM      7  O   UNL d   1      28.621 -12.592  -3.021  0.00  0.00    -0.353 OA
ATOM      8  C   UNL d   1      29.002 -11.681  -4.076  0.00  0.00     0.152 A 
ATOM      9  C   UNL d   1      28.990 -12.496  -5.312  0.00  0.00    -0.017 A 
ATOM     10  C   UNL d   1      27.989 -10.553  -4.135  0.00  0.00     0.044 C 
ATOM     11  C   UNL d   1      28.660 -13.748  -5.013  0.00  0.00     0.066 A 
ATOM     12  C   UNL d   1      29.359 -12.020  -6.663  0.00  0.00     0.105 C 
ATOM     13  C   UNL d   1      28.632 -14.778  -6.034  0.00  0.00     0.266 C 
ATOM     14  N   UNL d   1      28.911 -14.363  -7.314  0.00  0.00    -0.287 N 
ATOM     15  O   UNL d   1      28.366 -15.950  -5.770  0.00  0.00    -0.266 OA
ATOM     16  N   UNL d   1      29.203 -13.037  -7.723  0.00  0.00    -0.229 NA
ATOM     17  H   UNL d   1      28.828 -15.082  -8.030  0.00  0.00     0.184 HD
ATOM     18  H   UNL d   1      30.076 -13.080  -8.257  0.00  0.00     0.147 HD
ATOM     19  C   UNL d   1      30.821 -11.577  -6.643  0.00  0.00     0.033 C 
ENDBRANCH   3   6
ENDBRANCH   1   2
BRANCH   1  20
ATOM     20  O   UNL d   1      24.764 -15.594  -3.003  0.00  0.00    -0.307 OA
BRANCH  20  21
ATOM     21  C   UNL d   1      24.403 -15.956  -1.750  0.00  0.00     0.315 C 
ATOM     22  O   UNL d   1      23.293 -15.758  -1.275  0.00  0.00    -0.257 OA
BRANCH  21  23
ATOM     23  C   UNL d   1      25.466 -16.726  -1.029  0.00  0.00     0.163 A 
ATOM     24  N   UNL d   1      26.743 -16.233  -1.014  0.00  0.00    -0.251 NA
ATOM     25  C   UNL d   1      27.607 -16.878  -0.183  0.00  0.00     0.137 A 
ATOM     26  C   UNL d   1      27.239 -17.968   0.592  0.00  0.00     0.136 A 
ATOM     27  N   UNL d   1      25.992 -18.480   0.556  0.00  0.00    -0.254 NA
ATOM     28  C   UNL d   1      25.104 -17.838  -0.267  0.00  0.00     0.127 A 
BRANCH  28  29
ATOM     29  C   UNL d   1      23.746 -18.373  -0.241  0.00  0.00     0.130 A 
ATOM     30  N   UNL d   1      23.050 -18.578   0.856  0.00  0.00    -0.238 NA
ATOM     31  C   UNL d   1      21.763 -18.949   0.529  0.00  0.00     0.075 A 
ATOM     32  C   UNL d   1      20.734 -19.210   1.452  0.00  0.00     0.033 A 
ATOM     33  C   UNL d   1      21.495 -19.064  -0.836  0.00  0.00     0.035 A 
ATOM     34  C   UNL d   1      19.470 -19.583   0.989  0.00  0.00     0.002 A 
ATOM     35  C   UNL d   1      19.218 -19.678  -0.376  0.00  0.00     0.002 A 
ATOM     36  C   UNL d   1      20.223 -19.414  -1.313  0.00  0.00     0.021 A 
ATOM     37  S   UNL d   1      22.936 -18.739  -1.717  0.00  0.00    -0.066 SA
ENDBRANCH  28  29
ENDBRANCH  21  23
ENDBRANCH  20  21
ENDBRANCH   1  20
TORSDOF 6
ENDMDL
MODEL 2
REMARK VINA RESULT:    -8.767      1.696      2.114
REMARK INTER + INTRA:         -12.961
REMARK INTER:                 -10.556
REMARK INTRA:                  -2.404
REMARK CONF_INDEPENDENT:        1.790
REMARK UNBOUND:                -2.404
REMARK  6 active torsions:
REMARK  status: ('A' for Active; 'I' for Inactive)
REMARK    1  A    between atoms: C_12  and  N_13 
REMARK       I    between atoms: N_13  and  C_14 
REMARK    2  A    between atoms: C_14  and  C_16 
REMARK    3  A    between atoms: C_16  and  O_17 
REMARK    4  A    between atoms: O_17  and  C_18 
REMARK    5  A    between atoms: C_18  and  C_20 
REMARK    6  A    between atoms: C_25  and  C_26 
ROOT
ATOM      1  C   UNL d   1      25.527 -15.694  -4.118  0.00  0.00     0.281 C 
ENDROOT
BRANCH   1   2
ATOM      2  C   UNL d   1      26.919 -15.323  -4.640  0.00  0.00     0.244 C 
ATOM      3  N   UNL d   1      27.802 -14.789  -3.723  0.00  0.00    -0.329 N 
ATOM      4  H   UNL d   1      27.567 -14.678  -2.748  0.00  0.00     0.165 HD
ATOM      5  O   UNL d   1      27.228 -15.471  -5.822  0.00  0.00    -0.271 OA
BRANCH   3   6
ATOM      6  C   UNL d   1      29.101 -14.377  -4.175  0.00  0.00     0.264 A 
ATOM      7  O   UNL d   1      28.913 -13.241  -5.048  0.00  0.00    -0.353 OA
ATOM      8  C   UNL d   1      29.536 -13.512  -6.323  0.00  0.00     0.152 A 
ATOM      9  C   UNL d   1      30.026 -14.907  -6.223  0.00  0.00    -0.017 A 
ATOM     10  C   UNL d   1      28.496 -13.357  -7.417  0.00  0.00     0.044 C 
ATOM     11  C   UNL d   1      29.740 -15.390  -5.019  0.00  0.00     0.066 A 
ATOM     12  C   UNL d   1      30.782 -15.633  -7.267  0.00  0.00     0.105 C 
ATOM     13  C   UNL d   1      30.163 -16.722  -4.628  0.00  0.00     0.266 C 
ATOM     14  N   UNL d   1      30.817 -17.452  -5.592  0.00  0.00    -0.287 N 
ATOM     15  O   UNL d   1      29.941 -17.172  -3.505  0.00  0.00    -0.266 OA
ATOM     16  N   UNL d   1      31.096 -17.034  -6.918  0.00  0.00    -0.229 NA
ATOM     17  H   UNL d   1      31.053 -18.405  -5.326  0.00  0.00     0.184 HD
ATOM     18  H   UNL d   1      32.098 -17.184  -7.068  0.00  0.00     0.147 HD
ATOM     19  C   UNL d   1      32.098 -14.900  -7.516  0.00  0.00     0.033 C 
ENDBRANCH   3   6
ENDBRANCH   1   2
BRANCH   1  20
ATOM     20  O   UNL d   1      25.257 -14.947  -2.907  0.00  0.00    -0.307 OA
BRANCH  20  21
ATOM     21  C   UNL d   1      24.770 -15.692  -1.887  0.00  0.00     0.315 C 
ATOM     22  O   UNL d   1      23.580 -15.796  -1.625  0.00  0.00    -0.257 OA
BRANCH  21  23
ATOM     23  C   UNL d   1      25.829 -16.471  -1.169  0.00  0.00     0.163 A 
ATOM     24  N   UNL d   1      27.100 -15.965  -1.117  0.00  0.00    -0.251 NA
ATOM     25  C   UNL d   1      27.956 -16.624  -0.287  0.00  0.00     0.137 A 
ATOM     26  C   UNL d   1      27.586 -17.739   0.450  0.00  0.00     0.136 A 
ATOM     27  N   UNL d   1      26.345 -18.262   0.376  0.00  0.00    -0.254 NA
ATOM     28  C   UNL d   1      25.465 -17.607  -0.444  0.00  0.00     0.127 A 
BRANCH  28  29
ATOM     29  C   UNL d   1      24.113 -18.157  -0.458  0.00  0.00     0.130 A 
ATOM     30  N   UNL d   1      23.370 -18.326   0.613  0.00  0.00    -0.238 NA
ATOM     31  C   UNL d   1      22.103 -18.725   0.243  0.00  0.00     0.075 A 
ATOM     32  C   UNL d   1      21.035 -18.961   1.127  0.00  0.00     0.033 A 
ATOM     33  C   UNL d   1      21.899 -18.899  -1.127  0.00  0.00     0.035 A 
ATOM     34  C   UNL d   1      19.797 -19.367   0.624  0.00  0.00     0.002 A 
ATOM     35  C   UNL d   1      19.610 -19.521  -0.747  0.00  0.00     0.002 A 
ATOM     36  C   UNL d   1      20.654 -19.284  -1.647  0.00  0.00     0.021 A 
ATOM     37  S   UNL d   1      23.376 -18.594  -1.953  0.00  0.00    -0.066 SA
ENDBRANCH  28  29
ENDBRANCH  21  23
ENDBRANCH  20  21
ENDBRANCH   1  20
TORSDOF 6
ENDMDL
MODEL 3
REMARK VINA RESULT:    -8.212      3.027      5.650
REMARK INTER + INTRA:         -12.846
REMARK INTER:                 -10.001
REMARK INTRA:                  -2.844
REMARK CONF_INDEPENDENT:        1.790
REMARK UNBOUND:                -2.844
REMARK  6 active torsions:
REMARK  status: ('A' for Active; 'I' for Inactive)
REMARK    1  A    between atoms: C_12  and  N_13 
REMARK       I    between atoms: N_13  and  C_14 
REMARK    2  A    between atoms: C_14  and  C_16 
REMARK    3  A    between atoms: C_16  and  O_17 
REMARK    4  A    between atoms: O_17  and  C_18 
REMARK    5  A    between atoms: C_18  and  C_20 
REMARK    6  A    between atoms: C_25  and  C_26 
ROOT
ATOM      1  C   UNL d   1      27.892 -14.945  -6.111  0.00  0.00     0.281 C 
ENDROOT
BRANCH   1   2
ATOM      2  C   UNL d   1      29.273 -15.440  -5.669  0.00  0.00     0.244 C 
ATOM      3  N   UNL d   1      29.329 -16.135  -4.477  0.00  0.00    -0.329 N 
ATOM      4  H   UNL d   1      28.505 -16.343  -3.934  0.00  0.00     0.165 HD
ATOM      5  O   UNL d   1      30.285 -15.213  -6.330  0.00  0.00    -0.271 OA
BRANCH   3   6
ATOM      6  C   UNL d   1      30.608 -16.574  -3.994  0.00  0.00     0.264 A 
ATOM      7  O   UNL d   1      31.136 -17.508  -4.962  0.00  0.00    -0.353 OA
ATOM      8  C   UNL d   1      31.454 -18.752  -4.299  0.00  0.00     0.152 A 
ATOM      9  C   UNL d   1      31.001 -18.569  -2.901  0.00  0.00    -0.017 A 
ATOM     10  C   UNL d   1      30.709 -19.878  -4.990  0.00  0.00     0.044 C 
ATOM     11  C   UNL d   1      30.495 -17.350  -2.756  0.00  0.00     0.066 A 
ATOM     12  C   UNL d   1      31.152 -19.556  -1.809  0.00  0.00     0.105 C 
ATOM     13  C   UNL d   1      30.029 -16.881  -1.464  0.00  0.00     0.266 C 
ATOM     14  N   UNL d   1      30.098 -17.791  -0.435  0.00  0.00    -0.287 N 
ATOM     15  O   UNL d   1      29.592 -15.743  -1.302  0.00  0.00    -0.266 OA
ATOM     16  N   UNL d   1      30.559 -19.129  -0.525  0.00  0.00    -0.229 NA
ATOM     17  H   UNL d   1      29.711 -17.471   0.451  0.00  0.00     0.184 HD
ATOM     18  H   UNL d   1      31.264 -19.245   0.208  0.00  0.00     0.147 HD
ATOM     19  C   UNL d   1      32.641 -19.809  -1.581  0.00  0.00     0.033 C 
ENDBRANCH   3   6
ENDBRANCH   1   2
BRANCH   1  20
ATOM     20  O   UNL d   1      26.877 -15.564  -5.285  0.00  0.00    -0.307 OA
BRANCH  20  21
ATOM     21  C   UNL d   1      26.198 -14.701  -4.493  0.00  0.00     0.315 C 
ATOM     22  O   UNL d   1      24.978 -14.609  -4.472  0.00  0.00    -0.257 OA
BRANCH  21  23
ATOM     23  C   UNL d   1      27.084 -13.937  -3.558  0.00  0.00     0.163 A 
ATOM     24  N   UNL d   1      27.862 -12.928  -4.061  0.00  0.00    -0.251 NA
ATOM     25  C   UNL d   1      28.488 -12.157  -3.130  0.00  0.00     0.137 A 
ATOM     26  C   UNL d   1      28.368 -12.371  -1.765  0.00  0.00     0.136 A 
ATOM     27  N   UNL d   1      27.631 -13.383  -1.265  0.00  0.00    -0.254 NA
ATOM     28  C   UNL d   1      26.984 -14.166  -2.185  0.00  0.00     0.127 A 
BRANCH  28  29
ATOM     29  C   UNL d   1      26.144 -15.215  -1.615  0.00  0.00     0.130 A 
ATOM     30  N   UNL d   1      24.830 -15.217  -1.655  0.00  0.00    -0.238 NA
ATOM     31  C   UNL d   1      24.351 -16.413  -1.161  0.00  0.00     0.075 A 
ATOM     32  C   UNL d   1      22.994 -16.776  -1.089  0.00  0.00     0.033 A 
ATOM     33  C   UNL d   1      25.318 -17.310  -0.706  0.00  0.00     0.035 A 
ATOM     34  C   UNL d   1      22.639 -18.020  -0.563  0.00  0.00     0.002 A 
ATOM     35  C   UNL d   1      23.619 -18.907  -0.127  0.00  0.00     0.002 A 
ATOM     36  C   UNL d   1      24.975 -18.572  -0.197  0.00  0.00     0.021 A 
ATOM     37  S   UNL d   1      26.870 -16.587  -0.866  0.00  0.00    -0.066 SA
ENDBRANCH  28  29
ENDBRANCH  21  23
ENDBRANCH  20  21
ENDBRANCH   1  20
TORSDOF 6
ENDMDL
MODEL 4
REMARK VINA RESULT:    -7.620      3.169      6.361
REMARK INTER + INTRA:         -12.700
REMARK INTER:                  -9.410
REMARK INTRA:                  -3.290
REMARK CONF_INDEPENDENT:        1.790
REMARK UNBOUND:                -3.290
REMARK  6 active torsions:
REMARK  status: ('A' for Active; 'I' for Inactive)
REMARK    1  A    between atoms: C_12  and  N_13 
REMARK       I    between atoms: N_13  and  C_14 
REMARK    2  A    between atoms: C_14  and  C_16 
REMARK    3  A    between atoms: C_16  and  O_17 
REMARK    4  A    between atoms: O_17  and  C_18 
REMARK    5  A    between atoms: C_18  and  C_20 
REMARK    6  A    between atoms: C_25  and  C_26 
ROOT
ATOM      1  C   UNL d   1      28.273 -11.707  -2.559  0.00  0.00     0.281 C 
ENDROOT
BRANCH   1   2
ATOM      2  C   UNL d   1      27.976 -12.277  -1.168  0.00  0.00     0.244 C 
ATOM      3  N   UNL d   1      27.040 -13.289  -1.101  0.00  0.00    -0.329 N 
ATOM      4  H   UNL d   1      26.594 -13.668  -1.924  0.00  0.00     0.165 HD
ATOM      5  O   UNL d   1      28.526 -11.840  -0.158  0.00  0.00    -0.271 OA
BRANCH   3   6
ATOM      6  C   UNL d   1      26.688 -13.820   0.185  0.00  0.00     0.264 A 
ATOM      7  O   UNL d   1      25.979 -12.784   0.900  0.00  0.00    -0.353 OA
ATOM      8  C   UNL d   1      26.633 -12.548   2.167  0.00  0.00     0.152 A 
ATOM      9  C   UNL d   1      27.833 -13.416   2.148  0.00  0.00    -0.017 A 
ATOM     10  C   UNL d   1      27.002 -11.079   2.258  0.00  0.00     0.044 C 
ATOM     11  C   UNL d   1      27.867 -14.099   1.010  0.00  0.00     0.066 A 
ATOM     12  C   UNL d   1      28.808 -13.564   3.251  0.00  0.00     0.105 C 
ATOM     13  C   UNL d   1      28.909 -15.076   0.753  0.00  0.00     0.266 C 
ATOM     14  N   UNL d   1      29.869 -15.200   1.730  0.00  0.00    -0.287 N 
ATOM     15  O   UNL d   1      28.935 -15.745  -0.278  0.00  0.00    -0.266 OA
ATOM     16  N   UNL d   1      29.941 -14.459   2.937  0.00  0.00    -0.229 NA
ATOM     17  H   UNL d   1      30.627 -15.842   1.511  0.00  0.00     0.184 HD
ATOM     18  H   UNL d   1      30.029 -15.142   3.695  0.00  0.00     0.147 HD
ATOM     19  C   UNL d   1      28.084 -14.127   4.472  0.00  0.00     0.033 C 
ENDBRANCH   3   6
ENDBRANCH   1   2
BRANCH   1  20
ATOM     20  O   UNL d   1      27.031 -11.309  -3.187  0.00  0.00    -0.307 OA
BRANCH  20  21
ATOM     21  C   UNL d   1      26.237 -12.341  -3.560  0.00  0.00     0.315 C 
ATOM     22  O   UNL d   1      25.122 -12.544  -3.100  0.00  0.00    -0.257 OA
BRANCH  21  23
ATOM     23  C   UNL d   1      26.815 -13.155  -4.676  0.00  0.00     0.163 A 
ATOM     24  N   UNL d   1      27.339 -12.509  -5.763  0.00  0.00    -0.251 NA
ATOM     25  C   UNL d   1      28.017 -13.301  -6.640  0.00  0.00     0.137 A 
ATOM     26  C   UNL d   1      28.166 -14.669  -6.465  0.00  0.00     0.136 A 
ATOM     27  N   UNL d   1      27.623 -15.316  -5.414  0.00  0.00    -0.254 NA
ATOM     28  C   UNL d   1      26.946 -14.536  -4.514  0.00  0.00     0.127 A 
BRANCH  28  29
ATOM     29  C   UNL d   1      26.421 -15.251  -3.355  0.00  0.00     0.130 A 
ATOM     30  N   UNL d   1      25.172 -15.189  -2.947  0.00  0.00    -0.238 NA
ATOM     31  C   UNL d   1      24.971 -16.089  -1.922  0.00  0.00     0.075 A 
ATOM     32  C   UNL d   1      23.745 -16.319  -1.272  0.00  0.00     0.033 A 
ATOM     33  C   UNL d   1      26.096 -16.813  -1.522  0.00  0.00     0.035 A 
ATOM     34  C   UNL d   1      23.675 -17.259  -0.241  0.00  0.00     0.002 A 
ATOM     35  C   UNL d   1      24.805 -17.981   0.133  0.00  0.00     0.002 A 
ATOM     36  C   UNL d   1      26.033 -17.776  -0.505  0.00  0.00     0.021 A 
ATOM     37  S   UNL d   1      27.450 -16.293  -2.446  0.00  0.00    -0.066 SA
ENDBRANCH  28  29
ENDBRANCH  21  23
ENDBRANCH  20  21
ENDBRANCH   1  20
TORSDOF 6
ENDMDL
MODEL 5
REMARK VINA RESULT:    -7.423      2.678      4.673
REMARK INTER + INTRA:         -12.858
REMARK INTER:                  -9.213
REMARK INTRA:                  -3.646
REMARK CONF_INDEPENDENT:        1.790
REMARK UNBOUND:                -3.646
REMARK  6 active torsions:
REMARK  status: ('A' for Active; 'I' for Inactive)
REMARK    1  A    between atoms: C_12  and  N_13 
REMARK       I    between atoms: N_13  and  C_14 
REMARK    2  A    between atoms: C_14  and  C_16 
REMARK    3  A    between atoms: C_16  and  O_17 
REMARK    4  A    between atoms: O_17  and  C_18 
REMARK    5  A    between atoms: C_18  and  C_20 
REMARK    6  A    between atoms: C_25  and  C_26 
ROOT
ATOM      1  C   UNL d   1      30.235 -17.376  -4.206  0.00  0.00     0.281 C 
ENDROOT
BRANCH   1   2
ATOM      2  C   UNL d   1      29.685 -16.439  -5.286  0.00  0.00     0.244 C 
ATOM      3  N   UNL d   1      28.562 -15.707  -4.957  0.00  0.00    -0.329 N 
ATOM      4  H   UNL d   1      28.136 -15.751  -4.043  0.00  0.00     0.165 HD
ATOM      5  O   UNL d   1      30.204 -16.358  -6.399  0.00  0.00    -0.271 OA
BRANCH   3   6
ATOM      6  C   UNL d   1      27.978 -14.854  -5.953  0.00  0.00     0.264 A 
ATOM      7  O   UNL d   1      29.052 -14.099  -6.557  0.00  0.00    -0.353 OA
ATOM      8  C   UNL d   1      28.758 -12.688  -6.454  0.00  0.00     0.152 A 
ATOM      9  C   UNL d   1      27.503 -12.612  -5.670  0.00  0.00    -0.017 A 
ATOM     10  C   UNL d   1      29.908 -12.000  -5.743  0.00  0.00     0.044 C 
ATOM     11  C   UNL d   1      27.098 -13.840  -5.366  0.00  0.00     0.066 A 
ATOM     12  C   UNL d   1      26.768 -11.372  -5.335  0.00  0.00     0.105 C 
ATOM     13  C   UNL d   1      25.855 -14.062  -4.649  0.00  0.00     0.266 C 
ATOM     14  N   UNL d   1      25.172 -12.931  -4.268  0.00  0.00    -0.287 N 
ATOM     15  O   UNL d   1      25.444 -15.192  -4.392  0.00  0.00    -0.266 OA
ATOM     16  N   UNL d   1      25.574 -11.590  -4.493  0.00  0.00    -0.229 NA
ATOM     17  H   UNL d   1      24.335 -13.099  -3.714  0.00  0.00     0.184 HD
ATOM     18  H   UNL d   1      24.780 -11.117  -4.935  0.00  0.00     0.147 HD
ATOM     19  C   UNL d   1      26.317 -10.706  -6.634  0.00  0.00     0.033 C 
ENDBRANCH   3   6
ENDBRANCH   1   2
BRANCH   1  20
ATOM     20  O   UNL d   1      29.328 -17.388  -3.077  0.00  0.00    -0.307 OA
BRANCH  20  21
ATOM     21  C   UNL d   1      29.801 -16.763  -1.973  0.00  0.00     0.315 C 
ATOM     22  O   UNL d   1      30.397 -17.333  -1.069  0.00  0.00    -0.257 OA
BRANCH  21  23
ATOM     23  C   UNL d   1      29.619 -15.277  -2.013  0.00  0.00     0.163 A 
ATOM     24  N   UNL d   1      30.643 -14.498  -2.479  0.00  0.00    -0.251 NA
ATOM     25  C   UNL d   1      30.336 -13.185  -2.669  0.00  0.00     0.137 A 
ATOM     26  C   UNL d   1      29.083 -12.655  -2.403  0.00  0.00     0.136 A 
ATOM     27  N   UNL d   1      28.079 -13.411  -1.912  0.00  0.00    -0.254 NA
ATOM     28  C   UNL d   1      28.364 -14.737  -1.724  0.00  0.00     0.127 A 
BRANCH  28  29
ATOM     29  C   UNL d   1      27.244 -15.544  -1.250  0.00  0.00     0.130 A 
ATOM     30  N   UNL d   1      26.079 -15.624  -1.855  0.00  0.00    -0.238 NA
ATOM     31  C   UNL d   1      25.297 -16.577  -1.237  0.00  0.00     0.075 A 
ATOM     32  C   UNL d   1      24.003 -16.953  -1.641  0.00  0.00     0.033 A 
ATOM     33  C   UNL d   1      25.866 -17.197  -0.124  0.00  0.00     0.035 A 
ATOM     34  C   UNL d   1      23.313 -17.933  -0.925  0.00  0.00     0.002 A 
ATOM     35  C   UNL d   1      23.903 -18.550   0.174  0.00  0.00     0.002 A 
ATOM     36  C   UNL d   1      25.192 -18.200   0.590  0.00  0.00     0.021 A 
ATOM     37  S   UNL d   1      27.415 -16.510   0.167  0.00  0.00    -0.066 SA
ENDBRANCH  28  29
ENDBRANCH  21  23
ENDBRANCH  20  21
ENDBRANCH   1  20
TORSDOF 6
ENDMDL
MODEL 6
REMARK VINA RESULT:    -7.031      2.655      4.995
REMARK INTER + INTRA:         -13.051
REMARK INTER:                  -8.820
REMARK INTRA:                  -4.231
REMARK CONF_INDEPENDENT:        1.790
REMARK UNBOUND:                -4.231
REMARK  6 active torsions:
REMARK  status: ('A' for Active; 'I' for Inactive)
REMARK    1  A    between atoms: C_12  and  N_13 
REMARK       I    between atoms: N_13  and  C_14 
REMARK    2  A    between atoms: C_14  and  C_16 
REMARK    3  A    between atoms: C_16  and  O_17 
REMARK    4  A    between atoms: O_17  and  C_18 
REMARK    5  A    between atoms: C_18  and  C_20 
REMARK    6  A    between atoms: C_25  and  C_26 
ROOT
ATOM      1  C   UNL d   1      25.637 -12.878  -4.449  0.00  0.00     0.281 C 
ENDROOT
BRANCH   1   2
ATOM      2  C   UNL d   1      26.248 -12.177  -3.232  0.00  0.00     0.244 C 
ATOM      3  N   UNL d   1      26.507 -12.966  -2.129  0.00  0.00    -0.329 N 
ATOM      4  H   UNL d   1      26.340 -13.961  -2.125  0.00  0.00     0.165 HD
ATOM      5  O   UNL d   1      26.476 -10.968  -3.227  0.00  0.00    -0.271 OA
BRANCH   3   6
ATOM      6  C   UNL d   1      27.030 -12.346  -0.945  0.00  0.00     0.264 A 
ATOM      7  O   UNL d   1      28.022 -11.383  -1.365  0.00  0.00    -0.353 OA
ATOM      8  C   UNL d   1      29.271 -11.663  -0.695  0.00  0.00     0.152 A 
ATOM      9  C   UNL d   1      29.024 -12.903   0.077  0.00  0.00    -0.017 A 
ATOM     10  C   UNL d   1      30.353 -11.856  -1.741  0.00  0.00     0.044 C 
ATOM     11  C   UNL d   1      27.767 -13.293  -0.104  0.00  0.00     0.066 A 
ATOM     12  C   UNL d   1      29.996 -13.571   0.971  0.00  0.00     0.105 C 
ATOM     13  C   UNL d   1      27.237 -14.453   0.588  0.00  0.00     0.266 C 
ATOM     14  N   UNL d   1      28.126 -15.136   1.383  0.00  0.00    -0.287 N 
ATOM     15  O   UNL d   1      26.066 -14.807   0.463  0.00  0.00    -0.266 OA
ATOM     16  N   UNL d   1      29.496 -14.825   1.572  0.00  0.00    -0.229 NA
ATOM     17  H   UNL d   1      27.759 -15.982   1.814  0.00  0.00     0.184 HD
ATOM     18  H   UNL d   1      29.650 -14.778   2.583  0.00  0.00     0.147 HD
ATOM     19  C   UNL d   1      30.354 -12.612   2.105  0.00  0.00     0.033 C 
ENDBRANCH   3   6
ENDBRANCH   1   2
BRANCH   1  20
ATOM     20  O   UNL d   1      25.367 -14.261  -4.118  0.00  0.00    -0.307 OA
BRANCH  20  21
ATOM     21  C   UNL d   1      26.195 -15.151  -4.715  0.00  0.00     0.315 C 
ATOM     22  O   UNL d   1      25.891 -15.812  -5.699  0.00  0.00    -0.257 OA
BRANCH  21  23
ATOM     23  C   UNL d   1      27.568 -15.171  -4.118  0.00  0.00     0.163 A 
ATOM     24  N   UNL d   1      28.602 -14.612  -4.818  0.00  0.00    -0.251 NA
ATOM     25  C   UNL d   1      29.773 -14.493  -4.133  0.00  0.00     0.137 A 
ATOM     26  C   UNL d   1      29.928 -14.915  -2.821  0.00  0.00     0.136 A 
ATOM     27  N   UNL d   1      28.922 -15.499  -2.137  0.00  0.00    -0.254 NA
ATOM     28  C   UNL d   1      27.732 -15.618  -2.805  0.00  0.00     0.127 A 
BRANCH  28  29
ATOM     29  C   UNL d   1      26.644 -16.196  -2.022  0.00  0.00     0.130 A 
ATOM     30  N   UNL d   1      25.383 -15.841  -2.131  0.00  0.00    -0.238 NA
ATOM     31  C   UNL d   1      24.597 -16.674  -1.363  0.00  0.00     0.075 A 
ATOM     32  C   UNL d   1      23.195 -16.611  -1.270  0.00  0.00     0.033 A 
ATOM     33  C   UNL d   1      25.280 -17.647  -0.631  0.00  0.00     0.035 A 
ATOM     34  C   UNL d   1      22.515 -17.514  -0.450  0.00  0.00     0.002 A 
ATOM     35  C   UNL d   1      23.214 -18.486   0.260  0.00  0.00     0.002 A 
ATOM     36  C   UNL d   1      24.607 -18.575   0.177  0.00  0.00     0.021 A 
ATOM     37  S   UNL d   1      26.970 -17.458  -0.895  0.00  0.00    -0.066 SA
ENDBRANCH  28  29
ENDBRANCH  21  23
ENDBRANCH  20  21
ENDBRANCH   1  20
TORSDOF 6
ENDMDL
MODEL 7
REMARK VINA RESULT:    -6.487      2.955      5.871
REMARK INTER + INTRA:         -12.731
REMARK INTER:                  -8.277
REMARK INTRA:                  -4.454
REMARK CONF_INDEPENDENT:        1.790
REMARK UNBOUND:                -4.454
REMARK  6 active torsions:
REMARK  status: ('A' for Active; 'I' for Inactive)
REMARK    1  A    between atoms: C_12  and  N_13 
REMARK       I    between atoms: N_13  and  C_14 
REMARK    2  A    between atoms: C_14  and  C_16 
REMARK    3  A    between atoms: C_16  and  O_17 
REMARK    4  A    between atoms: O_17  and  C_18 
REMARK    5  A    between atoms: C_18  and  C_20 
REMARK    6  A    between atoms: C_25  and  C_26 
ROOT
ATOM      1  C   UNL d   1      28.764 -14.514  -5.810  0.00  0.00     0.281 C 
ENDROOT
BRANCH   1   2
ATOM      2  C   UNL d   1      29.627 -14.139  -4.601  0.00  0.00     0.244 C 
ATOM      3  N   UNL d   1      29.264 -14.689  -3.388  0.00  0.00    -0.329 N 
ATOM      4  H   UNL d   1      28.494 -15.334  -3.295  0.00  0.00     0.165 HD
ATOM      5  O   UNL d   1      30.583 -13.370  -4.700  0.00  0.00    -0.271 OA
BRANCH   3   6
ATOM      6  C   UNL d   1      30.010 -14.328  -2.215  0.00  0.00     0.264 A 
ATOM      7  O   UNL d   1      30.808 -15.473  -1.842  0.00  0.00    -0.353 OA
ATOM      8  C   UNL d   1      30.526 -15.821  -0.468  0.00  0.00     0.152 A 
ATOM      9  C   UNL d   1      29.445 -14.899  -0.052  0.00  0.00    -0.017 A 
ATOM     10  C   UNL d   1      30.083 -17.271  -0.415  0.00  0.00     0.044 C 
ATOM     11  C   UNL d   1      29.142 -14.089  -1.059  0.00  0.00     0.066 A 
ATOM     12  C   UNL d   1      28.840 -14.832   1.298  0.00  0.00     0.105 C 
ATOM     13  C   UNL d   1      28.152 -13.039  -0.904  0.00  0.00     0.266 C 
ATOM     14  N   UNL d   1      27.524 -12.982   0.318  0.00  0.00    -0.287 N 
ATOM     15  O   UNL d   1      27.886 -12.255  -1.814  0.00  0.00    -0.266 OA
ATOM     16  N   UNL d   1      27.741 -13.852   1.416  0.00  0.00    -0.229 NA
ATOM     17  H   UNL d   1      26.789 -12.282   0.393  0.00  0.00     0.184 HD
ATOM     18  H   UNL d   1      27.928 -13.258   2.228  0.00  0.00     0.147 HD
ATOM     19  C   UNL d   1      29.926 -14.450   2.301  0.00  0.00     0.033 C 
ENDBRANCH   3   6
ENDBRANCH   1   2
BRANCH   1  20
ATOM     20  O   UNL d   1      27.849 -15.571  -5.434  0.00  0.00    -0.307 OA
BRANCH  20  21
ATOM     21  C   UNL d   1      26.548 -15.198  -5.396  0.00  0.00     0.315 C 
ATOM     22  O   UNL d   1      25.619 -15.928  -5.712  0.00  0.00    -0.257 OA
BRANCH  21  23
ATOM     23  C   UNL d   1      26.345 -13.828  -4.824  0.00  0.00     0.163 A 
ATOM     24  N   UNL d   1      26.479 -12.742  -5.646  0.00  0.00    -0.251 NA
ATOM     25  C   UNL d   1      26.090 -11.553  -5.108  0.00  0.00     0.137 A 
ATOM     26  C   UNL d   1      25.603 -11.431  -3.815  0.00  0.00     0.136 A 
ATOM     27  N   UNL d   1      25.501 -12.493  -2.989  0.00  0.00    -0.254 NA
ATOM     28  C   UNL d   1      25.877 -13.700  -3.515  0.00  0.00     0.127 A 
BRANCH  28  29
ATOM     29  C   UNL d   1      25.699 -14.841  -2.622  0.00  0.00     0.130 A 
ATOM     30  N   UNL d   1      26.686 -15.542  -2.108  0.00  0.00    -0.238 NA
ATOM     31  C   UNL d   1      26.187 -16.450  -1.198  0.00  0.00     0.075 A 
ATOM     32  C   UNL d   1      26.962 -17.338  -0.430  0.00  0.00     0.033 A 
ATOM     33  C   UNL d   1      24.800 -16.462  -1.052  0.00  0.00     0.035 A 
ATOM     34  C   UNL d   1      26.333 -18.214   0.457  0.00  0.00     0.002 A 
ATOM     35  C   UNL d   1      24.948 -18.200   0.599  0.00  0.00     0.002 A 
ATOM     36  C   UNL d   1      24.157 -17.320  -0.147  0.00  0.00     0.021 A 
ATOM     37  S   UNL d   1      24.115 -15.320  -2.141  0.00  0.00    -0.066 SA
ENDBRANCH  28  29
ENDBRANCH  21  23
ENDBRANCH  20  21
ENDBRANCH   1  20
TORSDOF 6
ENDMDL
MODEL 8
REMARK VINA RESULT:    -6.372      2.640      4.089
REMARK INTER + INTRA:         -12.803
REMARK INTER:                  -8.162
REMARK INTRA:                  -4.641
REMARK CONF_INDEPENDENT:        1.790
REMARK UNBOUND:                -4.641
REMARK  6 active torsions:
REMARK  status: ('A' for Active; 'I' for Inactive)
REMARK    1  A    between atoms: C_12  and  N_13 
REMARK       I    between atoms: N_13  and  C_14 
REMARK    2  A    between atoms: C_14  and  C_16 
REMARK    3  A    between atoms: C_16  and  O_17 
REMARK    4  A    between atoms: O_17  and  C_18 
REMARK    5  A    between atoms: C_18  and  C_20 
REMARK    6  A    between atoms: C_25  and  C_26 
ROOT
ATOM      1  C   UNL d   1      27.226 -12.365   1.237  0.00  0.00     0.281 C 
ENDROOT
BRANCH   1   2
ATOM      2  C   UNL d   1      27.206 -12.099  -0.272  0.00  0.00     0.244 C 
ATOM      3  N   UNL d   1      26.747 -13.124  -1.075  0.00  0.00    -0.329 N 
ATOM      4  H   UNL d   1      26.405 -13.995  -0.698  0.00  0.00     0.165 HD
ATOM      5  O   UNL d   1      27.601 -11.035  -0.747  0.00  0.00    -0.271 OA
BRANCH   3   6
ATOM      6  C   UNL d   1      26.758 -12.942  -2.499  0.00  0.00     0.264 A 
ATOM      7  O   UNL d   1      25.603 -13.628  -3.030  0.00  0.00    -0.353 OA
ATOM      8  C   UNL d   1      26.032 -14.568  -4.041  0.00  0.00     0.152 A 
ATOM      9  C   UNL d   1      27.511 -14.496  -4.031  0.00  0.00    -0.017 A 
ATOM     10  C   UNL d   1      25.532 -15.950  -3.665  0.00  0.00     0.044 C 
ATOM     11  C   UNL d   1      27.904 -13.602  -3.132  0.00  0.00     0.066 A 
ATOM     12  C   UNL d   1      28.417 -15.245  -4.930  0.00  0.00     0.105 C 
ATOM     13  C   UNL d   1      29.309 -13.285  -2.956  0.00  0.00     0.266 C 
ATOM     14  N   UNL d   1      30.188 -14.003  -3.732  0.00  0.00    -0.287 N 
ATOM     15  O   UNL d   1      29.689 -12.432  -2.155  0.00  0.00    -0.266 OA
ATOM     16  N   UNL d   1      29.852 -15.020  -4.660  0.00  0.00    -0.229 NA
ATOM     17  H   UNL d   1      31.173 -13.816  -3.555  0.00  0.00     0.184 HD
ATOM     18  H   UNL d   1      30.309 -14.774  -5.543  0.00  0.00     0.147 HD
ATOM     19  C   UNL d   1      28.134 -14.824  -6.371  0.00  0.00     0.033 C 
ENDBRANCH   3   6
ENDBRANCH   1   2
BRANCH   1  20
ATOM     20  O   UNL d   1      26.736 -13.704   1.492  0.00  0.00    -0.307 OA
BRANCH  20  21
ATOM     21  C   UNL d   1      27.695 -14.593   1.841  0.00  0.00     0.315 C 
ATOM     22  O   UNL d   1      27.781 -15.104   2.950  0.00  0.00    -0.257 OA
BRANCH  21  23
ATOM     23  C   UNL d   1      28.585 -14.978   0.700  0.00  0.00     0.163 A 
ATOM     24  N   UNL d   1      29.865 -14.494   0.668  0.00  0.00    -0.251 NA
ATOM     25  C   UNL d   1      30.670 -15.039  -0.286  0.00  0.00     0.137 A 
ATOM     26  C   UNL d   1      30.237 -16.008  -1.178  0.00  0.00     0.136 A 
ATOM     27  N   UNL d   1      28.967 -16.465  -1.173  0.00  0.00    -0.254 NA
ATOM     28  C   UNL d   1      28.144 -15.937  -0.214  0.00  0.00     0.127 A 
BRANCH  28  29
ATOM     29  C   UNL d   1      26.794 -16.492  -0.191  0.00  0.00     0.130 A 
ATOM     30  N   UNL d   1      25.712 -15.825  -0.528  0.00  0.00    -0.238 NA
ATOM     31  C   UNL d   1      24.625 -16.674  -0.537  0.00  0.00     0.075 A 
ATOM     32  C   UNL d   1      23.313 -16.309  -0.888  0.00  0.00     0.033 A 
ATOM     33  C   UNL d   1      24.884 -17.993  -0.163  0.00  0.00     0.035 A 
ATOM     34  C   UNL d   1      22.297 -17.267  -0.853  0.00  0.00     0.002 A 
ATOM     35  C   UNL d   1      22.579 -18.581  -0.491  0.00  0.00     0.002 A 
ATOM     36  C   UNL d   1      23.877 -18.970  -0.147  0.00  0.00     0.021 A 
ATOM     37  S   UNL d   1      26.546 -18.137   0.257  0.00  0.00    -0.066 SA
ENDBRANCH  28  29
ENDBRANCH  21  23
ENDBRANCH  20  21
ENDBRANCH   1  20
TORSDOF 6
ENDMDL
MODEL 9
REMARK VINA RESULT:    -6.301      3.196      4.949
REMARK INTER + INTRA:         -12.690
REMARK INTER:                  -8.090
REMARK INTRA:                  -4.600
REMARK CONF_INDEPENDENT:        1.790
REMARK UNBOUND:                -4.600
REMARK  6 active torsions:
REMARK  status: ('A' for Active; 'I' for Inactive)
REMARK    1  A    between atoms: C_12  and  N_13 
REMARK       I    between atoms: N_13  and  C_14 
REMARK    2  A    between atoms: C_14  and  C_16 
REMARK    3  A    between atoms: C_16  and  O_17 
REMARK    4  A    between atoms: O_17  and  C_18 
REMARK    5  A    between atoms: C_18  and  C_20 
REMARK    6  A    between atoms: C_25  and  C_26 
ROOT
ATOM      1  C   UNL d   1      31.168 -17.177  -3.090  0.00  0.00     0.281 C 
ENDROOT
BRANCH   1   2
ATOM      2  C   UNL d   1      30.693 -15.769  -3.463  0.00  0.00     0.244 C 
ATOM      3  N   UNL d   1      29.432 -15.407  -3.032  0.00  0.00    -0.329 N 
ATOM      4  H   UNL d   1      28.857 -16.017  -2.470  0.00  0.00     0.165 HD
ATOM      5  O   UNL d   1      31.389 -15.005  -4.130  0.00  0.00    -0.271 OA
BRANCH   3   6
ATOM      6  C   UNL d   1      28.921 -14.117  -3.400  0.00  0.00     0.264 A 
ATOM      7  O   UNL d   1      28.970 -13.282  -2.222  0.00  0.00    -0.353 OA
ATOM      8  C   UNL d   1      27.654 -12.743  -1.966  0.00  0.00     0.152 A 
ATOM      9  C   UNL d   1      26.778 -13.368  -2.984  0.00  0.00    -0.017 A 
ATOM     10  C   UNL d   1      27.238 -13.119  -0.557  0.00  0.00     0.044 C 
ATOM     11  C   UNL d   1      27.501 -14.166  -3.760  0.00  0.00     0.066 A 
ATOM     12  C   UNL d   1      25.334 -13.097  -3.164  0.00  0.00     0.105 C 
ATOM     13  C   UNL d   1      26.902 -14.862  -4.884  0.00  0.00     0.266 C 
ATOM     14  N   UNL d   1      25.549 -14.682  -5.049  0.00  0.00    -0.287 N 
ATOM     15  O   UNL d   1      27.564 -15.575  -5.637  0.00  0.00    -0.266 OA
ATOM     16  N   UNL d   1      24.698 -13.905  -4.224  0.00  0.00    -0.229 NA
ATOM     17  H   UNL d   1      25.131 -15.223  -5.803  0.00  0.00     0.184 HD
ATOM     18  H   UNL d   1      24.186 -13.272  -4.845  0.00  0.00     0.147 HD
ATOM     19  C   UNL d   1      25.155 -11.622  -3.520  0.00  0.00     0.033 C 
ENDBRANCH   3   6
ENDBRANCH   1   2
BRANCH   1  20
ATOM     20  O   UNL d   1      30.118 -17.858  -2.362  0.00  0.00    -0.307 OA
BRANCH  20  21
ATOM     21  C   UNL d   1      30.384 -18.053  -1.049  0.00  0.00     0.315 C 
ATOM     22  O   UNL d   1      30.517 -19.156  -0.536  0.00  0.00    -0.257 OA
BRANCH  21  23
ATOM     23  C   UNL d   1      30.610 -16.778  -0.297  0.00  0.00     0.163 A 
ATOM     24  N   UNL d   1      31.894 -16.343  -0.105  0.00  0.00    -0.251 NA
ATOM     25  C   UNL d   1      32.013 -15.088   0.411  0.00  0.00     0.137 A 
ATOM     26  C   UNL d   1      30.920 -14.297   0.735  0.00  0.00     0.136 A 
ATOM     27  N   UNL d   1      29.654 -14.734   0.580  0.00  0.00    -0.254 NA
ATOM     28  C   UNL d   1      29.512 -15.990   0.052  0.00  0.00     0.127 A 
BRANCH  28  29
ATOM     29  C   UNL d   1      28.132 -16.413  -0.163  0.00  0.00     0.130 A 
ATOM     30  N   UNL d   1      27.410 -16.085  -1.212  0.00  0.00    -0.238 NA
ATOM     31  C   UNL d   1      26.210 -16.762  -1.182  0.00  0.00     0.075 A 
ATOM     32  C   UNL d   1      25.207 -16.683  -2.166  0.00  0.00     0.033 A 
ATOM     33  C   UNL d   1      26.005 -17.583  -0.072  0.00  0.00     0.035 A 
ATOM     34  C   UNL d   1      24.030 -17.419  -2.014  0.00  0.00     0.002 A 
ATOM     35  C   UNL d   1      23.852 -18.243  -0.907  0.00  0.00     0.002 A 
ATOM     36  C   UNL d   1      24.837 -18.346   0.080  0.00  0.00     0.021 A 
ATOM     37  S   UNL d   1      27.359 -17.446   0.980  0.00  0.00    -0.066 SA
ENDBRANCH  28  29
ENDBRANCH  21  23
ENDBRANCH  20  21
ENDBRANCH   1  20
TORSDOF 6
ENDMDL
