MODEL 1
REMARK VINA RESULT:   -10.561      0.000      0.000
REMARK INTER + INTRA:         -17.003
REMARK INTER:                 -13.842
REMARK INTRA:                  -3.160
REMARK CONF_INDEPENDENT:        3.281
REMARK UNBOUND:                -3.160
REMARK  11 active torsions:
REMARK  status: ('A' for Active; 'I' for Inactive)
REMARK    1  A    between atoms: C_2  and  C_3 
REMARK       I    between atoms: C_3  and  N_5 
REMARK    2  A    between atoms: N_5  and  C_6 
REMARK    3  A    between atoms: C_9  and  C_10 
REMARK       I    between atoms: C_10  and  N_12 
REMARK    4  A    between atoms: N_12  and  N_13 
REMARK    5  A    between atoms: N_13  and  C_14 
REMARK    6  A    between atoms: C_14  and  N_16 
REMARK       I    between atoms: N_16  and  C_17 
REMARK    7  A    between atoms: C_17  and  C_19 
REMARK    8  A    between atoms: C_24  and  O_25 
REMARK    9  A    between atoms: O_25  and  C_26 
REMARK   10  A    between atoms: C_26  and  C_27 
REMARK   11  A    between atoms: C_27  and  C_28 
ROOT
ATOM      1  C   UNL d   1      30.307 -16.457  -1.298  0.00  0.00     0.193 C 
ATOM      2  S   UNL d   1      31.205 -15.051  -1.116  0.00  0.00    -0.039 SA
ENDROOT
BRANCH   1   3
ATOM      3  N   UNL d   1      29.734 -17.124  -0.147  0.00  0.00    -0.273 N 
ATOM      4  H   UNL d   1      30.317 -17.741   0.407  0.00  0.00     0.189 HD
BRANCH   3   5
ATOM      5  N   UNL d   1      28.212 -17.630  -0.190  0.00  0.00    -0.264 N 
ATOM      6  C   UNL d   1      27.177 -17.109  -1.098  0.00  0.00     0.270 C 
ATOM      7  O   UNL d   1      27.363 -16.330  -2.037  0.00  0.00    -0.266 OA
ATOM      8  H   UNL d   1      27.940 -17.936   0.748  0.00  0.00     0.190 HD
BRANCH   6   9
ATOM      9  C   UNL d   1      25.727 -17.437  -0.849  0.00  0.00     0.033 C 
ATOM     10  C   UNL d   1      24.714 -17.339  -1.852  0.00  0.00     0.019 C 
ATOM     11  C   UNL d   1      23.431 -17.877  -1.632  0.00  0.00     0.030 C 
ATOM     12  C   UNL d   1      23.175 -18.498  -0.412  0.00  0.00     0.034 C 
ATOM     13  C   UNL d   1      24.133 -18.452   0.605  0.00  0.00     0.030 C 
ATOM     14  C   UNL d   1      25.382 -17.905   0.401  0.00  0.00     0.019 C 
BRANCH  12  15
ATOM     15  N   UNL d   1      22.003 -19.246  -0.198  0.00  0.00    -0.327 N 
ATOM     16  C   UNL d   1      20.767 -18.762  -0.584  0.00  0.00     0.221 C 
ATOM     17  O   UNL d   1      20.610 -17.751  -1.270  0.00  0.00    -0.273 OA
ATOM     18  H   UNL d   1      22.094 -20.154   0.241  0.00  0.00     0.169 HD
BRANCH  16  19
ATOM     19  C   UNL d   1      19.584 -19.587  -0.141  0.00  0.00     0.098 C 
ATOM     20  C   UNL d   1      20.005 -20.450   1.044  0.00  0.00     0.014 C 
ENDBRANCH  16  19
ENDBRANCH  12  15
ENDBRANCH   6   9
ENDBRANCH   3   5
ENDBRANCH   1   3
BRANCH   1  21
ATOM     21  N   UNL d   1      30.066 -17.119  -2.574  0.00  0.00    -0.298 N 
ATOM     22  C   UNL d   1      31.005 -17.887  -3.363  0.00  0.00     0.260 C 
ATOM     23  O   UNL d   1      32.022 -18.362  -2.902  0.00  0.00    -0.267 OA
ATOM     24  H   UNL d   1      29.189 -16.935  -3.031  0.00  0.00     0.171 HD
BRANCH  22  25
ATOM     25  C   UNL d   1      30.732 -18.293  -4.816  0.00  0.00     0.065 A 
ATOM     26  C   UNL d   1      30.957 -19.679  -5.042  0.00  0.00     0.020 A 
ATOM     27  C   UNL d   1      31.073 -20.227  -6.330  0.00  0.00     0.001 A 
ATOM     28  C   UNL d   1      30.875 -19.425  -7.441  0.00  0.00     0.003 A 
ATOM     29  C   UNL d   1      30.649 -18.065  -7.258  0.00  0.00     0.038 A 
ATOM     30  C   UNL d   1      30.628 -17.475  -5.972  0.00  0.00     0.084 A 
BRANCH  30  31
ATOM     31  O   UNL d   1      30.584 -16.103  -6.109  0.00  0.00    -0.350 OA
BRANCH  31  32
ATOM     32  C   UNL d   1      29.323 -15.534  -5.873  0.00  0.00     0.180 C 
BRANCH  32  33
ATOM     33  C   UNL d   1      29.175 -14.842  -4.500  0.00  0.00     0.065 C 
BRANCH  33  34
ATOM     34  C   UNL d   1      27.786 -14.324  -4.309  0.00  0.00    -0.056 C 
ATOM     35  C   UNL d   1      27.337 -13.018  -4.079  0.00  0.00     0.007 C 
ATOM     36  C   UNL d   1      25.982 -12.743  -3.801  0.00  0.00     0.001 C 
ATOM     37  C   UNL d   1      25.058 -13.719  -4.008  0.00  0.00     0.000 C 
ATOM     38  C   UNL d   1      25.546 -14.822  -4.648  0.00  0.00     0.001 C 
ATOM     39  C   UNL d   1      26.834 -15.223  -4.634  0.00  0.00     0.007 C 
ENDBRANCH  33  34
ENDBRANCH  32  33
ENDBRANCH  31  32
ENDBRANCH  30  31
ENDBRANCH  22  25
ENDBRANCH   1  21
TORSDOF 11
ENDMDL
MODEL 2
REMARK VINA RESULT:   -10.429      1.639      2.633
REMARK INTER + INTRA:         -17.082
REMARK INTER:                 -13.710
REMARK INTRA:                  -3.372
REMARK CONF_INDEPENDENT:        3.281
REMARK UNBOUND:                -3.372
REMARK  11 active torsions:
REMARK  status: ('A' for Active; 'I' for Inactive)
REMARK    1  A    between atoms: C_2  and  C_3 
REMARK       I    between atoms: C_3  and  N_5 
REMARK    2  A    between atoms: N_5  and  C_6 
REMARK    3  A    between atoms: C_9  and  C_10 
REMARK       I    between atoms: C_10  and  N_12 
REMARK    4  A    between atoms: N_12  and  N_13 
REMARK    5  A    between atoms: N_13  and  C_14 
REMARK    6  A    between atoms: C_14  and  N_16 
REMARK       I    between atoms: N_16  and  C_17 
REMARK    7  A    between atoms: C_17  and  C_19 
REMARK    8  A    between atoms: C_24  and  O_25 
REMARK    9  A    between atoms: O_25  and  C_26 
REMARK   10  A    between atoms: C_26  and  C_27 
REMARK   11  A    between atoms: C_27  and  C_28 
ROOT
ATOM      1  C   UNL d   1      30.683 -17.214  -1.582  0.00  0.00     0.193 C 
ATOM      2  S   UNL d   1      32.254 -17.803  -1.590  0.00  0.00    -0.039 SA
ENDROOT
BRANCH   1   3
ATOM      3  N   UNL d   1      29.890 -17.232  -0.371  0.00  0.00    -0.273 N 
ATOM      4  H   UNL d   1      30.334 -17.483   0.506  0.00  0.00     0.189 HD
BRANCH   3   5
ATOM      5  N   UNL d   1      28.362 -17.717  -0.419  0.00  0.00    -0.264 N 
ATOM      6  C   UNL d   1      27.276 -17.008  -1.116  0.00  0.00     0.270 C 
ATOM      7  O   UNL d   1      27.409 -16.040  -1.869  0.00  0.00    -0.266 OA
ATOM      8  H   UNL d   1      28.149 -18.224   0.444  0.00  0.00     0.190 HD
BRANCH   6   9
ATOM      9  C   UNL d   1      25.841 -17.384  -0.847  0.00  0.00     0.033 C 
ATOM     10  C   UNL d   1      24.801 -17.271  -1.821  0.00  0.00     0.019 C 
ATOM     11  C   UNL d   1      23.539 -17.852  -1.593  0.00  0.00     0.030 C 
ATOM     12  C   UNL d   1      23.329 -18.530  -0.395  0.00  0.00     0.034 C 
ATOM     13  C   UNL d   1      24.310 -18.501   0.599  0.00  0.00     0.030 C 
ATOM     14  C   UNL d   1      25.539 -17.913   0.389  0.00  0.00     0.019 C 
BRANCH  12  15
ATOM     15  N   UNL d   1      22.182 -19.317  -0.186  0.00  0.00    -0.327 N 
ATOM     16  C   UNL d   1      20.927 -18.861  -0.546  0.00  0.00     0.221 C 
ATOM     17  O   UNL d   1      20.733 -17.839  -1.207  0.00  0.00    -0.273 OA
ATOM     18  H   UNL d   1      22.304 -20.232   0.231  0.00  0.00     0.169 HD
BRANCH  16  19
ATOM     19  C   UNL d   1      19.775 -19.730  -0.109  0.00  0.00     0.098 C 
ATOM     20  C   UNL d   1      19.624 -19.621   1.405  0.00  0.00     0.014 C 
ENDBRANCH  16  19
ENDBRANCH  12  15
ENDBRANCH   6   9
ENDBRANCH   3   5
ENDBRANCH   1   3
BRANCH   1  21
ATOM     21  N   UNL d   1      29.997 -16.687  -2.756  0.00  0.00    -0.298 N 
ATOM     22  C   UNL d   1      30.436 -16.737  -4.134  0.00  0.00     0.260 C 
ATOM     23  O   UNL d   1      31.273 -17.521  -4.532  0.00  0.00    -0.267 OA
ATOM     24  H   UNL d   1      29.183 -16.118  -2.598  0.00  0.00     0.171 HD
BRANCH  22  25
ATOM     25  C   UNL d   1      29.784 -15.906  -5.244  0.00  0.00     0.065 A 
ATOM     26  C   UNL d   1      30.743 -15.288  -6.093  0.00  0.00     0.020 A 
ATOM     27  C   UNL d   1      30.413 -14.248  -6.978  0.00  0.00     0.001 A 
ATOM     28  C   UNL d   1      29.093 -13.853  -7.116  0.00  0.00     0.003 A 
ATOM     29  C   UNL d   1      28.127 -14.439  -6.305  0.00  0.00     0.038 A 
ATOM     30  C   UNL d   1      28.454 -15.417  -5.336  0.00  0.00     0.084 A 
BRANCH  30  31
ATOM     31  O   UNL d   1      27.342 -15.665  -4.557  0.00  0.00    -0.350 OA
BRANCH  31  32
ATOM     32  C   UNL d   1      26.157 -15.083  -5.034  0.00  0.00     0.180 C 
BRANCH  32  33
ATOM     33  C   UNL d   1      25.249 -14.483  -3.938  0.00  0.00     0.065 C 
BRANCH  33  34
ATOM     34  C   UNL d   1      25.871 -13.264  -3.335  0.00  0.00    -0.056 C 
ATOM     35  C   UNL d   1      26.901 -13.152  -2.395  0.00  0.00     0.007 C 
ATOM     36  C   UNL d   1      27.272 -11.904  -1.853  0.00  0.00     0.001 C 
ATOM     37  C   UNL d   1      26.799 -10.769  -2.433  0.00  0.00     0.000 C 
ATOM     38  C   UNL d   1      26.146 -10.978  -3.614  0.00  0.00     0.001 C 
ATOM     39  C   UNL d   1      25.530 -12.124  -3.971  0.00  0.00     0.007 C 
ENDBRANCH  33  34
ENDBRANCH  32  33
ENDBRANCH  31  32
ENDBRANCH  30  31
ENDBRANCH  22  25
ENDBRANCH   1  21
TORSDOF 11
ENDMDL
MODEL 3
REMARK VINA RESULT:   -10.397      1.521      4.363
REMARK INTER + INTRA:         -16.228
REMARK INTER:                 -13.678
REMARK INTRA:                  -2.550
REMARK CONF_INDEPENDENT:        3.281
REMARK UNBOUND:                -2.550
REMARK  11 active torsions:
REMARK  status: ('A' for Active; 'I' for Inactive)
REMARK    1  A    between atoms: C_2  and  C_3 
REMARK       I    between atoms: C_3  and  N_5 
REMARK    2  A    between atoms: N_5  and  C_6 
REMARK    3  A    between atoms: C_9  and  C_10 
REMARK       I    between atoms: C_10  and  N_12 
REMARK    4  A    between atoms: N_12  and  N_13 
REMARK    5  A    between atoms: N_13  and  C_14 
REMARK    6  A    between atoms: C_14  and  N_16 
REMARK       I    between atoms: N_16  and  C_17 
REMARK    7  A    between atoms: C_17  and  C_19 
REMARK    8  A    between atoms: C_24  and  O_25 
REMARK    9  A    between atoms: O_25  and  C_26 
REMARK   10  A    between atoms: C_26  and  C_27 
REMARK   11  A    between atoms: C_27  and  C_28 
ROOT
ATOM      1  C   UNL d   1      29.682 -15.841  -0.415  0.00  0.00     0.193 C 
ATOM      2  S   UNL d   1      31.331 -15.571  -0.255  0.00  0.00    -0.039 SA
ENDROOT
BRANCH   1   3
ATOM      3  N   UNL d   1      29.049 -16.972   0.232  0.00  0.00    -0.273 N 
ATOM      4  H   UNL d   1      29.622 -17.755   0.527  0.00  0.00     0.189 HD
BRANCH   3   5
ATOM      5  N   UNL d   1      27.590 -17.448  -0.233  0.00  0.00    -0.264 N 
ATOM      6  C   UNL d   1      26.379 -16.612  -0.189  0.00  0.00     0.270 C 
ATOM      7  O   UNL d   1      26.341 -15.405   0.065  0.00  0.00    -0.266 OA
ATOM      8  H   UNL d   1      27.504 -18.454  -0.068  0.00  0.00     0.190 HD
BRANCH   6   9
ATOM      9  C   UNL d   1      25.022 -17.246  -0.362  0.00  0.00     0.033 C 
ATOM     10  C   UNL d   1      24.804 -18.658  -0.339  0.00  0.00     0.019 C 
ATOM     11  C   UNL d   1      23.498 -19.181  -0.270  0.00  0.00     0.030 C 
ATOM     12  C   UNL d   1      22.429 -18.289  -0.232  0.00  0.00     0.034 C 
ATOM     13  C   UNL d   1      22.661 -16.922  -0.403  0.00  0.00     0.030 C 
ATOM     14  C   UNL d   1      23.936 -16.408  -0.494  0.00  0.00     0.019 C 
BRANCH  12  15
ATOM     15  N   UNL d   1      21.121 -18.719   0.055  0.00  0.00    -0.327 N 
ATOM     16  C   UNL d   1      20.344 -19.336  -0.908  0.00  0.00     0.221 C 
ATOM     17  O   UNL d   1      20.772 -19.698  -2.005  0.00  0.00    -0.273 OA
ATOM     18  H   UNL d   1      20.768 -18.569   0.992  0.00  0.00     0.169 HD
BRANCH  16  19
ATOM     19  C   UNL d   1      18.910 -19.588  -0.516  0.00  0.00     0.098 C 
ATOM     20  C   UNL d   1      18.881 -20.632   0.596  0.00  0.00     0.014 C 
ENDBRANCH  16  19
ENDBRANCH  12  15
ENDBRANCH   6   9
ENDBRANCH   3   5
ENDBRANCH   1   3
BRANCH   1  21
ATOM     21  N   UNL d   1      28.788 -15.014  -1.216  0.00  0.00    -0.298 N 
ATOM     22  C   UNL d   1      28.110 -15.373  -2.442  0.00  0.00     0.260 C 
ATOM     23  O   UNL d   1      27.931 -16.524  -2.785  0.00  0.00    -0.267 OA
ATOM     24  H   UNL d   1      28.714 -14.041  -0.968  0.00  0.00     0.171 HD
BRANCH  22  25
ATOM     25  C   UNL d   1      27.428 -14.343  -3.349  0.00  0.00     0.065 A 
ATOM     26  C   UNL d   1      26.517 -13.515  -2.638  0.00  0.00     0.020 A 
ATOM     27  C   UNL d   1      25.559 -12.715  -3.283  0.00  0.00     0.001 A 
ATOM     28  C   UNL d   1      25.540 -12.642  -4.666  0.00  0.00     0.003 A 
ATOM     29  C   UNL d   1      26.420 -13.435  -5.394  0.00  0.00     0.038 A 
ATOM     30  C   UNL d   1      27.325 -14.323  -4.765  0.00  0.00     0.084 A 
BRANCH  30  31
ATOM     31  O   UNL d   1      27.920 -15.112  -5.728  0.00  0.00    -0.350 OA
BRANCH  31  32
ATOM     32  C   UNL d   1      29.123 -14.600  -6.238  0.00  0.00     0.180 C 
BRANCH  32  33
ATOM     33  C   UNL d   1      30.005 -15.635  -6.970  0.00  0.00     0.065 C 
BRANCH  33  34
ATOM     34  C   UNL d   1      30.273 -16.821  -6.098  0.00  0.00    -0.056 C 
ATOM     35  C   UNL d   1      30.707 -18.107  -6.439  0.00  0.00     0.007 C 
ATOM     36  C   UNL d   1      30.787 -19.137  -5.478  0.00  0.00     0.001 C 
ATOM     37  C   UNL d   1      30.686 -18.815  -4.161  0.00  0.00     0.000 C 
ATOM     38  C   UNL d   1      30.697 -17.472  -3.913  0.00  0.00     0.001 C 
ATOM     39  C   UNL d   1      30.314 -16.516  -4.785  0.00  0.00     0.007 C 
ENDBRANCH  33  34
ENDBRANCH  32  33
ENDBRANCH  31  32
ENDBRANCH  30  31
ENDBRANCH  22  25
ENDBRANCH   1  21
TORSDOF 11
ENDMDL
MODEL 4
REMARK VINA RESULT:    -9.998      1.687      2.181
REMARK INTER + INTRA:         -16.327
REMARK INTER:                 -13.280
REMARK INTRA:                  -3.047
REMARK CONF_INDEPENDENT:        3.281
REMARK UNBOUND:                -3.047
REMARK  11 active torsions:
REMARK  status: ('A' for Active; 'I' for Inactive)
REMARK    1  A    between atoms: C_2  and  C_3 
REMARK       I    between atoms: C_3  and  N_5 
REMARK    2  A    between atoms: N_5  and  C_6 
REMARK    3  A    between atoms: C_9  and  C_10 
REMARK       I    between atoms: C_10  and  N_12 
REMARK    4  A    between atoms: N_12  and  N_13 
REMARK    5  A    between atoms: N_13  and  C_14 
REMARK    6  A    between atoms: C_14  and  N_16 
REMARK       I    between atoms: N_16  and  C_17 
REMARK    7  A    between atoms: C_17  and  C_19 
REMARK    8  A    between atoms: C_24  and  O_25 
REMARK    9  A    between atoms: O_25  and  C_26 
REMARK   10  A    between atoms: C_26  and  C_27 
REMARK   11  A    between atoms: C_27  and  C_28 
ROOT
ATOM      1  C   UNL d   1      28.735 -14.732  -0.442  0.00  0.00     0.193 C 
ATOM      2  S   UNL d   1      28.665 -13.217   0.278  0.00  0.00    -0.039 SA
ENDROOT
BRANCH   1   3
ATOM      3  N   UNL d   1      28.419 -15.926   0.312  0.00  0.00    -0.273 N 
ATOM      4  H   UNL d   1      29.175 -16.515   0.645  0.00  0.00     0.189 HD
BRANCH   3   5
ATOM      5  N   UNL d   1      27.118 -16.788  -0.059  0.00  0.00    -0.264 N 
ATOM      6  C   UNL d   1      25.839 -16.225  -0.521  0.00  0.00     0.270 C 
ATOM      7  O   UNL d   1      25.634 -15.046  -0.825  0.00  0.00    -0.266 OA
ATOM      8  H   UNL d   1      27.108 -17.634   0.516  0.00  0.00     0.190 HD
BRANCH   6   9
ATOM      9  C   UNL d   1      24.605 -17.090  -0.551  0.00  0.00     0.033 C 
ATOM     10  C   UNL d   1      24.628 -18.504  -0.348  0.00  0.00     0.019 C 
ATOM     11  C   UNL d   1      23.431 -19.221  -0.155  0.00  0.00     0.030 C 
ATOM     12  C   UNL d   1      22.229 -18.519  -0.175  0.00  0.00     0.034 C 
ATOM     13  C   UNL d   1      22.222 -17.165  -0.520  0.00  0.00     0.030 C 
ATOM     14  C   UNL d   1      23.390 -16.464  -0.733  0.00  0.00     0.019 C 
BRANCH  12  15
ATOM     15  N   UNL d   1      21.020 -19.117   0.224  0.00  0.00    -0.327 N 
ATOM     16  C   UNL d   1      20.123 -19.605  -0.709  0.00  0.00     0.221 C 
ATOM     17  O   UNL d   1      20.371 -19.706  -1.911  0.00  0.00    -0.273 OA
ATOM     18  H   UNL d   1      20.830 -19.186   1.217  0.00  0.00     0.169 HD
BRANCH  16  19
ATOM     19  C   UNL d   1      18.798 -20.062  -0.151  0.00  0.00     0.098 C 
ATOM     20  C   UNL d   1      19.049 -21.171   0.866  0.00  0.00     0.014 C 
ENDBRANCH  16  19
ENDBRANCH  12  15
ENDBRANCH   6   9
ENDBRANCH   3   5
ENDBRANCH   1   3
BRANCH   1  21
ATOM     21  N   UNL d   1      29.138 -14.967  -1.823  0.00  0.00    -0.298 N 
ATOM     22  C   UNL d   1      29.010 -16.189  -2.587  0.00  0.00     0.260 C 
ATOM     23  O   UNL d   1      28.243 -17.079  -2.284  0.00  0.00    -0.267 OA
ATOM     24  H   UNL d   1      29.675 -14.246  -2.276  0.00  0.00     0.171 HD
BRANCH  22  25
ATOM     25  C   UNL d   1      29.723 -16.411  -3.925  0.00  0.00     0.065 A 
ATOM     26  C   UNL d   1      30.027 -17.781  -4.156  0.00  0.00     0.020 A 
ATOM     27  C   UNL d   1      30.933 -18.200  -5.145  0.00  0.00     0.001 A 
ATOM     28  C   UNL d   1      31.496 -17.269  -6.002  0.00  0.00     0.003 A 
ATOM     29  C   UNL d   1      31.219 -15.920  -5.808  0.00  0.00     0.038 A 
ATOM     30  C   UNL d   1      30.387 -15.470  -4.755  0.00  0.00     0.084 A 
BRANCH  30  31
ATOM     31  O   UNL d   1      30.455 -14.093  -4.690  0.00  0.00    -0.350 OA
BRANCH  31  32
ATOM     32  C   UNL d   1      29.608 -13.426  -5.588  0.00  0.00     0.180 C 
BRANCH  32  33
ATOM     33  C   UNL d   1      28.477 -14.299  -6.175  0.00  0.00     0.065 C 
BRANCH  33  34
ATOM     34  C   UNL d   1      27.265 -14.264  -5.300  0.00  0.00    -0.056 C 
ATOM     35  C   UNL d   1      26.759 -15.233  -4.426  0.00  0.00     0.007 C 
ATOM     36  C   UNL d   1      25.522 -15.060  -3.770  0.00  0.00     0.001 C 
ATOM     37  C   UNL d   1      24.936 -13.834  -3.787  0.00  0.00     0.000 C 
ATOM     38  C   UNL d   1      25.726 -12.845  -4.301  0.00  0.00     0.001 C 
ATOM     39  C   UNL d   1      26.729 -13.031  -5.182  0.00  0.00     0.007 C 
ENDBRANCH  33  34
ENDBRANCH  32  33
ENDBRANCH  31  32
ENDBRANCH  30  31
ENDBRANCH  22  25
ENDBRANCH   1  21
TORSDOF 11
ENDMDL
MODEL 5
REMARK VINA RESULT:    -9.711      2.698      5.097
REMARK INTER + INTRA:         -16.604
REMARK INTER:                 -12.992
REMARK INTRA:                  -3.612
REMARK CONF_INDEPENDENT:        3.281
REMARK UNBOUND:                -3.612
REMARK  11 active torsions:
REMARK  status: ('A' for Active; 'I' for Inactive)
REMARK    1  A    between atoms: C_2  and  C_3 
REMARK       I    between atoms: C_3  and  N_5 
REMARK    2  A    between atoms: N_5  and  C_6 
REMARK    3  A    between atoms: C_9  and  C_10 
REMARK       I    between atoms: C_10  and  N_12 
REMARK    4  A    between atoms: N_12  and  N_13 
REMARK    5  A    between atoms: N_13  and  C_14 
REMARK    6  A    between atoms: C_14  and  N_16 
REMARK       I    between atoms: N_16  and  C_17 
REMARK    7  A    between atoms: C_17  and  C_19 
REMARK    8  A    between atoms: C_24  and  O_25 
REMARK    9  A    between atoms: O_25  and  C_26 
REMARK   10  A    between atoms: C_26  and  C_27 
REMARK   11  A    between atoms: C_27  and  C_28 
ROOT
ATOM      1  C   UNL d   1      27.370 -13.510   0.256  0.00  0.00     0.193 C 
ATOM      2  S   UNL d   1      27.257 -12.303   1.418  0.00  0.00    -0.039 SA
ENDROOT
BRANCH   1   3
ATOM      3  N   UNL d   1      27.707 -14.868   0.628  0.00  0.00    -0.273 N 
ATOM      4  H   UNL d   1      28.666 -15.183   0.534  0.00  0.00     0.189 HD
BRANCH   3   5
ATOM      5  N   UNL d   1      26.665 -16.056   0.351  0.00  0.00    -0.264 N 
ATOM      6  C   UNL d   1      25.596 -16.019  -0.660  0.00  0.00     0.270 C 
ATOM      7  O   UNL d   1      25.444 -15.149  -1.522  0.00  0.00    -0.266 OA
ATOM      8  H   UNL d   1      26.503 -16.563   1.225  0.00  0.00     0.190 HD
BRANCH   6   9
ATOM      9  C   UNL d   1      24.499 -17.053  -0.630  0.00  0.00     0.033 C 
ATOM     10  C   UNL d   1      24.731 -18.442  -0.394  0.00  0.00     0.019 C 
ATOM     11  C   UNL d   1      23.656 -19.318  -0.145  0.00  0.00     0.030 C 
ATOM     12  C   UNL d   1      22.364 -18.796  -0.144  0.00  0.00     0.034 C 
ATOM     13  C   UNL d   1      22.153 -17.467  -0.522  0.00  0.00     0.030 C 
ATOM     14  C   UNL d   1      23.202 -16.613  -0.788  0.00  0.00     0.019 C 
BRANCH  12  15
ATOM     15  N   UNL d   1      21.266 -19.550   0.307  0.00  0.00    -0.327 N 
ATOM     16  C   UNL d   1      20.230 -19.883  -0.546  0.00  0.00     0.221 C 
ATOM     17  O   UNL d   1      20.259 -19.700  -1.764  0.00  0.00    -0.273 OA
ATOM     18  H   UNL d   1      21.261 -19.847   1.276  0.00  0.00     0.169 HD
BRANCH  16  19
ATOM     19  C   UNL d   1      19.041 -20.541   0.109  0.00  0.00     0.098 C 
ATOM     20  C   UNL d   1      18.968 -20.086   1.563  0.00  0.00     0.014 C 
ENDBRANCH  16  19
ENDBRANCH  12  15
ENDBRANCH   6   9
ENDBRANCH   3   5
ENDBRANCH   1   3
BRANCH   1  21
ATOM     21  N   UNL d   1      27.183 -13.293  -1.173  0.00  0.00    -0.298 N 
ATOM     22  C   UNL d   1      27.552 -12.129  -1.948  0.00  0.00     0.260 C 
ATOM     23  O   UNL d   1      28.371 -11.316  -1.570  0.00  0.00    -0.267 OA
ATOM     24  H   UNL d   1      26.631 -13.969  -1.674  0.00  0.00     0.171 HD
BRANCH  22  25
ATOM     25  C   UNL d   1      27.053 -11.889  -3.377  0.00  0.00     0.065 A 
ATOM     26  C   UNL d   1      27.454 -10.623  -3.886  0.00  0.00     0.020 A 
ATOM     27  C   UNL d   1      26.877 -10.049  -5.031  0.00  0.00     0.001 A 
ATOM     28  C   UNL d   1      25.944 -10.763  -5.764  0.00  0.00     0.003 A 
ATOM     29  C   UNL d   1      25.530 -12.006  -5.299  0.00  0.00     0.038 A 
ATOM     30  C   UNL d   1      26.026 -12.558  -4.093  0.00  0.00     0.084 A 
BRANCH  30  31
ATOM     31  O   UNL d   1      25.298 -13.690  -3.788  0.00  0.00    -0.350 OA
BRANCH  31  32
ATOM     32  C   UNL d   1      25.793 -14.872  -4.361  0.00  0.00     0.180 C 
BRANCH  32  33
ATOM     33  C   UNL d   1      27.146 -14.716  -5.091  0.00  0.00     0.065 C 
BRANCH  33  34
ATOM     34  C   UNL d   1      28.197 -15.572  -4.459  0.00  0.00    -0.056 C 
ATOM     35  C   UNL d   1      29.304 -16.207  -5.032  0.00  0.00     0.007 C 
ATOM     36  C   UNL d   1      30.122 -17.080  -4.285  0.00  0.00     0.001 C 
ATOM     37  C   UNL d   1      29.986 -17.111  -2.933  0.00  0.00     0.000 C 
ATOM     38  C   UNL d   1      29.175 -16.133  -2.432  0.00  0.00     0.001 C 
ATOM     39  C   UNL d   1      28.182 -15.523  -3.111  0.00  0.00     0.007 C 
ENDBRANCH  33  34
ENDBRANCH  32  33
ENDBRANCH  31  32
ENDBRANCH  30  31
ENDBRANCH  22  25
ENDBRANCH   1  21
TORSDOF 11
ENDMDL
MODEL 6
REMARK VINA RESULT:    -9.377      3.452      5.960
REMARK INTER + INTRA:         -16.304
REMARK INTER:                 -12.659
REMARK INTRA:                  -3.645
REMARK CONF_INDEPENDENT:        3.281
REMARK UNBOUND:                -3.645
REMARK  11 active torsions:
REMARK  status: ('A' for Active; 'I' for Inactive)
REMARK    1  A    between atoms: C_2  and  C_3 
REMARK       I    between atoms: C_3  and  N_5 
REMARK    2  A    between atoms: N_5  and  C_6 
REMARK    3  A    between atoms: C_9  and  C_10 
REMARK       I    between atoms: C_10  and  N_12 
REMARK    4  A    between atoms: N_12  and  N_13 
REMARK    5  A    between atoms: N_13  and  C_14 
REMARK    6  A    between atoms: C_14  and  N_16 
REMARK       I    between atoms: N_16  and  C_17 
REMARK    7  A    between atoms: C_17  and  C_19 
REMARK    8  A    between atoms: C_24  and  O_25 
REMARK    9  A    between atoms: O_25  and  C_26 
REMARK   10  A    between atoms: C_26  and  C_27 
REMARK   11  A    between atoms: C_27  and  C_28 
ROOT
ATOM      1  C   UNL d   1      27.790 -14.705  -4.571  0.00  0.00     0.193 C 
ATOM      2  S   UNL d   1      28.398 -15.199  -6.055  0.00  0.00    -0.039 SA
ENDROOT
BRANCH   1   3
ATOM      3  N   UNL d   1      28.082 -15.449  -3.365  0.00  0.00    -0.273 N 
ATOM      4  H   UNL d   1      28.983 -15.907  -3.272  0.00  0.00     0.189 HD
BRANCH   3   5
ATOM      5  N   UNL d   1      26.920 -16.280  -2.633  0.00  0.00    -0.264 N 
ATOM      6  C   UNL d   1      25.501 -15.892  -2.603  0.00  0.00     0.270 C 
ATOM      7  O   UNL d   1      24.987 -14.972  -3.246  0.00  0.00    -0.266 OA
ATOM      8  H   UNL d   1      27.320 -16.763  -1.825  0.00  0.00     0.190 HD
BRANCH   6   9
ATOM      9  C   UNL d   1      24.557 -16.573  -1.645  0.00  0.00     0.033 C 
ATOM     10  C   UNL d   1      23.292 -16.030  -1.264  0.00  0.00     0.019 C 
ATOM     11  C   UNL d   1      22.358 -16.812  -0.557  0.00  0.00     0.030 C 
ATOM     12  C   UNL d   1      22.703 -18.122  -0.233  0.00  0.00     0.034 C 
ATOM     13  C   UNL d   1      23.998 -18.581  -0.487  0.00  0.00     0.030 C 
ATOM     14  C   UNL d   1      24.923 -17.810  -1.158  0.00  0.00     0.019 C 
BRANCH  12  15
ATOM     15  N   UNL d   1      21.754 -19.029   0.273  0.00  0.00    -0.327 N 
ATOM     16  C   UNL d   1      20.732 -19.510  -0.525  0.00  0.00     0.221 C 
ATOM     17  O   UNL d   1      20.665 -19.325  -1.741  0.00  0.00    -0.273 OA
ATOM     18  H   UNL d   1      21.847 -19.324   1.237  0.00  0.00     0.169 HD
BRANCH  16  19
ATOM     19  C   UNL d   1      19.691 -20.337   0.190  0.00  0.00     0.098 C 
ATOM     20  C   UNL d   1      19.162 -19.539   1.377  0.00  0.00     0.014 C 
ENDBRANCH  16  19
ENDBRANCH  12  15
ENDBRANCH   6   9
ENDBRANCH   3   5
ENDBRANCH   1   3
BRANCH   1  21
ATOM     21  N   UNL d   1      26.920 -13.550  -4.384  0.00  0.00    -0.298 N 
ATOM     22  C   UNL d   1      26.736 -12.426  -5.277  0.00  0.00     0.260 C 
ATOM     23  O   UNL d   1      27.029 -12.464  -6.454  0.00  0.00    -0.267 OA
ATOM     24  H   UNL d   1      26.478 -13.446  -3.486  0.00  0.00     0.171 HD
BRANCH  22  25
ATOM     25  C   UNL d   1      26.023 -11.137  -4.855  0.00  0.00     0.065 A 
ATOM     26  C   UNL d   1      25.712 -10.302  -5.963  0.00  0.00     0.020 A 
ATOM     27  C   UNL d   1      25.343  -8.955  -5.817  0.00  0.00     0.001 A 
ATOM     28  C   UNL d   1      25.181  -8.418  -4.551  0.00  0.00     0.003 A 
ATOM     29  C   UNL d   1      25.473  -9.206  -3.443  0.00  0.00     0.038 A 
ATOM     30  C   UNL d   1      25.941 -10.536  -3.571  0.00  0.00     0.084 A 
BRANCH  30  31
ATOM     31  O   UNL d   1      26.332 -10.994  -2.330  0.00  0.00    -0.350 OA
BRANCH  31  32
ATOM     32  C   UNL d   1      27.711 -10.907  -2.085  0.00  0.00     0.180 C 
BRANCH  32  33
ATOM     33  C   UNL d   1      28.125 -11.194  -0.625  0.00  0.00     0.065 C 
BRANCH  33  34
ATOM     34  C   UNL d   1      27.852 -12.619  -0.261  0.00  0.00    -0.056 C 
ATOM     35  C   UNL d   1      26.649 -13.335  -0.271  0.00  0.00     0.007 C 
ATOM     36  C   UNL d   1      26.571 -14.652   0.227  0.00  0.00     0.001 C 
ATOM     37  C   UNL d   1      27.723 -15.325   0.486  0.00  0.00     0.000 C 
ATOM     38  C   UNL d   1      28.851 -14.689   0.050  0.00  0.00     0.001 C 
ATOM     39  C   UNL d   1      28.973 -13.358  -0.127  0.00  0.00     0.007 C 
ENDBRANCH  33  34
ENDBRANCH  32  33
ENDBRANCH  31  32
ENDBRANCH  30  31
ENDBRANCH  22  25
ENDBRANCH   1  21
TORSDOF 11
ENDMDL
MODEL 7
REMARK VINA RESULT:    -9.376      2.805      3.925
REMARK INTER + INTRA:         -16.713
REMARK INTER:                 -12.657
REMARK INTRA:                  -4.056
REMARK CONF_INDEPENDENT:        3.281
REMARK UNBOUND:                -4.056
REMARK  11 active torsions:
REMARK  status: ('A' for Active; 'I' for Inactive)
REMARK    1  A    between atoms: C_2  and  C_3 
REMARK       I    between atoms: C_3  and  N_5 
REMARK    2  A    between atoms: N_5  and  C_6 
REMARK    3  A    between atoms: C_9  and  C_10 
REMARK       I    between atoms: C_10  and  N_12 
REMARK    4  A    between atoms: N_12  and  N_13 
REMARK    5  A    between atoms: N_13  and  C_14 
REMARK    6  A    between atoms: C_14  and  N_16 
REMARK       I    between atoms: N_16  and  C_17 
REMARK    7  A    between atoms: C_17  and  C_19 
REMARK    8  A    between atoms: C_24  and  O_25 
REMARK    9  A    between atoms: O_25  and  C_26 
REMARK   10  A    between atoms: C_26  and  C_27 
REMARK   11  A    between atoms: C_27  and  C_28 
ROOT
ATOM      1  C   UNL d   1      26.194 -12.731  -4.497  0.00  0.00     0.193 C 
ATOM      2  S   UNL d   1      26.278 -11.065  -4.307  0.00  0.00    -0.039 SA
ENDROOT
BRANCH   1   3
ATOM      3  N   UNL d   1      24.915 -13.401  -4.607  0.00  0.00    -0.273 N 
ATOM      4  H   UNL d   1      24.169 -12.959  -5.132  0.00  0.00     0.189 HD
BRANCH   3   5
ATOM      5  N   UNL d   1      24.346 -14.248  -3.369  0.00  0.00    -0.264 N 
ATOM      6  C   UNL d   1      25.080 -15.315  -2.671  0.00  0.00     0.270 C 
ATOM      7  O   UNL d   1      26.268 -15.606  -2.837  0.00  0.00    -0.266 OA
ATOM      8  H   UNL d   1      23.329 -14.324  -3.462  0.00  0.00     0.190 HD
BRANCH   6   9
ATOM      9  C   UNL d   1      24.348 -16.240  -1.731  0.00  0.00     0.033 C 
ATOM     10  C   UNL d   1      23.061 -15.949  -1.183  0.00  0.00     0.019 C 
ATOM     11  C   UNL d   1      22.328 -16.942  -0.505  0.00  0.00     0.030 C 
ATOM     12  C   UNL d   1      22.893 -18.209  -0.377  0.00  0.00     0.034 C 
ATOM     13  C   UNL d   1      24.209 -18.426  -0.791  0.00  0.00     0.030 C 
ATOM     14  C   UNL d   1      24.938 -17.450  -1.435  0.00  0.00     0.019 C 
BRANCH  12  15
ATOM     15  N   UNL d   1      22.143 -19.305   0.088  0.00  0.00    -0.327 N 
ATOM     16  C   UNL d   1      20.783 -19.390  -0.146  0.00  0.00     0.221 C 
ATOM     17  O   UNL d   1      20.167 -18.629  -0.894  0.00  0.00    -0.273 OA
ATOM     18  H   UNL d   1      22.632 -20.033   0.593  0.00  0.00     0.169 HD
BRANCH  16  19
ATOM     19  C   UNL d   1      20.078 -20.526   0.553  0.00  0.00     0.098 C 
ATOM     20  C   UNL d   1      18.589 -20.451   0.231  0.00  0.00     0.014 C 
ENDBRANCH  16  19
ENDBRANCH  12  15
ENDBRANCH   6   9
ENDBRANCH   3   5
ENDBRANCH   1   3
BRANCH   1  21
ATOM     21  N   UNL d   1      27.354 -13.612  -4.531  0.00  0.00    -0.298 N 
ATOM     22  C   UNL d   1      28.345 -13.731  -5.578  0.00  0.00     0.260 C 
ATOM     23  O   UNL d   1      28.528 -12.871  -6.416  0.00  0.00    -0.267 OA
ATOM     24  H   UNL d   1      27.427 -14.308  -3.808  0.00  0.00     0.171 HD
BRANCH  22  25
ATOM     25  C   UNL d   1      29.354 -14.884  -5.643  0.00  0.00     0.065 A 
ATOM     26  C   UNL d   1      30.115 -14.872  -6.844  0.00  0.00     0.020 A 
ATOM     27  C   UNL d   1      30.872 -15.975  -7.272  0.00  0.00     0.001 A 
ATOM     28  C   UNL d   1      30.970 -17.098  -6.467  0.00  0.00     0.003 A 
ATOM     29  C   UNL d   1      30.242 -17.143  -5.282  0.00  0.00     0.038 A 
ATOM     30  C   UNL d   1      29.396 -16.082  -4.882  0.00  0.00     0.084 A 
BRANCH  30  31
ATOM     31  O   UNL d   1      28.660 -16.486  -3.787  0.00  0.00    -0.350 OA
BRANCH  31  32
ATOM     32  C   UNL d   1      29.227 -16.146  -2.549  0.00  0.00     0.180 C 
BRANCH  32  33
ATOM     33  C   UNL d   1      29.351 -14.628  -2.292  0.00  0.00     0.065 C 
BRANCH  33  34
ATOM     34  C   UNL d   1      28.377 -14.180  -1.250  0.00  0.00    -0.056 C 
ATOM     35  C   UNL d   1      27.600 -13.017  -1.186  0.00  0.00     0.007 C 
ATOM     36  C   UNL d   1      26.822 -12.713  -0.050  0.00  0.00     0.001 C 
ATOM     37  C   UNL d   1      26.624 -13.677   0.888  0.00  0.00     0.000 C 
ATOM     38  C   UNL d   1      27.067 -14.914   0.518  0.00  0.00     0.001 C 
ATOM     39  C   UNL d   1      28.050 -15.153  -0.375  0.00  0.00     0.007 C 
ENDBRANCH  33  34
ENDBRANCH  32  33
ENDBRANCH  31  32
ENDBRANCH  30  31
ENDBRANCH  22  25
ENDBRANCH   1  21
TORSDOF 11
ENDMDL
MODEL 8
REMARK VINA RESULT:    -9.025      3.949      6.491
REMARK INTER + INTRA:         -16.118
REMARK INTER:                 -12.306
REMARK INTRA:                  -3.812
REMARK CONF_INDEPENDENT:        3.281
REMARK UNBOUND:                -3.812
REMARK  11 active torsions:
REMARK  status: ('A' for Active; 'I' for Inactive)
REMARK    1  A    between atoms: C_2  and  C_3 
REMARK       I    between atoms: C_3  and  N_5 
REMARK    2  A    between atoms: N_5  and  C_6 
REMARK    3  A    between atoms: C_9  and  C_10 
REMARK       I    between atoms: C_10  and  N_12 
REMARK    4  A    between atoms: N_12  and  N_13 
REMARK    5  A    between atoms: N_13  and  C_14 
REMARK    6  A    between atoms: C_14  and  N_16 
REMARK       I    between atoms: N_16  and  C_17 
REMARK    7  A    between atoms: C_17  and  C_19 
REMARK    8  A    between atoms: C_24  and  O_25 
REMARK    9  A    between atoms: O_25  and  C_26 
REMARK   10  A    between atoms: C_26  and  C_27 
REMARK   11  A    between atoms: C_27  and  C_28 
ROOT
ATOM      1  C   UNL d   1      26.192 -12.340  -4.921  0.00  0.00     0.193 C 
ATOM      2  S   UNL d   1      25.905 -11.229  -6.147  0.00  0.00    -0.039 SA
ENDROOT
BRANCH   1   3
ATOM      3  N   UNL d   1      25.252 -12.501  -3.831  0.00  0.00    -0.273 N 
ATOM      4  H   UNL d   1      24.456 -11.875  -3.769  0.00  0.00     0.189 HD
BRANCH   3   5
ATOM      5  N   UNL d   1      25.775 -12.938  -2.379  0.00  0.00    -0.264 N 
ATOM      6  C   UNL d   1      27.132 -12.691  -1.865  0.00  0.00     0.270 C 
ATOM      7  O   UNL d   1      27.998 -11.998  -2.406  0.00  0.00    -0.266 OA
ATOM      8  H   UNL d   1      25.284 -13.789  -2.094  0.00  0.00     0.190 HD
BRANCH   6   9
ATOM      9  C   UNL d   1      27.604 -13.402  -0.621  0.00  0.00     0.033 C 
ATOM     10  C   UNL d   1      28.982 -13.623  -0.314  0.00  0.00     0.019 C 
ATOM     11  C   UNL d   1      29.369 -14.078   0.961  0.00  0.00     0.030 C 
ATOM     12  C   UNL d   1      28.376 -14.314   1.909  0.00  0.00     0.034 C 
ATOM     13  C   UNL d   1      27.031 -14.232   1.539  0.00  0.00     0.030 C 
ATOM     14  C   UNL d   1      26.648 -13.809   0.285  0.00  0.00     0.019 C 
BRANCH  12  15
ATOM     15  N   UNL d   1      28.690 -14.556   3.258  0.00  0.00    -0.327 N 
ATOM     16  C   UNL d   1      28.118 -13.805   4.269  0.00  0.00     0.221 C 
ATOM     17  O   UNL d   1      27.197 -13.007   4.094  0.00  0.00    -0.273 OA
ATOM     18  H   UNL d   1      29.343 -15.302   3.467  0.00  0.00     0.169 HD
BRANCH  16  19
ATOM     19  C   UNL d   1      28.672 -14.056   5.650  0.00  0.00     0.098 C 
ATOM     20  C   UNL d   1      28.570 -12.768   6.460  0.00  0.00     0.014 C 
ENDBRANCH  16  19
ENDBRANCH  12  15
ENDBRANCH   6   9
ENDBRANCH   3   5
ENDBRANCH   1   3
BRANCH   1  21
ATOM     21  N   UNL d   1      27.381 -13.178  -4.834  0.00  0.00    -0.298 N 
ATOM     22  C   UNL d   1      27.488 -14.594  -5.107  0.00  0.00     0.260 C 
ATOM     23  O   UNL d   1      26.672 -15.203  -5.769  0.00  0.00    -0.267 OA
ATOM     24  H   UNL d   1      28.205 -12.768  -4.427  0.00  0.00     0.171 HD
BRANCH  22  25
ATOM     25  C   UNL d   1      28.711 -15.428  -4.710  0.00  0.00     0.065 A 
ATOM     26  C   UNL d   1      29.403 -15.947  -5.839  0.00  0.00     0.020 A 
ATOM     27  C   UNL d   1      30.355 -16.975  -5.737  0.00  0.00     0.001 A 
ATOM     28  C   UNL d   1      30.719 -17.456  -4.490  0.00  0.00     0.003 A 
ATOM     29  C   UNL d   1      30.067 -16.969  -3.363  0.00  0.00     0.038 A 
ATOM     30  C   UNL d   1      29.034 -16.005  -3.453  0.00  0.00     0.084 A 
BRANCH  30  31
ATOM     31  O   UNL d   1      28.445 -15.864  -2.214  0.00  0.00    -0.350 OA
BRANCH  31  32
ATOM     32  C   UNL d   1      28.102 -17.074  -1.591  0.00  0.00     0.180 C 
BRANCH  32  33
ATOM     33  C   UNL d   1      27.336 -16.918  -0.259  0.00  0.00     0.065 C 
BRANCH  33  34
ATOM     34  C   UNL d   1      25.897 -17.293  -0.421  0.00  0.00    -0.056 C 
ATOM     35  C   UNL d   1      25.143 -18.272   0.235  0.00  0.00     0.007 C 
ATOM     36  C   UNL d   1      23.816 -18.559  -0.147  0.00  0.00     0.001 C 
ATOM     37  C   UNL d   1      23.177 -17.706  -0.990  0.00  0.00     0.000 C 
ATOM     38  C   UNL d   1      23.856 -16.546  -1.231  0.00  0.00     0.001 C 
ATOM     39  C   UNL d   1      25.194 -16.396  -1.143  0.00  0.00     0.007 C 
ENDBRANCH  33  34
ENDBRANCH  32  33
ENDBRANCH  31  32
ENDBRANCH  30  31
ENDBRANCH  22  25
ENDBRANCH   1  21
TORSDOF 11
ENDMDL
MODEL 9
REMARK VINA RESULT:    -8.952      1.468      4.588
REMARK INTER + INTRA:         -16.022
REMARK INTER:                 -12.234
REMARK INTRA:                  -3.788
REMARK CONF_INDEPENDENT:        3.281
REMARK UNBOUND:                -3.788
REMARK  11 active torsions:
REMARK  status: ('A' for Active; 'I' for Inactive)
REMARK    1  A    between atoms: C_2  and  C_3 
REMARK       I    between atoms: C_3  and  N_5 
REMARK    2  A    between atoms: N_5  and  C_6 
REMARK    3  A    between atoms: C_9  and  C_10 
REMARK       I    between atoms: C_10  and  N_12 
REMARK    4  A    between atoms: N_12  and  N_13 
REMARK    5  A    between atoms: N_13  and  C_14 
REMARK    6  A    between atoms: C_14  and  N_16 
REMARK       I    between atoms: N_16  and  C_17 
REMARK    7  A    between atoms: C_17  and  C_19 
REMARK    8  A    between atoms: C_24  and  O_25 
REMARK    9  A    between atoms: O_25  and  C_26 
REMARK   10  A    between atoms: C_26  and  C_27 
REMARK   11  A    between atoms: C_27  and  C_28 
ROOT
ATOM      1  C   UNL d   1      31.009 -15.030  -2.001  0.00  0.00     0.193 C 
ATOM      2  S   UNL d   1      32.601 -15.080  -2.530  0.00  0.00    -0.039 SA
ENDROOT
BRANCH   1   3
ATOM      3  N   UNL d   1      30.676 -15.330  -0.624  0.00  0.00    -0.273 N 
ATOM      4  H   UNL d   1      31.412 -15.618   0.011  0.00  0.00     0.189 HD
BRANCH   3   5
ATOM      5  N   UNL d   1      29.281 -16.041  -0.272  0.00  0.00    -0.264 N 
ATOM      6  C   UNL d   1      28.407 -16.706  -1.251  0.00  0.00     0.270 C 
ATOM      7  O   UNL d   1      28.684 -16.938  -2.431  0.00  0.00    -0.266 OA
ATOM      8  H   UNL d   1      28.857 -15.560   0.525  0.00  0.00     0.190 HD
BRANCH   6   9
ATOM      9  C   UNL d   1      26.995 -17.072  -0.869  0.00  0.00     0.033 C 
ATOM     10  C   UNL d   1      25.853 -16.744  -1.663  0.00  0.00     0.019 C 
ATOM     11  C   UNL d   1      24.595 -17.309  -1.380  0.00  0.00     0.030 C 
ATOM     12  C   UNL d   1      24.491 -18.187  -0.304  0.00  0.00     0.034 C 
ATOM     13  C   UNL d   1      25.586 -18.377   0.543  0.00  0.00     0.030 C 
ATOM     14  C   UNL d   1      26.814 -17.807   0.283  0.00  0.00     0.019 C 
BRANCH  12  15
ATOM     15  N   UNL d   1      23.333 -18.956  -0.091  0.00  0.00    -0.327 N 
ATOM     16  C   UNL d   1      22.076 -18.437  -0.339  0.00  0.00     0.221 C 
ATOM     17  O   UNL d   1      21.878 -17.361  -0.905  0.00  0.00    -0.273 OA
ATOM     18  H   UNL d   1      23.449 -19.905   0.245  0.00  0.00     0.169 HD
BRANCH  16  19
ATOM     19  C   UNL d   1      20.922 -19.306   0.095  0.00  0.00     0.098 C 
ATOM     20  C   UNL d   1      19.768 -19.115  -0.884  0.00  0.00     0.014 C 
ENDBRANCH  16  19
ENDBRANCH  12  15
ENDBRANCH   6   9
ENDBRANCH   3   5
ENDBRANCH   1   3
BRANCH   1  21
ATOM     21  N   UNL d   1      29.868 -14.728  -2.856  0.00  0.00    -0.298 N 
ATOM     22  C   UNL d   1      28.842 -13.730  -2.643  0.00  0.00     0.260 C 
ATOM     23  O   UNL d   1      28.984 -12.786  -1.893  0.00  0.00    -0.267 OA
ATOM     24  H   UNL d   1      29.691 -15.350  -3.626  0.00  0.00     0.171 HD
BRANCH  22  25
ATOM     25  C   UNL d   1      27.540 -13.690  -3.451  0.00  0.00     0.065 A 
ATOM     26  C   UNL d   1      26.541 -12.891  -2.830  0.00  0.00     0.020 A 
ATOM     27  C   UNL d   1      25.188 -12.943  -3.205  0.00  0.00     0.001 A 
ATOM     28  C   UNL d   1      24.800 -13.727  -4.279  0.00  0.00     0.003 A 
ATOM     29  C   UNL d   1      25.751 -14.520  -4.913  0.00  0.00     0.038 A 
ATOM     30  C   UNL d   1      27.100 -14.557  -4.486  0.00  0.00     0.084 A 
BRANCH  30  31
ATOM     31  O   UNL d   1      27.754 -15.566  -5.162  0.00  0.00    -0.350 OA
BRANCH  31  32
ATOM     32  C   UNL d   1      28.514 -15.133  -6.260  0.00  0.00     0.180 C 
BRANCH  32  33
ATOM     33  C   UNL d   1      30.044 -15.197  -6.050  0.00  0.00     0.065 C 
BRANCH  33  34
ATOM     34  C   UNL d   1      30.539 -16.605  -6.153  0.00  0.00    -0.056 C 
ATOM     35  C   UNL d   1      31.646 -17.121  -6.835  0.00  0.00     0.007 C 
ATOM     36  C   UNL d   1      31.883 -18.509  -6.914  0.00  0.00     0.001 C 
ATOM     37  C   UNL d   1      31.173 -19.342  -6.109  0.00  0.00     0.000 C 
ATOM     38  C   UNL d   1      30.421 -18.700  -5.166  0.00  0.00     0.001 C 
ATOM     39  C   UNL d   1      29.951 -17.441  -5.272  0.00  0.00     0.007 C 
ENDBRANCH  33  34
ENDBRANCH  32  33
ENDBRANCH  31  32
ENDBRANCH  30  31
ENDBRANCH  22  25
ENDBRANCH   1  21
TORSDOF 11
ENDMDL
