MODEL 1
REMARK VINA RESULT:   -23.232      0.000      0.000
REMARK INTER + INTRA:         -25.237
REMARK INTER:                 -24.425
REMARK INTRA:                  -0.813
REMARK CONF_INDEPENDENT:        1.193
REMARK UNBOUND:                -0.813
REMARK  4 active torsions:
REMARK  status: ('A' for Active; 'I' for Inactive)
REMARK       I    between atoms: C_2  and  N_3 
REMARK    1  A    between atoms: C_17  and  C_2 
REMARK    2  A    between atoms: N_3  and  C_4 
REMARK    3  A    between atoms: C_7  and  N_8 
REMARK    4  A    between atoms: N_8  and  C_9 
ROOT
ATOM      1  C   UNL d   1      24.979 -17.611  -0.039  0.00  0.00     0.034 A 
ATOM      2  C   UNL d   1      25.286 -16.944  -1.228  0.00  0.00     0.032 A 
ATOM      3  C   UNL d   1      26.620 -16.879  -1.666  0.00  0.00     0.031 A 
ATOM      4  C   UNL d   1      27.646 -17.446  -0.898  0.00  0.00     0.032 A 
ATOM      5  C   UNL d   1      27.291 -18.155   0.254  0.00  0.00     0.031 A 
ATOM      6  C   UNL d   1      25.981 -18.243   0.678  0.00  0.00     0.032 A 
ENDROOT
BRANCH   1   7
ATOM      7  N   UNL d   1      23.662 -17.695   0.426  0.00  0.00    -0.326 N 
ATOM      8  C   UNL d   1      22.863 -18.821   0.235  0.00  0.00     0.236 C 
ATOM      9  O   UNL d   1      23.237 -19.890  -0.266  0.00  0.00    -0.272 OA
ATOM     10  H   UNL d   1      23.317 -16.907   0.965  0.00  0.00     0.169 HD
BRANCH   8  11
ATOM     11  C   UNL d   1      21.404 -18.634   0.590  0.00  0.00     0.164 C 
ATOM     12  C   UNL d   1      21.029 -19.947   1.222  0.00  0.00    -0.004 C 
ATOM     13  C   UNL d   1      20.250 -20.828   0.593  0.00  0.00     0.016 C 
ATOM     14  C   UNL d   1      19.686 -20.394  -0.697  0.00  0.00     0.117 C 
ATOM     15  N   UNL d   1      19.837 -19.246  -1.270  0.00  0.00    -0.253 NA
ATOM     16  C   UNL d   1      20.575 -18.263  -0.638  0.00  0.00     0.117 C 
ATOM     17  S   UNL d   1      20.712 -16.700  -1.270  0.00  0.00    -0.062 SA
ENDBRANCH   8  11
ENDBRANCH   1   7
BRANCH   4  18
ATOM     18  N   UNL d   1      28.999 -17.288  -1.241  0.00  0.00    -0.356 N 
ATOM     19  H   UNL d   1      29.675 -17.271  -0.490  0.00  0.00     0.166 HD
BRANCH  18  20
ATOM     20  C   UNL d   1      29.530 -17.248  -2.543  0.00  0.00     0.032 A 
ATOM     21  C   UNL d   1      29.074 -16.324  -3.487  0.00  0.00     0.029 A 
ATOM     22  C   UNL d   1      29.635 -16.297  -4.769  0.00  0.00     0.002 A 
ATOM     23  C   UNL d   1      30.702 -17.137  -5.088  0.00  0.00     0.000 A 
ATOM     24  C   UNL d   1      31.185 -18.036  -4.142  0.00  0.00     0.002 A 
ATOM     25  C   UNL d   1      30.589 -18.099  -2.887  0.00  0.00     0.029 A 
ENDBRANCH  18  20
ENDBRANCH   4  18
TORSDOF 4
ENDMDL
MODEL 2
REMARK VINA RESULT:   -22.778      1.830      2.368
REMARK INTER + INTRA:         -24.879
REMARK INTER:                 -23.971
REMARK INTRA:                  -0.907
REMARK CONF_INDEPENDENT:        1.193
REMARK UNBOUND:                -0.907
REMARK  4 active torsions:
REMARK  status: ('A' for Active; 'I' for Inactive)
REMARK       I    between atoms: C_2  and  N_3 
REMARK    1  A    between atoms: C_17  and  C_2 
REMARK    2  A    between atoms: N_3  and  C_4 
REMARK    3  A    between atoms: C_7  and  N_8 
REMARK    4  A    between atoms: N_8  and  C_9 
ROOT
ATOM      1  C   UNL d   1      24.969 -17.622  -0.047  0.00  0.00     0.034 A 
ATOM      2  C   UNL d   1      25.272 -16.945  -1.232  0.00  0.00     0.032 A 
ATOM      3  C   UNL d   1      26.605 -16.875  -1.672  0.00  0.00     0.031 A 
ATOM      4  C   UNL d   1      27.634 -17.446  -0.911  0.00  0.00     0.032 A 
ATOM      5  C   UNL d   1      27.283 -18.163   0.236  0.00  0.00     0.031 A 
ATOM      6  C   UNL d   1      25.975 -18.257   0.663  0.00  0.00     0.032 A 
ENDROOT
BRANCH   1   7
ATOM      7  N   UNL d   1      23.654 -17.711   0.421  0.00  0.00    -0.326 N 
ATOM      8  C   UNL d   1      22.857 -18.839   0.226  0.00  0.00     0.236 C 
ATOM      9  O   UNL d   1      23.233 -19.904  -0.282  0.00  0.00    -0.272 OA
ATOM     10  H   UNL d   1      23.308 -16.927   0.966  0.00  0.00     0.169 HD
BRANCH   8  11
ATOM     11  C   UNL d   1      21.398 -18.657   0.586  0.00  0.00     0.164 C 
ATOM     12  C   UNL d   1      21.030 -19.972   1.218  0.00  0.00    -0.004 C 
ATOM     13  C   UNL d   1      20.252 -20.855   0.590  0.00  0.00     0.016 C 
ATOM     14  C   UNL d   1      19.683 -20.422  -0.698  0.00  0.00     0.117 C 
ATOM     15  N   UNL d   1      19.828 -19.272  -1.270  0.00  0.00    -0.253 NA
ATOM     16  C   UNL d   1      20.564 -18.287  -0.639  0.00  0.00     0.117 C 
ATOM     17  S   UNL d   1      20.694 -16.723  -1.270  0.00  0.00    -0.062 SA
ENDBRANCH   8  11
ENDBRANCH   1   7
BRANCH   4  18
ATOM     18  N   UNL d   1      28.986 -17.282  -1.257  0.00  0.00    -0.356 N 
ATOM     19  H   UNL d   1      29.290 -17.650  -2.148  0.00  0.00     0.166 HD
BRANCH  18  20
ATOM     20  C   UNL d   1      29.952 -16.567  -0.529  0.00  0.00     0.032 A 
ATOM     21  C   UNL d   1      29.589 -15.556   0.366  0.00  0.00     0.029 A 
ATOM     22  C   UNL d   1      30.573 -14.874   1.090  0.00  0.00     0.002 A 
ATOM     23  C   UNL d   1      31.913 -15.249   0.983  0.00  0.00     0.000 A 
ATOM     24  C   UNL d   1      32.279 -16.277   0.121  0.00  0.00     0.002 A 
ATOM     25  C   UNL d   1      31.305 -16.916  -0.639  0.00  0.00     0.029 A 
ENDBRANCH  18  20
ENDBRANCH   4  18
TORSDOF 4
ENDMDL
