MODEL 1
REMARK VINA RESULT:    -8.636      0.000      0.000
REMARK INTER + INTRA:         -13.336
REMARK INTER:                 -10.724
REMARK INTRA:                  -2.611
REMARK CONF_INDEPENDENT:        2.088
REMARK UNBOUND:                -2.611
REMARK  7 active torsions:
REMARK  status: ('A' for Active; 'I' for Inactive)
REMARK    1  A    between atoms: C_12  and  N_13 
REMARK       I    between atoms: N_13  and  C_14 
REMARK    2  A    between atoms: C_14  and  C_16 
REMARK    3  A    between atoms: C_16  and  S_17 
REMARK    4  A    between atoms: S_17  and  C_18 
REMARK    5  A    between atoms: C_21  and  C_22 
REMARK    6  A    between atoms: C_22  and  C_23 
REMARK    7  A    between atoms: N_28  and  C_29 
ROOT
ATOM      1  C   UNL d   1      26.910 -10.680  -4.933  0.00  0.00     0.180 C 
ENDROOT
BRANCH   1   2
ATOM      2  C   UNL d   1      27.383 -11.437  -6.170  0.00  0.00     0.229 C 
ATOM      3  N   UNL d   1      28.641 -12.005  -6.131  0.00  0.00    -0.330 N 
ATOM      4  H   UNL d   1      29.374 -11.651  -5.533  0.00  0.00     0.165 HD
ATOM      5  O   UNL d   1      26.717 -11.447  -7.200  0.00  0.00    -0.273 OA
BRANCH   3   6
ATOM      6  C   UNL d   1      29.068 -12.805  -7.255  0.00  0.00     0.264 A 
ATOM      7  O   UNL d   1      30.288 -12.196  -7.757  0.00  0.00    -0.353 OA
ATOM      8  C   UNL d   1      31.372 -13.165  -7.680  0.00  0.00     0.152 A 
ATOM      9  C   UNL d   1      30.777 -14.345  -6.998  0.00  0.00    -0.017 A 
ATOM     10  C   UNL d   1      31.906 -13.461  -9.082  0.00  0.00     0.044 C 
ATOM     11  C   UNL d   1      29.478 -14.141  -6.795  0.00  0.00     0.066 A 
ATOM     12  C   UNL d   1      31.493 -15.582  -6.590  0.00  0.00     0.105 C 
ATOM     13  C   UNL d   1      28.655 -15.200  -6.212  0.00  0.00     0.266 C 
ATOM     14  N   UNL d   1      29.319 -16.271  -5.690  0.00  0.00    -0.287 N 
ATOM     15  O   UNL d   1      27.429 -15.199  -6.145  0.00  0.00    -0.266 OA
ATOM     16  N   UNL d   1      30.677 -16.552  -5.842  0.00  0.00    -0.229 NA
ATOM     17  H   UNL d   1      28.688 -16.989  -5.342  0.00  0.00     0.184 HD
ATOM     18  H   UNL d   1      31.080 -16.701  -4.918  0.00  0.00     0.147 HD
ATOM     19  C   UNL d   1      32.026 -16.346  -7.793  0.00  0.00     0.033 C 
ENDBRANCH   3   6
ENDBRANCH   1   2
BRANCH   1  20
ATOM     20  S   UNL d   1      25.635 -11.690  -4.042  0.00  0.00    -0.118 SA
BRANCH  20  21
ATOM     21  C   UNL d   1      25.992 -13.427  -4.435  0.00  0.00     0.244 C 
ATOM     22  N   UNL d   1      24.743 -14.189  -4.449  0.00  0.00    -0.183 NA
ATOM     23  N   UNL d   1      24.405 -14.664  -3.211  0.00  0.00    -0.185 NA
ATOM     24  H   UNL d   1      23.973 -13.769  -4.966  0.00  0.00     0.152 HD
ATOM     25  C   UNL d   1      25.515 -14.684  -2.531  0.00  0.00     0.123 C 
ATOM     26  N   UNL d   1      26.609 -14.138  -3.308  0.00  0.00    -0.336 N 
BRANCH  25  27
ATOM     27  C   UNL d   1      25.667 -15.225  -1.123  0.00  0.00     0.126 C 
BRANCH  27  28
ATOM     28  C   UNL d   1      24.754 -16.406  -0.908  0.00  0.00    -0.011 A 
ATOM     29  C   UNL d   1      23.373 -16.403  -0.955  0.00  0.00     0.015 A 
ATOM     30  C   UNL d   1      22.807 -17.637  -0.534  0.00  0.00     0.008 A 
ATOM     31  C   UNL d   1      23.773 -18.577  -0.259  0.00  0.00     0.050 A 
ATOM     32  S   UNL d   1      25.354 -17.959  -0.501  0.00  0.00    -0.106 SA
ENDBRANCH  27  28
ENDBRANCH  25  27
BRANCH  26  33
ATOM     33  C   UNL d   1      28.025 -14.469  -3.135  0.00  0.00     0.088 C 
ATOM     34  C   UNL d   1      28.712 -13.662  -2.015  0.00  0.00     0.025 C 
ATOM     35  C   UNL d   1      30.147 -14.164  -1.763  0.00  0.00     0.002 C 
ATOM     36  C   UNL d   1      30.193 -15.661  -1.466  0.00  0.00     0.000 C 
ATOM     37  C   UNL d   1      29.533 -16.450  -2.590  0.00  0.00     0.002 C 
ATOM     38  C   UNL d   1      28.123 -15.947  -2.818  0.00  0.00     0.025 C 
ENDBRANCH  26  33
ENDBRANCH  20  21
ENDBRANCH   1  20
TORSDOF 7
ENDMDL
MODEL 2
REMARK VINA RESULT:    -8.018      2.965      5.647
REMARK INTER + INTRA:         -13.446
REMARK INTER:                 -10.106
REMARK INTRA:                  -3.340
REMARK CONF_INDEPENDENT:        2.088
REMARK UNBOUND:                -3.340
REMARK  7 active torsions:
REMARK  status: ('A' for Active; 'I' for Inactive)
REMARK    1  A    between atoms: C_12  and  N_13 
REMARK       I    between atoms: N_13  and  C_14 
REMARK    2  A    between atoms: C_14  and  C_16 
REMARK    3  A    between atoms: C_16  and  S_17 
REMARK    4  A    between atoms: S_17  and  C_18 
REMARK    5  A    between atoms: C_21  and  C_22 
REMARK    6  A    between atoms: C_22  and  C_23 
REMARK    7  A    between atoms: N_28  and  C_29 
ROOT
ATOM      1  C   UNL d   1      27.364 -14.851  -4.489  0.00  0.00     0.180 C 
ENDROOT
BRANCH   1   2
ATOM      2  C   UNL d   1      27.738 -13.524  -5.141  0.00  0.00     0.229 C 
ATOM      3  N   UNL d   1      26.888 -12.453  -4.949  0.00  0.00    -0.330 N 
ATOM      4  H   UNL d   1      25.906 -12.575  -4.745  0.00  0.00     0.165 HD
ATOM      5  O   UNL d   1      28.699 -13.440  -5.900  0.00  0.00    -0.273 OA
BRANCH   3   6
ATOM      6  C   UNL d   1      27.274 -11.167  -5.481  0.00  0.00     0.264 A 
ATOM      7  O   UNL d   1      27.146 -11.260  -6.924  0.00  0.00    -0.353 OA
ATOM      8  C   UNL d   1      26.186 -10.267  -7.385  0.00  0.00     0.152 A 
ATOM      9  C   UNL d   1      25.651  -9.653  -6.141  0.00  0.00    -0.017 A 
ATOM     10  C   UNL d   1      26.873  -9.274  -8.323  0.00  0.00     0.044 C 
ATOM     11  C   UNL d   1      26.293 -10.145  -5.083  0.00  0.00     0.066 A 
ATOM     12  C   UNL d   1      24.566  -8.642  -6.052  0.00  0.00     0.105 C 
ATOM     13  C   UNL d   1      25.999  -9.629  -3.747  0.00  0.00     0.266 C 
ATOM     14  N   UNL d   1      24.904  -8.823  -3.631  0.00  0.00    -0.287 N 
ATOM     15  O   UNL d   1      26.643  -9.867  -2.730  0.00  0.00    -0.266 OA
ATOM     16  N   UNL d   1      24.168  -8.277  -4.683  0.00  0.00    -0.229 NA
ATOM     17  H   UNL d   1      24.783  -8.463  -2.688  0.00  0.00     0.184 HD
ATOM     18  H   UNL d   1      23.185  -8.505  -4.539  0.00  0.00     0.147 HD
ATOM     19  C   UNL d   1      24.962  -7.332  -6.718  0.00  0.00     0.033 C 
ENDBRANCH   3   6
ENDBRANCH   1   2
BRANCH   1  20
ATOM     20  S   UNL d   1      25.536 -15.123  -4.651  0.00  0.00    -0.118 SA
BRANCH  20  21
ATOM     21  C   UNL d   1      24.789 -14.510  -3.112  0.00  0.00     0.244 C 
ATOM     22  N   UNL d   1      24.782 -13.047  -3.123  0.00  0.00    -0.183 NA
ATOM     23  N   UNL d   1      25.941 -12.513  -2.633  0.00  0.00    -0.185 NA
ATOM     24  H   UNL d   1      24.444 -12.613  -3.980  0.00  0.00     0.152 HD
ATOM     25  C   UNL d   1      26.471 -13.448  -1.897  0.00  0.00     0.123 C 
ATOM     26  N   UNL d   1      25.686 -14.664  -1.959  0.00  0.00    -0.336 N 
BRANCH  25  27
ATOM     27  C   UNL d   1      27.728 -13.295  -1.063  0.00  0.00     0.126 C 
BRANCH  27  28
ATOM     28  C   UNL d   1      27.378 -13.076   0.387  0.00  0.00    -0.011 A 
ATOM     29  C   UNL d   1      27.046 -11.876   0.986  0.00  0.00     0.015 A 
ATOM     30  C   UNL d   1      26.943 -11.978   2.400  0.00  0.00     0.008 A 
ATOM     31  C   UNL d   1      27.115 -13.272   2.835  0.00  0.00     0.050 A 
ATOM     32  S   UNL d   1      27.409 -14.350   1.534  0.00  0.00    -0.106 SA
ENDBRANCH  27  28
ENDBRANCH  25  27
BRANCH  26  33
ATOM     33  C   UNL d   1      25.629 -15.694  -0.920  0.00  0.00     0.088 C 
ATOM     34  C   UNL d   1      24.404 -16.622  -1.042  0.00  0.00     0.025 C 
ATOM     35  C   UNL d   1      24.480 -17.784  -0.032  0.00  0.00     0.002 C 
ATOM     36  C   UNL d   1      25.781 -18.575  -0.155  0.00  0.00     0.000 C 
ATOM     37  C   UNL d   1      26.984 -17.651  -0.009  0.00  0.00     0.002 C 
ATOM     38  C   UNL d   1      26.894 -16.521  -1.013  0.00  0.00     0.025 C 
ENDBRANCH  26  33
ENDBRANCH  20  21
ENDBRANCH   1  20
TORSDOF 7
ENDMDL
MODEL 3
REMARK VINA RESULT:    -7.872      4.054      7.266
REMARK INTER + INTRA:         -13.279
REMARK INTER:                  -9.960
REMARK INTRA:                  -3.319
REMARK CONF_INDEPENDENT:        2.088
REMARK UNBOUND:                -3.319
REMARK  7 active torsions:
REMARK  status: ('A' for Active; 'I' for Inactive)
REMARK    1  A    between atoms: C_12  and  N_13 
REMARK       I    between atoms: N_13  and  C_14 
REMARK    2  A    between atoms: C_14  and  C_16 
REMARK    3  A    between atoms: C_16  and  S_17 
REMARK    4  A    between atoms: S_17  and  C_18 
REMARK    5  A    between atoms: C_21  and  C_22 
REMARK    6  A    between atoms: C_22  and  C_23 
REMARK    7  A    between atoms: N_28  and  C_29 
ROOT
ATOM      1  C   UNL d   1      31.014 -14.149  -2.745  0.00  0.00     0.180 C 
ENDROOT
BRANCH   1   2
ATOM      2  C   UNL d   1      30.176 -13.329  -1.771  0.00  0.00     0.229 C 
ATOM      3  N   UNL d   1      30.135 -13.743  -0.454  0.00  0.00    -0.330 N 
ATOM      4  H   UNL d   1      30.296 -14.704  -0.187  0.00  0.00     0.165 HD
ATOM      5  O   UNL d   1      29.475 -12.402  -2.163  0.00  0.00    -0.273 OA
BRANCH   3   6
ATOM      6  C   UNL d   1      29.423 -12.927   0.501  0.00  0.00     0.264 A 
ATOM      7  O   UNL d   1      28.011 -13.069   0.195  0.00  0.00    -0.353 OA
ATOM      8  C   UNL d   1      27.322 -13.616   1.355  0.00  0.00     0.152 A 
ATOM      9  C   UNL d   1      28.404 -13.910   2.333  0.00  0.00    -0.017 A 
ATOM     10  C   UNL d   1      26.280 -12.618   1.862  0.00  0.00     0.044 C 
ATOM     11  C   UNL d   1      29.572 -13.490   1.852  0.00  0.00     0.066 A 
ATOM     12  C   UNL d   1      28.244 -14.572   3.654  0.00  0.00     0.105 C 
ATOM     13  C   UNL d   1      30.778 -13.593   2.673  0.00  0.00     0.266 C 
ATOM     14  N   UNL d   1      30.678 -14.336   3.813  0.00  0.00    -0.287 N 
ATOM     15  O   UNL d   1      31.863 -13.081   2.418  0.00  0.00    -0.266 OA
ATOM     16  N   UNL d   1      29.500 -14.826   4.376  0.00  0.00    -0.229 NA
ATOM     17  H   UNL d   1      31.537 -14.330   4.358  0.00  0.00     0.184 HD
ATOM     18  H   UNL d   1      29.611 -15.827   4.531  0.00  0.00     0.147 HD
ATOM     19  C   UNL d   1      27.395 -13.736   4.602  0.00  0.00     0.033 C 
ENDBRANCH   3   6
ENDBRANCH   1   2
BRANCH   1  20
ATOM     20  S   UNL d   1      30.127 -14.273  -4.369  0.00  0.00    -0.118 SA
BRANCH  20  21
ATOM     21  C   UNL d   1      28.955 -15.653  -4.208  0.00  0.00     0.244 C 
ATOM     22  N   UNL d   1      28.371 -15.950  -5.516  0.00  0.00    -0.183 NA
ATOM     23  N   UNL d   1      27.261 -15.195  -5.779  0.00  0.00    -0.185 NA
ATOM     24  H   UNL d   1      29.029 -16.018  -6.290  0.00  0.00     0.152 HD
ATOM     25  C   UNL d   1      26.823 -14.805  -4.616  0.00  0.00     0.123 C 
ATOM     26  N   UNL d   1      27.705 -15.247  -3.555  0.00  0.00    -0.336 N 
BRANCH  25  27
ATOM     27  C   UNL d   1      25.550 -14.016  -4.382  0.00  0.00     0.126 C 
BRANCH  27  28
ATOM     28  C   UNL d   1      25.871 -12.624  -3.897  0.00  0.00    -0.011 A 
ATOM     29  C   UNL d   1      25.905 -11.471  -4.657  0.00  0.00     0.015 A 
ATOM     30  C   UNL d   1      26.412 -10.355  -3.939  0.00  0.00     0.008 A 
ATOM     31  C   UNL d   1      26.672 -10.666  -2.624  0.00  0.00     0.050 A 
ATOM     32  S   UNL d   1      26.310 -12.305  -2.272  0.00  0.00    -0.106 SA
ENDBRANCH  27  28
ENDBRANCH  25  27
BRANCH  26  33
ATOM     33  C   UNL d   1      27.312 -15.484  -2.164  0.00  0.00     0.088 C 
ATOM     34  C   UNL d   1      25.906 -16.101  -2.020  0.00  0.00     0.025 C 
ATOM     35  C   UNL d   1      25.610 -16.484  -0.557  0.00  0.00     0.002 C 
ATOM     36  C   UNL d   1      26.677 -17.409   0.027  0.00  0.00     0.000 C 
ATOM     37  C   UNL d   1      28.059 -16.778  -0.099  0.00  0.00     0.002 C 
ATOM     38  C   UNL d   1      28.333 -16.415  -1.543  0.00  0.00     0.025 C 
ENDBRANCH  26  33
ENDBRANCH  20  21
ENDBRANCH   1  20
TORSDOF 7
ENDMDL
MODEL 4
REMARK VINA RESULT:    -7.718      2.904      5.320
REMARK INTER + INTRA:         -13.473
REMARK INTER:                  -9.806
REMARK INTRA:                  -3.667
REMARK CONF_INDEPENDENT:        2.088
REMARK UNBOUND:                -3.667
REMARK  7 active torsions:
REMARK  status: ('A' for Active; 'I' for Inactive)
REMARK    1  A    between atoms: C_12  and  N_13 
REMARK       I    between atoms: N_13  and  C_14 
REMARK    2  A    between atoms: C_14  and  C_16 
REMARK    3  A    between atoms: C_16  and  S_17 
REMARK    4  A    between atoms: S_17  and  C_18 
REMARK    5  A    between atoms: C_21  and  C_22 
REMARK    6  A    between atoms: C_22  and  C_23 
REMARK    7  A    between atoms: N_28  and  C_29 
ROOT
ATOM      1  C   UNL d   1      27.879 -11.353  -4.515  0.00  0.00     0.180 C 
ENDROOT
BRANCH   1   2
ATOM      2  C   UNL d   1      28.355 -11.135  -3.083  0.00  0.00     0.229 C 
ATOM      3  N   UNL d   1      27.659 -11.769  -2.073  0.00  0.00    -0.330 N 
ATOM      4  H   UNL d   1      26.690 -12.036  -2.172  0.00  0.00     0.165 HD
ATOM      5  O   UNL d   1      29.253 -10.339  -2.828  0.00  0.00    -0.273 OA
BRANCH   3   6
ATOM      6  C   UNL d   1      28.151 -11.649  -0.720  0.00  0.00     0.264 A 
ATOM      7  O   UNL d   1      27.030 -11.209   0.091  0.00  0.00    -0.353 OA
ATOM      8  C   UNL d   1      26.769 -12.200   1.125  0.00  0.00     0.152 A 
ATOM      9  C   UNL d   1      27.707 -13.315   0.825  0.00  0.00    -0.017 A 
ATOM     10  C   UNL d   1      26.967 -11.576   2.507  0.00  0.00     0.044 C 
ATOM     11  C   UNL d   1      28.496 -12.979  -0.192  0.00  0.00     0.066 A 
ATOM     12  C   UNL d   1      27.780 -14.621   1.531  0.00  0.00     0.105 C 
ATOM     13  C   UNL d   1      29.563 -13.884  -0.618  0.00  0.00     0.266 C 
ATOM     14  N   UNL d   1      29.542 -15.142  -0.091  0.00  0.00    -0.287 N 
ATOM     15  O   UNL d   1      30.458 -13.612  -1.412  0.00  0.00    -0.266 OA
ATOM     16  N   UNL d   1      28.739 -15.581   0.962  0.00  0.00    -0.229 NA
ATOM     17  H   UNL d   1      30.334 -15.705  -0.393  0.00  0.00     0.184 HD
ATOM     18  H   UNL d   1      28.247 -16.421   0.662  0.00  0.00     0.147 HD
ATOM     19  C   UNL d   1      28.196 -14.450   2.986  0.00  0.00     0.033 C 
ENDBRANCH   3   6
ENDBRANCH   1   2
BRANCH   1  20
ATOM     20  S   UNL d   1      26.106 -11.899  -4.498  0.00  0.00    -0.118 SA
BRANCH  20  21
ATOM     21  C   UNL d   1      26.124 -13.703  -4.719  0.00  0.00     0.244 C 
ATOM     22  N   UNL d   1      24.772 -14.229  -4.530  0.00  0.00    -0.183 NA
ATOM     23  N   UNL d   1      24.497 -14.512  -3.220  0.00  0.00    -0.185 NA
ATOM     24  H   UNL d   1      24.030 -13.732  -5.020  0.00  0.00     0.152 HD
ATOM     25  C   UNL d   1      25.656 -14.661  -2.646  0.00  0.00     0.123 C 
ATOM     26  N   UNL d   1      26.734 -14.396  -3.577  0.00  0.00    -0.336 N 
BRANCH  25  27
ATOM     27  C   UNL d   1      25.869 -15.078  -1.204  0.00  0.00     0.126 C 
BRANCH  27  28
ATOM     28  C   UNL d   1      25.151 -16.372  -0.916  0.00  0.00    -0.011 A 
ATOM     29  C   UNL d   1      23.821 -16.653  -1.162  0.00  0.00     0.015 A 
ATOM     30  C   UNL d   1      23.412 -17.899  -0.614  0.00  0.00     0.008 A 
ATOM     31  C   UNL d   1      24.462 -18.575  -0.037  0.00  0.00     0.050 A 
ATOM     32  S   UNL d   1      25.929 -17.696  -0.154  0.00  0.00    -0.106 SA
ENDBRANCH  27  28
ENDBRANCH  25  27
BRANCH  26  33
ATOM     33  C   UNL d   1      28.085 -14.954  -3.496  0.00  0.00     0.088 C 
ATOM     34  C   UNL d   1      28.155 -16.287  -2.725  0.00  0.00     0.025 C 
ATOM     35  C   UNL d   1      29.561 -16.912  -2.812  0.00  0.00     0.002 C 
ATOM     36  C   UNL d   1      30.027 -17.089  -4.257  0.00  0.00     0.000 C 
ATOM     37  C   UNL d   1      29.977 -15.761  -5.001  0.00  0.00     0.002 C 
ATOM     38  C   UNL d   1      28.588 -15.167  -4.909  0.00  0.00     0.025 C 
ENDBRANCH  26  33
ENDBRANCH  20  21
ENDBRANCH   1  20
TORSDOF 7
ENDMDL
MODEL 5
REMARK VINA RESULT:    -7.076      3.012      5.480
REMARK INTER + INTRA:         -13.267
REMARK INTER:                  -9.165
REMARK INTRA:                  -4.103
REMARK CONF_INDEPENDENT:        2.088
REMARK UNBOUND:                -4.103
REMARK  7 active torsions:
REMARK  status: ('A' for Active; 'I' for Inactive)
REMARK    1  A    between atoms: C_12  and  N_13 
REMARK       I    between atoms: N_13  and  C_14 
REMARK    2  A    between atoms: C_14  and  C_16 
REMARK    3  A    between atoms: C_16  and  S_17 
REMARK    4  A    between atoms: S_17  and  C_18 
REMARK    5  A    between atoms: C_21  and  C_22 
REMARK    6  A    between atoms: C_22  and  C_23 
REMARK    7  A    between atoms: N_28  and  C_29 
ROOT
ATOM      1  C   UNL d   1      26.681 -14.227  -5.107  0.00  0.00     0.180 C 
ENDROOT
BRANCH   1   2
ATOM      2  C   UNL d   1      28.160 -14.117  -4.754  0.00  0.00     0.229 C 
ATOM      3  N   UNL d   1      28.529 -14.385  -3.450  0.00  0.00    -0.330 N 
ATOM      4  H   UNL d   1      27.889 -14.279  -2.677  0.00  0.00     0.165 HD
ATOM      5  O   UNL d   1      28.976 -13.697  -5.568  0.00  0.00    -0.273 OA
BRANCH   3   6
ATOM      6  C   UNL d   1      29.935 -14.377  -3.119  0.00  0.00     0.264 A 
ATOM      7  O   UNL d   1      30.295 -12.991  -2.878  0.00  0.00    -0.353 OA
ATOM      8  C   UNL d   1      30.793 -12.856  -1.517  0.00  0.00     0.152 A 
ATOM      9  C   UNL d   1      30.603 -14.200  -0.910  0.00  0.00    -0.017 A 
ATOM     10  C   UNL d   1      32.247 -12.382  -1.538  0.00  0.00     0.044 C 
ATOM     11  C   UNL d   1      30.151 -15.050  -1.829  0.00  0.00     0.066 A 
ATOM     12  C   UNL d   1      30.867 -14.576   0.504  0.00  0.00     0.105 C 
ATOM     13  C   UNL d   1      29.967 -16.460  -1.491  0.00  0.00     0.266 C 
ATOM     14  N   UNL d   1      30.051 -16.787  -0.168  0.00  0.00    -0.287 N 
ATOM     15  O   UNL d   1      29.734 -17.363  -2.289  0.00  0.00    -0.266 OA
ATOM     16  N   UNL d   1      30.498 -15.955   0.858  0.00  0.00    -0.229 NA
ATOM     17  H   UNL d   1      29.958 -17.787  -0.007  0.00  0.00     0.184 HD
ATOM     18  H   UNL d   1      29.793 -15.945   1.593  0.00  0.00     0.147 HD
ATOM     19  C   UNL d   1      32.343 -14.450   0.852  0.00  0.00     0.033 C 
ENDBRANCH   3   6
ENDBRANCH   1   2
BRANCH   1  20
ATOM     20  S   UNL d   1      25.905 -15.576  -4.096  0.00  0.00    -0.118 SA
BRANCH  20  21
ATOM     21  C   UNL d   1      25.101 -14.759  -2.686  0.00  0.00     0.244 C 
ATOM     22  N   UNL d   1      25.822 -13.528  -2.362  0.00  0.00    -0.183 NA
ATOM     23  N   UNL d   1      26.858 -13.739  -1.494  0.00  0.00    -0.185 NA
ATOM     24  H   UNL d   1      26.046 -12.925  -3.151  0.00  0.00     0.152 HD
ATOM     25  C   UNL d   1      26.581 -14.858  -0.889  0.00  0.00     0.123 C 
ATOM     26  N   UNL d   1      25.369 -15.448  -1.418  0.00  0.00    -0.336 N 
BRANCH  25  27
ATOM     27  C   UNL d   1      27.394 -15.465   0.238  0.00  0.00     0.126 C 
BRANCH  27  28
ATOM     28  C   UNL d   1      27.473 -14.515   1.406  0.00  0.00    -0.011 A 
ATOM     29  C   UNL d   1      27.950 -14.797   2.672  0.00  0.00     0.015 A 
ATOM     30  C   UNL d   1      27.726 -13.738   3.592  0.00  0.00     0.008 A 
ATOM     31  C   UNL d   1      27.161 -12.641   2.984  0.00  0.00     0.050 A 
ATOM     32  S   UNL d   1      26.897 -12.903   1.310  0.00  0.00    -0.106 SA
ENDBRANCH  27  28
ENDBRANCH  25  27
BRANCH  26  33
ATOM     33  C   UNL d   1      24.472 -16.349  -0.690  0.00  0.00     0.088 C 
ATOM     34  C   UNL d   1      23.016 -16.307  -1.194  0.00  0.00     0.025 C 
ATOM     35  C   UNL d   1      22.155 -17.387  -0.511  0.00  0.00     0.002 C 
ATOM     36  C   UNL d   1      22.749 -18.786  -0.670  0.00  0.00     0.000 C 
ATOM     37  C   UNL d   1      24.180 -18.821  -0.145  0.00  0.00     0.002 C 
ATOM     38  C   UNL d   1      25.010 -17.758  -0.832  0.00  0.00     0.025 C 
ENDBRANCH  26  33
ENDBRANCH  20  21
ENDBRANCH   1  20
TORSDOF 7
ENDMDL
MODEL 6
REMARK VINA RESULT:    -7.038      2.762      5.636
REMARK INTER + INTRA:         -13.863
REMARK INTER:                  -9.126
REMARK INTRA:                  -4.738
REMARK CONF_INDEPENDENT:        2.088
REMARK UNBOUND:                -4.738
REMARK  7 active torsions:
REMARK  status: ('A' for Active; 'I' for Inactive)
REMARK    1  A    between atoms: C_12  and  N_13 
REMARK       I    between atoms: N_13  and  C_14 
REMARK    2  A    between atoms: C_14  and  C_16 
REMARK    3  A    between atoms: C_16  and  S_17 
REMARK    4  A    between atoms: S_17  and  C_18 
REMARK    5  A    between atoms: C_21  and  C_22 
REMARK    6  A    between atoms: C_22  and  C_23 
REMARK    7  A    between atoms: N_28  and  C_29 
ROOT
ATOM      1  C   UNL d   1      29.363 -14.854   1.489  0.00  0.00     0.180 C 
ENDROOT
BRANCH   1   2
ATOM      2  C   UNL d   1      30.293 -15.061   0.299  0.00  0.00     0.229 C 
ATOM      3  N   UNL d   1      29.783 -14.824  -0.962  0.00  0.00    -0.330 N 
ATOM      4  H   UNL d   1      28.796 -14.894  -1.165  0.00  0.00     0.165 HD
ATOM      5  O   UNL d   1      31.418 -15.528   0.448  0.00  0.00    -0.273 OA
BRANCH   3   6
ATOM      6  C   UNL d   1      30.675 -14.925  -2.093  0.00  0.00     0.264 A 
ATOM      7  O   UNL d   1      31.231 -16.266  -2.064  0.00  0.00    -0.353 OA
ATOM      8  C   UNL d   1      30.881 -16.957  -3.297  0.00  0.00     0.152 A 
ATOM      9  C   UNL d   1      29.986 -16.012  -4.018  0.00  0.00    -0.017 A 
ATOM     10  C   UNL d   1      32.149 -17.323  -4.068  0.00  0.00     0.044 C 
ATOM     11  C   UNL d   1      29.905 -14.866  -3.346  0.00  0.00     0.066 A 
ATOM     12  C   UNL d   1      29.272 -16.274  -5.295  0.00  0.00     0.105 C 
ATOM     13  C   UNL d   1      29.147 -13.747  -3.903  0.00  0.00     0.266 C 
ATOM     14  N   UNL d   1      28.362 -14.019  -4.985  0.00  0.00    -0.287 N 
ATOM     15  O   UNL d   1      29.149 -12.597  -3.473  0.00  0.00    -0.266 OA
ATOM     16  N   UNL d   1      28.373 -15.195  -5.735  0.00  0.00    -0.229 NA
ATOM     17  H   UNL d   1      27.898 -13.190  -5.349  0.00  0.00     0.184 HD
ATOM     18  H   UNL d   1      27.419 -15.547  -5.795  0.00  0.00     0.147 HD
ATOM     19  C   UNL d   1      30.244 -16.484  -6.448  0.00  0.00     0.033 C 
ENDBRANCH   3   6
ENDBRANCH   1   2
BRANCH   1  20
ATOM     20  S   UNL d   1      27.603 -14.858   0.903  0.00  0.00    -0.118 SA
BRANCH  20  21
ATOM     21  C   UNL d   1      27.239 -16.562   0.387  0.00  0.00     0.244 C 
ATOM     22  N   UNL d   1      28.221 -16.987  -0.611  0.00  0.00    -0.183 NA
ATOM     23  N   UNL d   1      27.854 -16.650  -1.885  0.00  0.00    -0.185 NA
ATOM     24  H   UNL d   1      29.195 -16.793  -0.386  0.00  0.00     0.152 HD
ATOM     25  C   UNL d   1      26.563 -16.483  -1.842  0.00  0.00     0.123 C 
ATOM     26  N   UNL d   1      26.065 -16.638  -0.491  0.00  0.00    -0.336 N 
BRANCH  25  27
ATOM     27  C   UNL d   1      25.681 -16.190  -3.040  0.00  0.00     0.126 C 
BRANCH  27  28
ATOM     28  C   UNL d   1      25.627 -14.707  -3.308  0.00  0.00    -0.011 A 
ATOM     29  C   UNL d   1      25.150 -14.090  -4.448  0.00  0.00     0.015 A 
ATOM     30  C   UNL d   1      25.400 -12.691  -4.460  0.00  0.00     0.008 A 
ATOM     31  C   UNL d   1      25.986 -12.264  -3.290  0.00  0.00     0.050 A 
ATOM     32  S   UNL d   1      26.236 -13.558  -2.192  0.00  0.00    -0.106 SA
ENDBRANCH  27  28
ENDBRANCH  25  27
BRANCH  26  33
ATOM     33  C   UNL d   1      24.709 -17.054  -0.126  0.00  0.00     0.088 C 
ATOM     34  C   UNL d   1      23.606 -16.273  -0.869  0.00  0.00     0.025 C 
ATOM     35  C   UNL d   1      22.211 -16.859  -0.576  0.00  0.00     0.002 C 
ATOM     36  C   UNL d   1      22.133 -18.352  -0.891  0.00  0.00     0.000 C 
ATOM     37  C   UNL d   1      23.212 -19.116  -0.133  0.00  0.00     0.002 C 
ATOM     38  C   UNL d   1      24.573 -18.530  -0.439  0.00  0.00     0.025 C 
ENDBRANCH  26  33
ENDBRANCH  20  21
ENDBRANCH   1  20
TORSDOF 7
ENDMDL
MODEL 7
REMARK VINA RESULT:    -7.025      2.718      6.451
REMARK INTER + INTRA:         -13.380
REMARK INTER:                  -9.113
REMARK INTRA:                  -4.267
REMARK CONF_INDEPENDENT:        2.088
REMARK UNBOUND:                -4.267
REMARK  7 active torsions:
REMARK  status: ('A' for Active; 'I' for Inactive)
REMARK    1  A    between atoms: C_12  and  N_13 
REMARK       I    between atoms: N_13  and  C_14 
REMARK    2  A    between atoms: C_14  and  C_16 
REMARK    3  A    between atoms: C_16  and  S_17 
REMARK    4  A    between atoms: S_17  and  C_18 
REMARK    5  A    between atoms: C_21  and  C_22 
REMARK    6  A    between atoms: C_22  and  C_23 
REMARK    7  A    between atoms: N_28  and  C_29 
ROOT
ATOM      1  C   UNL d   1      26.002 -12.684  -5.305  0.00  0.00     0.180 C 
ENDROOT
BRANCH   1   2
ATOM      2  C   UNL d   1      25.318 -13.449  -4.178  0.00  0.00     0.229 C 
ATOM      3  N   UNL d   1      26.115 -13.954  -3.170  0.00  0.00    -0.330 N 
ATOM      4  H   UNL d   1      27.090 -14.174  -3.314  0.00  0.00     0.165 HD
ATOM      5  O   UNL d   1      24.118 -13.702  -4.221  0.00  0.00    -0.273 OA
BRANCH   3   6
ATOM      6  C   UNL d   1      25.476 -14.599  -2.047  0.00  0.00     0.264 A 
ATOM      7  O   UNL d   1      24.676 -15.682  -2.592  0.00  0.00    -0.353 OA
ATOM      8  C   UNL d   1      25.134 -16.945  -2.031  0.00  0.00     0.152 A 
ATOM      9  C   UNL d   1      26.325 -16.586  -1.215  0.00  0.00    -0.017 A 
ATOM     10  C   UNL d   1      24.007 -17.599  -1.231  0.00  0.00     0.044 C 
ATOM     11  C   UNL d   1      26.486 -15.265  -1.209  0.00  0.00     0.066 A 
ATOM     12  C   UNL d   1      27.224 -17.531  -0.503  0.00  0.00     0.105 C 
ATOM     13  C   UNL d   1      27.546 -14.663  -0.401  0.00  0.00     0.266 C 
ATOM     14  N   UNL d   1      28.470 -15.516   0.127  0.00  0.00    -0.287 N 
ATOM     15  O   UNL d   1      27.677 -13.464  -0.172  0.00  0.00    -0.266 OA
ATOM     16  N   UNL d   1      28.387 -16.908   0.149  0.00  0.00    -0.229 NA
ATOM     17  H   UNL d   1      29.151 -15.039   0.712  0.00  0.00     0.184 HD
ATOM     18  H   UNL d   1      29.246 -17.288  -0.246  0.00  0.00     0.147 HD
ATOM     19  C   UNL d   1      26.492 -18.276   0.604  0.00  0.00     0.033 C 
ENDBRANCH   3   6
ENDBRANCH   1   2
BRANCH   1  20
ATOM     20  S   UNL d   1      27.839 -12.908  -5.176  0.00  0.00    -0.118 SA
BRANCH  20  21
ATOM     21  C   UNL d   1      28.189 -14.601  -5.739  0.00  0.00     0.244 C 
ATOM     22  N   UNL d   1      27.327 -15.540  -5.020  0.00  0.00    -0.183 NA
ATOM     23  N   UNL d   1      27.872 -15.950  -3.835  0.00  0.00    -0.185 NA
ATOM     24  H   UNL d   1      26.342 -15.287  -4.969  0.00  0.00     0.152 HD
ATOM     25  C   UNL d   1      29.152 -15.743  -3.951  0.00  0.00     0.123 C 
ATOM     26  N   UNL d   1      29.463 -15.109  -5.215  0.00  0.00    -0.336 N 
BRANCH  25  27
ATOM     27  C   UNL d   1      30.196 -16.130  -2.922  0.00  0.00     0.126 C 
BRANCH  27  28
ATOM     28  C   UNL d   1      30.668 -17.544  -3.151  0.00  0.00    -0.011 A 
ATOM     29  C   UNL d   1      30.726 -18.211  -4.359  0.00  0.00     0.015 A 
ATOM     30  C   UNL d   1      31.049 -19.587  -4.212  0.00  0.00     0.008 A 
ATOM     31  C   UNL d   1      31.312 -19.915  -2.901  0.00  0.00     0.050 A 
ATOM     32  S   UNL d   1      31.157 -18.561  -1.861  0.00  0.00    -0.106 SA
ENDBRANCH  27  28
ENDBRANCH  25  27
BRANCH  26  33
ATOM     33  C   UNL d   1      30.739 -15.207  -5.926  0.00  0.00     0.088 C 
ATOM     34  C   UNL d   1      30.787 -16.360  -6.948  0.00  0.00     0.025 C 
ATOM     35  C   UNL d   1      32.082 -16.316  -7.783  0.00  0.00     0.002 C 
ATOM     36  C   UNL d   1      32.281 -14.967  -8.471  0.00  0.00     0.000 C 
ATOM     37  C   UNL d   1      32.257 -13.837  -7.448  0.00  0.00     0.002 C 
ATOM     38  C   UNL d   1      30.976 -13.894  -6.644  0.00  0.00     0.025 C 
ENDBRANCH  26  33
ENDBRANCH  20  21
ENDBRANCH   1  20
TORSDOF 7
ENDMDL
MODEL 8
REMARK VINA RESULT:    -6.749      2.561      6.347
REMARK INTER + INTRA:         -13.606
REMARK INTER:                  -8.838
REMARK INTRA:                  -4.768
REMARK CONF_INDEPENDENT:        2.088
REMARK UNBOUND:                -4.768
REMARK  7 active torsions:
REMARK  status: ('A' for Active; 'I' for Inactive)
REMARK    1  A    between atoms: C_12  and  N_13 
REMARK       I    between atoms: N_13  and  C_14 
REMARK    2  A    between atoms: C_14  and  C_16 
REMARK    3  A    between atoms: C_16  and  S_17 
REMARK    4  A    between atoms: S_17  and  C_18 
REMARK    5  A    between atoms: C_21  and  C_22 
REMARK    6  A    between atoms: C_22  and  C_23 
REMARK    7  A    between atoms: N_28  and  C_29 
ROOT
ATOM      1  C   UNL d   1      25.914 -12.457  -5.067  0.00  0.00     0.180 C 
ENDROOT
BRANCH   1   2
ATOM      2  C   UNL d   1      25.182 -13.355  -4.076  0.00  0.00     0.229 C 
ATOM      3  N   UNL d   1      25.909 -13.868  -3.019  0.00  0.00    -0.330 N 
ATOM      4  H   UNL d   1      26.909 -13.998  -3.066  0.00  0.00     0.165 HD
ATOM      5  O   UNL d   1      24.021 -13.700  -4.270  0.00  0.00    -0.273 OA
BRANCH   3   6
ATOM      6  C   UNL d   1      25.212 -14.644  -2.020  0.00  0.00     0.264 A 
ATOM      7  O   UNL d   1      24.695 -15.821  -2.695  0.00  0.00    -0.353 OA
ATOM      8  C   UNL d   1      25.258 -17.013  -2.077  0.00  0.00     0.152 A 
ATOM      9  C   UNL d   1      26.229 -16.497  -1.076  0.00  0.00    -0.017 A 
ATOM     10  C   UNL d   1      24.139 -17.866  -1.475  0.00  0.00     0.044 C 
ATOM     11  C   UNL d   1      26.170 -15.169  -1.033  0.00  0.00     0.066 A 
ATOM     12  C   UNL d   1      27.145 -17.311  -0.234  0.00  0.00     0.105 C 
ATOM     13  C   UNL d   1      26.976 -14.433  -0.060  0.00  0.00     0.266 C 
ATOM     14  N   UNL d   1      27.931 -15.146   0.605  0.00  0.00    -0.287 N 
ATOM     15  O   UNL d   1      26.873 -13.237   0.197  0.00  0.00    -0.266 OA
ATOM     16  N   UNL d   1      28.072 -16.534   0.603  0.00  0.00    -0.229 NA
ATOM     17  H   UNL d   1      28.423 -14.587   1.297  0.00  0.00     0.184 HD
ATOM     18  H   UNL d   1      29.033 -16.758   0.351  0.00  0.00     0.147 HD
ATOM     19  C   UNL d   1      26.376 -18.200   0.734  0.00  0.00     0.033 C 
ENDBRANCH   3   6
ENDBRANCH   1   2
BRANCH   1  20
ATOM     20  S   UNL d   1      27.689 -12.983  -5.182  0.00  0.00    -0.118 SA
BRANCH  20  21
ATOM     21  C   UNL d   1      27.673 -14.727  -5.695  0.00  0.00     0.244 C 
ATOM     22  N   UNL d   1      26.974 -15.524  -4.687  0.00  0.00    -0.183 NA
ATOM     23  N   UNL d   1      27.803 -15.950  -3.686  0.00  0.00    -0.185 NA
ATOM     24  H   UNL d   1      26.082 -15.150  -4.367  0.00  0.00     0.152 HD
ATOM     25  C   UNL d   1      29.004 -15.907  -4.189  0.00  0.00     0.123 C 
ATOM     26  N   UNL d   1      28.985 -15.366  -5.533  0.00  0.00    -0.336 N 
BRANCH  25  27
ATOM     27  C   UNL d   1      30.262 -16.377  -3.486  0.00  0.00     0.126 C 
BRANCH  27  28
ATOM     28  C   UNL d   1      30.412 -15.691  -2.152  0.00  0.00    -0.011 A 
ATOM     29  C   UNL d   1      30.176 -14.358  -1.876  0.00  0.00     0.015 A 
ATOM     30  C   UNL d   1      30.579 -13.988  -0.564  0.00  0.00     0.008 A 
ATOM     31  C   UNL d   1      31.034 -15.069   0.156  0.00  0.00     0.050 A 
ATOM     32  S   UNL d   1      30.978 -16.517  -0.761  0.00  0.00    -0.106 SA
ENDBRANCH  27  28
ENDBRANCH  25  27
BRANCH  26  33
ATOM     33  C   UNL d   1      29.971 -15.648  -6.578  0.00  0.00     0.088 C 
ATOM     34  C   UNL d   1      31.221 -14.750  -6.502  0.00  0.00     0.025 C 
ATOM     35  C   UNL d   1      32.294 -15.197  -7.514  0.00  0.00     0.002 C 
ATOM     36  C   UNL d   1      32.667 -16.669  -7.351  0.00  0.00     0.000 C 
ATOM     37  C   UNL d   1      31.426 -17.549  -7.452  0.00  0.00     0.002 C 
ATOM     38  C   UNL d   1      30.388 -17.098  -6.447  0.00  0.00     0.025 C 
ENDBRANCH  26  33
ENDBRANCH  20  21
ENDBRANCH   1  20
TORSDOF 7
ENDMDL
MODEL 9
REMARK VINA RESULT:    -6.739      3.768      6.111
REMARK INTER + INTRA:         -13.487
REMARK INTER:                  -8.827
REMARK INTRA:                  -4.659
REMARK CONF_INDEPENDENT:        2.088
REMARK UNBOUND:                -4.659
REMARK  7 active torsions:
REMARK  status: ('A' for Active; 'I' for Inactive)
REMARK    1  A    between atoms: C_12  and  N_13 
REMARK       I    between atoms: N_13  and  C_14 
REMARK    2  A    between atoms: C_14  and  C_16 
REMARK    3  A    between atoms: C_16  and  S_17 
REMARK    4  A    between atoms: S_17  and  C_18 
REMARK    5  A    between atoms: C_21  and  C_22 
REMARK    6  A    between atoms: C_22  and  C_23 
REMARK    7  A    between atoms: N_28  and  C_29 
ROOT
ATOM      1  C   UNL d   1      27.224 -11.518   1.782  0.00  0.00     0.180 C 
ENDROOT
BRANCH   1   2
ATOM      2  C   UNL d   1      27.723 -10.614   0.660  0.00  0.00     0.229 C 
ATOM      3  N   UNL d   1      28.166 -11.218  -0.500  0.00  0.00    -0.330 N 
ATOM      4  H   UNL d   1      28.522 -12.163  -0.514  0.00  0.00     0.165 HD
ATOM      5  O   UNL d   1      27.833  -9.403   0.823  0.00  0.00    -0.273 OA
BRANCH   3   6
ATOM      6  C   UNL d   1      28.555 -10.376  -1.607  0.00  0.00     0.264 A 
ATOM      7  O   UNL d   1      29.399 -11.186  -2.468  0.00  0.00    -0.353 OA
ATOM      8  C   UNL d   1      28.791 -11.274  -3.788  0.00  0.00     0.152 A 
ATOM      9  C   UNL d   1      27.483 -10.580  -3.649  0.00  0.00    -0.017 A 
ATOM     10  C   UNL d   1      29.719 -10.650  -4.832  0.00  0.00     0.044 C 
ATOM     11  C   UNL d   1      27.379 -10.055  -2.431  0.00  0.00     0.066 A 
ATOM     12  C   UNL d   1      26.428 -10.469  -4.690  0.00  0.00     0.105 C 
ATOM     13  C   UNL d   1      26.211  -9.247  -2.082  0.00  0.00     0.266 C 
ATOM     14  N   UNL d   1      25.169  -9.268  -2.964  0.00  0.00    -0.287 N 
ATOM     15  O   UNL d   1      26.087  -8.568  -1.068  0.00  0.00    -0.266 OA
ATOM     16  N   UNL d   1      25.190  -9.808  -4.250  0.00  0.00    -0.229 NA
ATOM     17  H   UNL d   1      24.410  -8.652  -2.684  0.00  0.00     0.184 HD
ATOM     18  H   UNL d   1      24.406 -10.452  -4.340  0.00  0.00     0.147 HD
ATOM     19  C   UNL d   1      26.907  -9.668  -5.893  0.00  0.00     0.033 C 
ENDBRANCH   3   6
ENDBRANCH   1   2
BRANCH   1  20
ATOM     20  S   UNL d   1      26.281 -12.940   1.053  0.00  0.00    -0.118 SA
BRANCH  20  21
ATOM     21  C   UNL d   1      27.427 -14.350   1.021  0.00  0.00     0.244 C 
ATOM     22  N   UNL d   1      28.802 -13.858   0.925  0.00  0.00    -0.183 NA
ATOM     23  N   UNL d   1      29.199 -13.659  -0.369  0.00  0.00    -0.185 NA
ATOM     24  H   UNL d   1      29.048 -13.104   1.564  0.00  0.00     0.152 HD
ATOM     25  C   UNL d   1      28.409 -14.400  -1.092  0.00  0.00     0.123 C 
ATOM     26  N   UNL d   1      27.411 -15.051  -0.269  0.00  0.00    -0.336 N 
BRANCH  25  27
ATOM     27  C   UNL d   1      28.520 -14.587  -2.592  0.00  0.00     0.126 C 
BRANCH  27  28
ATOM     28  C   UNL d   1      27.201 -14.294  -3.262  0.00  0.00    -0.011 A 
ATOM     29  C   UNL d   1      26.220 -13.431  -2.814  0.00  0.00     0.015 A 
ATOM     30  C   UNL d   1      25.025 -13.513  -3.580  0.00  0.00     0.008 A 
ATOM     31  C   UNL d   1      25.156 -14.375  -4.644  0.00  0.00     0.050 A 
ATOM     32  S   UNL d   1      26.717 -15.083  -4.704  0.00  0.00    -0.106 SA
ENDBRANCH  27  28
ENDBRANCH  25  27
BRANCH  26  33
ATOM     33  C   UNL d   1      26.735 -16.311  -0.587  0.00  0.00     0.088 C 
ATOM     34  C   UNL d   1      26.779 -17.339   0.561  0.00  0.00     0.025 C 
ATOM     35  C   UNL d   1      25.916 -18.574   0.240  0.00  0.00     0.002 C 
ATOM     36  C   UNL d   1      24.476 -18.200  -0.105  0.00  0.00     0.000 C 
ATOM     37  C   UNL d   1      24.444 -17.203  -1.257  0.00  0.00     0.002 C 
ATOM     38  C   UNL d   1      25.292 -15.995  -0.920  0.00  0.00     0.025 C 
ENDBRANCH  26  33
ENDBRANCH  20  21
ENDBRANCH   1  20
TORSDOF 7
ENDMDL
