MODEL 1
REMARK VINA RESULT:   -10.750      0.000      0.000
REMARK INTER + INTRA:         -16.886
REMARK INTER:                 -14.926
REMARK INTRA:                  -1.959
REMARK CONF_INDEPENDENT:        4.176
REMARK UNBOUND:                -1.959
REMARK  14 active torsions:
REMARK  status: ('A' for Active; 'I' for Inactive)
REMARK    1  A    between atoms: C_2  and  N_3 
REMARK    2  A    between atoms: N_3  and  C_4 
REMARK    3  A    between atoms: N_3  and  C_6 
REMARK    4  A    between atoms: C_6  and  C_7 
REMARK    5  A    between atoms: C_7  and  N_8 
REMARK       I    between atoms: N_8  and  C_9 
REMARK    6  A    between atoms: C_9  and  C_11 
REMARK    7  A    between atoms: C_14  and  N_15 
REMARK    8  A    between atoms: N_15  and  C_16 
REMARK    9  A    between atoms: C_16  and  N_18 
REMARK       I    between atoms: N_18  and  C_19 
REMARK   10  A    between atoms: C_19  and  C_21 
REMARK   11  A    between atoms: C_25  and  O_26 
REMARK   12  A    between atoms: O_26  and  C_27 
REMARK   13  A    between atoms: C_27  and  C_28 
REMARK   14  A    between atoms: C_28  and  C_29 
ROOT
ATOM      1  C   UNL d   1      27.917 -13.634   1.756  0.00  0.00     0.179 C 
ATOM      2  S   UNL d   1      27.813 -11.945   1.686  0.00  0.00    -0.040 SA
ENDROOT
BRANCH   1   3
ATOM      3  N   UNL d   1      28.857 -14.381   2.540  0.00  0.00    -0.333 N 
ATOM      4  H   UNL d   1      29.266 -15.225   2.146  0.00  0.00     0.168 HD
BRANCH   3   5
ATOM      5  C   UNL d   1      29.218 -14.135   3.939  0.00  0.00     0.034 A 
ATOM      6  C   UNL d   1      28.647 -14.820   5.026  0.00  0.00     0.030 A 
ATOM      7  C   UNL d   1      28.960 -14.444   6.372  0.00  0.00     0.019 A 
ATOM      8  C   UNL d   1      29.871 -13.413   6.645  0.00  0.00     0.032 A 
ATOM      9  C   UNL d   1      30.471 -12.774   5.594  0.00  0.00     0.019 A 
ATOM     10  C   UNL d   1      30.168 -13.179   4.306  0.00  0.00     0.030 A 
BRANCH   8  11
ATOM     11  C   UNL d   1      30.371 -13.080   8.001  0.00  0.00     0.251 C 
ATOM     12  N   UNL d   1      31.757 -13.087   8.159  0.00  0.00    -0.355 N 
ATOM     13  H   UNL d   1      32.348 -13.188   7.340  0.00  0.00     0.162 HD
ATOM     14  O   UNL d   1      29.603 -12.859   8.915  0.00  0.00    -0.268 OA
BRANCH  12  15
ATOM     15  C   UNL d   1      32.309 -12.765   9.454  0.00  0.00     0.150 C 
BRANCH  15  16
ATOM     16  C   UNL d   1      33.626 -13.486   9.773  0.00  0.00     0.254 C 
BRANCH  16  17
ATOM     17  N   UNL d   1      33.496 -15.025   9.754  0.00  0.00    -0.070 N 
ATOM     18  H   UNL d   1      33.893 -15.344   8.857  0.00  0.00     0.279 HD
BRANCH  17  19
ATOM     19  C   UNL d   1      34.361 -15.588  10.879  0.00  0.00     0.230 C 
ATOM     20  C   UNL d   1      35.557 -16.382  10.393  0.00  0.00     0.034 C 
ENDBRANCH  17  19
BRANCH  17  21
ATOM     21  C   UNL d   1      32.028 -15.426   9.808  0.00  0.00     0.230 C 
ATOM     22  C   UNL d   1      31.556 -15.899  11.164  0.00  0.00     0.034 C 
ENDBRANCH  17  21
ENDBRANCH  16  17
ENDBRANCH  15  16
ENDBRANCH  12  15
ENDBRANCH   8  11
ENDBRANCH   3   5
ENDBRANCH   1   3
BRANCH   1  23
ATOM     23  N   UNL d   1      26.996 -14.394   1.000  0.00  0.00    -0.299 N 
ATOM     24  C   UNL d   1      27.343 -15.628   0.389  0.00  0.00     0.257 C 
ATOM     25  O   UNL d   1      28.435 -16.196   0.423  0.00  0.00    -0.267 OA
ATOM     26  H   UNL d   1      26.046 -14.070   0.886  0.00  0.00     0.171 HD
BRANCH  24  27
ATOM     27  C   UNL d   1      26.402 -16.387  -0.427  0.00  0.00     0.035 A 
ATOM     28  C   UNL d   1      25.899 -15.770  -1.588  0.00  0.00     0.017 A 
ATOM     29  C   UNL d   1      24.785 -16.293  -2.234  0.00  0.00     0.004 A 
ATOM     30  C   UNL d   1      24.211 -17.466  -1.753  0.00  0.00     0.037 A 
ATOM     31  C   UNL d   1      24.699 -18.066  -0.586  0.00  0.00     0.069 A 
ATOM     32  C   UNL d   1      25.788 -17.510   0.091  0.00  0.00     0.053 A 
BRANCH  31  33
ATOM     33  O   UNL d   1      24.021 -19.177  -0.165  0.00  0.00    -0.351 OA
BRANCH  33  34
ATOM     34  C   UNL d   1      22.702 -19.286  -0.699  0.00  0.00     0.180 C 
BRANCH  34  35
ATOM     35  C   UNL d   1      21.726 -18.572   0.211  0.00  0.00     0.065 C 
BRANCH  35  36
ATOM     36  C   UNL d   1      20.573 -19.461   0.603  0.00  0.00    -0.056 A 
ATOM     37  C   UNL d   1      19.723 -19.971  -0.381  0.00  0.00     0.007 A 
ATOM     38  C   UNL d   1      18.558 -20.645  -0.018  0.00  0.00     0.001 A 
ATOM     39  C   UNL d   1      18.285 -20.900   1.325  0.00  0.00     0.000 A 
ATOM     40  C   UNL d   1      19.152 -20.442   2.312  0.00  0.00     0.001 A 
ATOM     41  C   UNL d   1      20.283 -19.712   1.954  0.00  0.00     0.007 A 
ENDBRANCH  35  36
ENDBRANCH  34  35
ENDBRANCH  33  34
ENDBRANCH  31  33
ENDBRANCH  24  27
ENDBRANCH   1  23
TORSDOF 14
ENDMDL
MODEL 2
REMARK VINA RESULT:   -10.625      7.721     12.801
REMARK INTER + INTRA:         -16.085
REMARK INTER:                 -14.802
REMARK INTRA:                  -1.283
REMARK CONF_INDEPENDENT:        4.176
REMARK UNBOUND:                -1.283
REMARK  14 active torsions:
REMARK  status: ('A' for Active; 'I' for Inactive)
REMARK    1  A    between atoms: C_2  and  N_3 
REMARK    2  A    between atoms: N_3  and  C_4 
REMARK    3  A    between atoms: N_3  and  C_6 
REMARK    4  A    between atoms: C_6  and  C_7 
REMARK    5  A    between atoms: C_7  and  N_8 
REMARK       I    between atoms: N_8  and  C_9 
REMARK    6  A    between atoms: C_9  and  C_11 
REMARK    7  A    between atoms: C_14  and  N_15 
REMARK    8  A    between atoms: N_15  and  C_16 
REMARK    9  A    between atoms: C_16  and  N_18 
REMARK       I    between atoms: N_18  and  C_19 
REMARK   10  A    between atoms: C_19  and  C_21 
REMARK   11  A    between atoms: C_25  and  O_26 
REMARK   12  A    between atoms: O_26  and  C_27 
REMARK   13  A    between atoms: C_27  and  C_28 
REMARK   14  A    between atoms: C_28  and  C_29 
ROOT
ATOM      1  C   UNL d   1      26.152 -12.377  -3.601  0.00  0.00     0.179 C 
ATOM      2  S   UNL d   1      26.822 -12.925  -5.058  0.00  0.00    -0.040 SA
ENDROOT
BRANCH   1   3
ATOM      3  N   UNL d   1      25.773 -11.024  -3.314  0.00  0.00    -0.333 N 
ATOM      4  H   UNL d   1      25.636 -10.746  -2.345  0.00  0.00     0.168 HD
BRANCH   3   5
ATOM      5  C   UNL d   1      25.422  -9.989  -4.292  0.00  0.00     0.034 A 
ATOM      6  C   UNL d   1      25.534 -10.159  -5.683  0.00  0.00     0.030 A 
ATOM      7  C   UNL d   1      25.288  -9.065  -6.574  0.00  0.00     0.019 A 
ATOM      8  C   UNL d   1      24.891  -7.809  -6.091  0.00  0.00     0.032 A 
ATOM      9  C   UNL d   1      24.730  -7.649  -4.741  0.00  0.00     0.019 A 
ATOM     10  C   UNL d   1      24.949  -8.732  -3.909  0.00  0.00     0.030 A 
BRANCH   8  11
ATOM     11  C   UNL d   1      24.457  -6.683  -6.952  0.00  0.00     0.251 C 
ATOM     12  N   UNL d   1      23.393  -6.949  -7.815  0.00  0.00    -0.355 N 
ATOM     13  H   UNL d   1      22.895  -7.828  -7.729  0.00  0.00     0.162 HD
ATOM     14  O   UNL d   1      25.033  -5.614  -6.922  0.00  0.00    -0.268 OA
BRANCH  12  15
ATOM     15  C   UNL d   1      22.918  -5.891  -8.676  0.00  0.00     0.150 C 
BRANCH  15  16
ATOM     16  C   UNL d   1      21.451  -5.504  -8.444  0.00  0.00     0.254 C 
BRANCH  16  17
ATOM     17  N   UNL d   1      20.670  -6.547  -7.616  0.00  0.00    -0.070 N 
ATOM     18  H   UNL d   1      21.129  -7.457  -7.777  0.00  0.00     0.279 HD
BRANCH  17  19
ATOM     19  C   UNL d   1      20.826  -6.195  -6.139  0.00  0.00     0.230 C 
ATOM     20  C   UNL d   1      19.912  -5.078  -5.676  0.00  0.00     0.034 C 
ENDBRANCH  17  19
BRANCH  17  21
ATOM     21  C   UNL d   1      19.231  -6.633  -8.108  0.00  0.00     0.230 C 
ATOM     22  C   UNL d   1      18.404  -7.711  -7.447  0.00  0.00     0.034 C 
ENDBRANCH  17  21
ENDBRANCH  16  17
ENDBRANCH  15  16
ENDBRANCH  12  15
ENDBRANCH   8  11
ENDBRANCH   3   5
ENDBRANCH   1   3
BRANCH   1  23
ATOM     23  N   UNL d   1      25.922 -13.318  -2.573  0.00  0.00    -0.299 N 
ATOM     24  C   UNL d   1      25.441 -14.629  -2.831  0.00  0.00     0.257 C 
ATOM     25  O   UNL d   1      25.167 -15.121  -3.925  0.00  0.00    -0.267 OA
ATOM     26  H   UNL d   1      26.112 -13.073  -1.611  0.00  0.00     0.171 HD
BRANCH  24  27
ATOM     27  C   UNL d   1      25.165 -15.583  -1.762  0.00  0.00     0.035 A 
ATOM     28  C   UNL d   1      26.258 -16.265  -1.196  0.00  0.00     0.017 A 
ATOM     29  C   UNL d   1      26.052 -17.391  -0.409  0.00  0.00     0.004 A 
ATOM     30  C   UNL d   1      24.750 -17.801  -0.141  0.00  0.00     0.037 A 
ATOM     31  C   UNL d   1      23.664 -17.135  -0.723  0.00  0.00     0.069 A 
ATOM     32  C   UNL d   1      23.876 -16.033  -1.554  0.00  0.00     0.053 A 
BRANCH  31  33
ATOM     33  O   UNL d   1      22.432 -17.661  -0.445  0.00  0.00    -0.351 OA
BRANCH  33  34
ATOM     34  C   UNL d   1      22.154 -18.880  -1.133  0.00  0.00     0.180 C 
BRANCH  34  35
ATOM     35  C   UNL d   1      20.657 -19.056  -1.268  0.00  0.00     0.065 C 
BRANCH  35  36
ATOM     36  C   UNL d   1      20.055 -19.687  -0.039  0.00  0.00    -0.056 A 
ATOM     37  C   UNL d   1      18.888 -20.449  -0.149  0.00  0.00     0.007 A 
ATOM     38  C   UNL d   1      18.228 -20.887   0.998  0.00  0.00     0.001 A 
ATOM     39  C   UNL d   1      18.780 -20.653   2.257  0.00  0.00     0.000 A 
ATOM     40  C   UNL d   1      19.969 -19.941   2.376  0.00  0.00     0.001 A 
ATOM     41  C   UNL d   1      20.595 -19.447   1.235  0.00  0.00     0.007 A 
ENDBRANCH  35  36
ENDBRANCH  34  35
ENDBRANCH  33  34
ENDBRANCH  31  33
ENDBRANCH  24  27
ENDBRANCH   1  23
TORSDOF 14
ENDMDL
MODEL 3
REMARK VINA RESULT:   -10.177      1.159      1.877
REMARK INTER + INTRA:         -16.362
REMARK INTER:                 -14.353
REMARK INTRA:                  -2.009
REMARK CONF_INDEPENDENT:        4.176
REMARK UNBOUND:                -2.009
REMARK  14 active torsions:
REMARK  status: ('A' for Active; 'I' for Inactive)
REMARK    1  A    between atoms: C_2  and  N_3 
REMARK    2  A    between atoms: N_3  and  C_4 
REMARK    3  A    between atoms: N_3  and  C_6 
REMARK    4  A    between atoms: C_6  and  C_7 
REMARK    5  A    between atoms: C_7  and  N_8 
REMARK       I    between atoms: N_8  and  C_9 
REMARK    6  A    between atoms: C_9  and  C_11 
REMARK    7  A    between atoms: C_14  and  N_15 
REMARK    8  A    between atoms: N_15  and  C_16 
REMARK    9  A    between atoms: C_16  and  N_18 
REMARK       I    between atoms: N_18  and  C_19 
REMARK   10  A    between atoms: C_19  and  C_21 
REMARK   11  A    between atoms: C_25  and  O_26 
REMARK   12  A    between atoms: O_26  and  C_27 
REMARK   13  A    between atoms: C_27  and  C_28 
REMARK   14  A    between atoms: C_28  and  C_29 
ROOT
ATOM      1  C   UNL d   1      27.894 -13.575   1.993  0.00  0.00     0.179 C 
ATOM      2  S   UNL d   1      27.937 -11.882   1.985  0.00  0.00    -0.040 SA
ENDROOT
BRANCH   1   3
ATOM      3  N   UNL d   1      28.700 -14.427   2.819  0.00  0.00    -0.333 N 
ATOM      4  H   UNL d   1      28.956 -15.349   2.473  0.00  0.00     0.168 HD
BRANCH   3   5
ATOM      5  C   UNL d   1      29.107 -14.170   4.203  0.00  0.00     0.034 A 
ATOM      6  C   UNL d   1      28.563 -14.837   5.315  0.00  0.00     0.030 A 
ATOM      7  C   UNL d   1      28.921 -14.450   6.646  0.00  0.00     0.019 A 
ATOM      8  C   UNL d   1      29.851 -13.426   6.880  0.00  0.00     0.032 A 
ATOM      9  C   UNL d   1      30.425 -12.806   5.803  0.00  0.00     0.019 A 
ATOM     10  C   UNL d   1      30.078 -13.221   4.530  0.00  0.00     0.030 A 
BRANCH   8  11
ATOM     11  C   UNL d   1      30.398 -13.085   8.215  0.00  0.00     0.251 C 
ATOM     12  N   UNL d   1      31.744 -13.387   8.420  0.00  0.00    -0.355 N 
ATOM     13  H   UNL d   1      32.306 -13.697   7.634  0.00  0.00     0.162 HD
ATOM     14  O   UNL d   1      29.689 -12.609   9.078  0.00  0.00    -0.268 OA
BRANCH  12  15
ATOM     15  C   UNL d   1      32.338 -13.073   9.698  0.00  0.00     0.150 C 
BRANCH  15  16
ATOM     16  C   UNL d   1      33.857 -12.857   9.648  0.00  0.00     0.254 C 
BRANCH  16  17
ATOM     17  N   UNL d   1      34.438 -12.944   8.220  0.00  0.00    -0.070 N 
ATOM     18  H   UNL d   1      33.928 -13.700   7.738  0.00  0.00     0.279 HD
BRANCH  17  19
ATOM     19  C   UNL d   1      34.127 -11.634   7.500  0.00  0.00     0.230 C 
ATOM     20  C   UNL d   1      34.507 -11.636   6.033  0.00  0.00     0.034 C 
ENDBRANCH  17  19
BRANCH  17  21
ATOM     21  C   UNL d   1      35.915 -13.311   8.278  0.00  0.00     0.230 C 
ATOM     22  C   UNL d   1      36.245 -14.436   9.231  0.00  0.00     0.034 C 
ENDBRANCH  17  21
ENDBRANCH  16  17
ENDBRANCH  15  16
ENDBRANCH  12  15
ENDBRANCH   8  11
ENDBRANCH   3   5
ENDBRANCH   1   3
BRANCH   1  23
ATOM     23  N   UNL d   1      26.981 -14.226   1.133  0.00  0.00    -0.299 N 
ATOM     24  C   UNL d   1      27.240 -15.503   0.569  0.00  0.00     0.257 C 
ATOM     25  O   UNL d   1      28.240 -16.202   0.733  0.00  0.00    -0.267 OA
ATOM     26  H   UNL d   1      26.099 -13.788   0.906  0.00  0.00     0.171 HD
BRANCH  24  27
ATOM     27  C   UNL d   1      26.313 -16.152  -0.353  0.00  0.00     0.035 A 
ATOM     28  C   UNL d   1      25.778 -15.373  -1.396  0.00  0.00     0.017 A 
ATOM     29  C   UNL d   1      24.674 -15.822  -2.111  0.00  0.00     0.004 A 
ATOM     30  C   UNL d   1      24.142 -17.075  -1.821  0.00  0.00     0.037 A 
ATOM     31  C   UNL d   1      24.662 -17.838  -0.769  0.00  0.00     0.069 A 
ATOM     32  C   UNL d   1      25.741 -17.363  -0.018  0.00  0.00     0.053 A 
BRANCH  31  33
ATOM     33  O   UNL d   1      24.024 -19.024  -0.528  0.00  0.00    -0.351 OA
BRANCH  33  34
ATOM     34  C   UNL d   1      22.621 -18.988  -0.786  0.00  0.00     0.180 C 
BRANCH  34  35
ATOM     35  C   UNL d   1      21.885 -18.575   0.471  0.00  0.00     0.065 C 
BRANCH  35  36
ATOM     36  C   UNL d   1      20.665 -19.428   0.710  0.00  0.00    -0.056 A 
ATOM     37  C   UNL d   1      19.870 -19.823  -0.370  0.00  0.00     0.007 A 
ATOM     38  C   UNL d   1      18.650 -20.458  -0.145  0.00  0.00     0.001 A 
ATOM     39  C   UNL d   1      18.262 -20.791   1.152  0.00  0.00     0.000 A 
ATOM     40  C   UNL d   1      19.070 -20.449   2.232  0.00  0.00     0.001 A 
ATOM     41  C   UNL d   1      20.258 -19.757   2.014  0.00  0.00     0.007 A 
ENDBRANCH  35  36
ENDBRANCH  34  35
ENDBRANCH  33  34
ENDBRANCH  31  33
ENDBRANCH  24  27
ENDBRANCH   1  23
TORSDOF 14
ENDMDL
MODEL 4
REMARK VINA RESULT:    -9.796      1.497      2.308
REMARK INTER + INTRA:         -16.940
REMARK INTER:                 -13.972
REMARK INTRA:                  -2.967
REMARK CONF_INDEPENDENT:        4.176
REMARK UNBOUND:                -2.967
REMARK  14 active torsions:
REMARK  status: ('A' for Active; 'I' for Inactive)
REMARK    1  A    between atoms: C_2  and  N_3 
REMARK    2  A    between atoms: N_3  and  C_4 
REMARK    3  A    between atoms: N_3  and  C_6 
REMARK    4  A    between atoms: C_6  and  C_7 
REMARK    5  A    between atoms: C_7  and  N_8 
REMARK       I    between atoms: N_8  and  C_9 
REMARK    6  A    between atoms: C_9  and  C_11 
REMARK    7  A    between atoms: C_14  and  N_15 
REMARK    8  A    between atoms: N_15  and  C_16 
REMARK    9  A    between atoms: C_16  and  N_18 
REMARK       I    between atoms: N_18  and  C_19 
REMARK   10  A    between atoms: C_19  and  C_21 
REMARK   11  A    between atoms: C_25  and  O_26 
REMARK   12  A    between atoms: O_26  and  C_27 
REMARK   13  A    between atoms: C_27  and  C_28 
REMARK   14  A    between atoms: C_28  and  C_29 
ROOT
ATOM      1  C   UNL d   1      28.030 -13.567   1.717  0.00  0.00     0.179 C 
ATOM      2  S   UNL d   1      28.086 -11.880   1.579  0.00  0.00    -0.040 SA
ENDROOT
BRANCH   1   3
ATOM      3  N   UNL d   1      28.805 -14.357   2.631  0.00  0.00    -0.333 N 
ATOM      4  H   UNL d   1      29.262 -15.199   2.289  0.00  0.00     0.168 HD
BRANCH   3   5
ATOM      5  C   UNL d   1      28.917 -14.157   4.078  0.00  0.00     0.034 A 
ATOM      6  C   UNL d   1      30.038 -14.540   4.836  0.00  0.00     0.030 A 
ATOM      7  C   UNL d   1      30.029 -14.424   6.263  0.00  0.00     0.019 A 
ATOM      8  C   UNL d   1      28.924 -13.889   6.942  0.00  0.00     0.032 A 
ATOM      9  C   UNL d   1      27.849 -13.465   6.209  0.00  0.00     0.019 A 
ATOM     10  C   UNL d   1      27.899 -13.567   4.830  0.00  0.00     0.030 A 
BRANCH   8  11
ATOM     11  C   UNL d   1      28.905 -13.581   8.392  0.00  0.00     0.251 C 
ATOM     12  N   UNL d   1      28.604 -14.647   9.240  0.00  0.00    -0.355 N 
ATOM     13  H   UNL d   1      28.540 -15.583   8.854  0.00  0.00     0.162 HD
ATOM     14  O   UNL d   1      29.103 -12.452   8.795  0.00  0.00    -0.268 OA
BRANCH  12  15
ATOM     15  C   UNL d   1      28.577 -14.413  10.665  0.00  0.00     0.150 C 
BRANCH  15  16
ATOM     16  C   UNL d   1      29.936 -14.590  11.356  0.00  0.00     0.254 C 
BRANCH  16  17
ATOM     17  N   UNL d   1      30.954 -13.490  10.987  0.00  0.00    -0.070 N 
ATOM     18  H   UNL d   1      30.563 -12.983  10.177  0.00  0.00     0.279 HD
BRANCH  17  19
ATOM     19  C   UNL d   1      31.042 -12.512  12.156  0.00  0.00     0.230 C 
ATOM     20  C   UNL d   1      29.882 -11.540  12.230  0.00  0.00     0.034 C 
ENDBRANCH  17  19
BRANCH  17  21
ATOM     21  C   UNL d   1      32.277 -14.120  10.574  0.00  0.00     0.230 C 
ATOM     22  C   UNL d   1      32.167 -15.150   9.474  0.00  0.00     0.034 C 
ENDBRANCH  17  21
ENDBRANCH  16  17
ENDBRANCH  15  16
ENDBRANCH  12  15
ENDBRANCH   8  11
ENDBRANCH   3   5
ENDBRANCH   1   3
BRANCH   1  23
ATOM     23  N   UNL d   1      27.138 -14.279   0.884  0.00  0.00    -0.299 N 
ATOM     24  C   UNL d   1      27.393 -15.606   0.448  0.00  0.00     0.257 C 
ATOM     25  O   UNL d   1      28.371 -16.303   0.715  0.00  0.00    -0.267 OA
ATOM     26  H   UNL d   1      26.275 -13.849   0.583  0.00  0.00     0.171 HD
BRANCH  24  27
ATOM     27  C   UNL d   1      26.489 -16.321  -0.448  0.00  0.00     0.035 A 
ATOM     28  C   UNL d   1      26.383 -15.857  -1.773  0.00  0.00     0.017 A 
ATOM     29  C   UNL d   1      25.334 -16.279  -2.581  0.00  0.00     0.004 A 
ATOM     30  C   UNL d   1      24.427 -17.209  -2.083  0.00  0.00     0.037 A 
ATOM     31  C   UNL d   1      24.522 -17.652  -0.759  0.00  0.00     0.069 A 
ATOM     32  C   UNL d   1      25.548 -17.188   0.069  0.00  0.00     0.053 A 
BRANCH  31  33
ATOM     33  O   UNL d   1      23.541 -18.515  -0.353  0.00  0.00    -0.351 OA
BRANCH  33  34
ATOM     34  C   UNL d   1      22.243 -17.927  -0.289  0.00  0.00     0.180 C 
BRANCH  34  35
ATOM     35  C   UNL d   1      21.246 -18.818  -0.999  0.00  0.00     0.065 C 
BRANCH  35  36
ATOM     36  C   UNL d   1      20.247 -19.415  -0.041  0.00  0.00    -0.056 A 
ATOM     37  C   UNL d   1      20.502 -19.392   1.333  0.00  0.00     0.007 A 
ATOM     38  C   UNL d   1      19.676 -20.093   2.209  0.00  0.00     0.001 A 
ATOM     39  C   UNL d   1      18.535 -20.739   1.733  0.00  0.00     0.000 A 
ATOM     40  C   UNL d   1      18.243 -20.724   0.373  0.00  0.00     0.001 A 
ATOM     41  C   UNL d   1      19.103 -20.079  -0.512  0.00  0.00     0.007 A 
ENDBRANCH  35  36
ENDBRANCH  34  35
ENDBRANCH  33  34
ENDBRANCH  31  33
ENDBRANCH  24  27
ENDBRANCH   1  23
TORSDOF 14
ENDMDL
MODEL 5
REMARK VINA RESULT:    -9.700      5.457      7.131
REMARK INTER + INTRA:         -15.924
REMARK INTER:                 -13.876
REMARK INTRA:                  -2.047
REMARK CONF_INDEPENDENT:        4.176
REMARK UNBOUND:                -2.047
REMARK  14 active torsions:
REMARK  status: ('A' for Active; 'I' for Inactive)
REMARK    1  A    between atoms: C_2  and  N_3 
REMARK    2  A    between atoms: N_3  and  C_4 
REMARK    3  A    between atoms: N_3  and  C_6 
REMARK    4  A    between atoms: C_6  and  C_7 
REMARK    5  A    between atoms: C_7  and  N_8 
REMARK       I    between atoms: N_8  and  C_9 
REMARK    6  A    between atoms: C_9  and  C_11 
REMARK    7  A    between atoms: C_14  and  N_15 
REMARK    8  A    between atoms: N_15  and  C_16 
REMARK    9  A    between atoms: C_16  and  N_18 
REMARK       I    between atoms: N_18  and  C_19 
REMARK   10  A    between atoms: C_19  and  C_21 
REMARK   11  A    between atoms: C_25  and  O_26 
REMARK   12  A    between atoms: O_26  and  C_27 
REMARK   13  A    between atoms: C_27  and  C_28 
REMARK   14  A    between atoms: C_28  and  C_29 
ROOT
ATOM      1  C   UNL d   1      26.358 -14.361  -4.358  0.00  0.00     0.179 C 
ATOM      2  S   UNL d   1      25.333 -13.067  -4.738  0.00  0.00    -0.040 SA
ENDROOT
BRANCH   1   3
ATOM      3  N   UNL d   1      27.690 -14.546  -4.856  0.00  0.00    -0.333 N 
ATOM      4  H   UNL d   1      27.952 -14.106  -5.736  0.00  0.00     0.168 HD
BRANCH   3   5
ATOM      5  C   UNL d   1      28.718 -15.426  -4.295  0.00  0.00     0.034 A 
ATOM      6  C   UNL d   1      29.373 -16.431  -5.029  0.00  0.00     0.030 A 
ATOM      7  C   UNL d   1      30.280 -17.333  -4.384  0.00  0.00     0.019 A 
ATOM      8  C   UNL d   1      30.571 -17.217  -3.017  0.00  0.00     0.032 A 
ATOM      9  C   UNL d   1      29.978 -16.209  -2.305  0.00  0.00     0.019 A 
ATOM     10  C   UNL d   1      29.128 -15.338  -2.962  0.00  0.00     0.030 A 
BRANCH   8  11
ATOM     11  C   UNL d   1      31.620 -17.999  -2.318  0.00  0.00     0.251 C 
ATOM     12  N   UNL d   1      31.181 -18.817  -1.278  0.00  0.00    -0.355 N 
ATOM     13  H   UNL d   1      30.184 -18.938  -1.131  0.00  0.00     0.162 HD
ATOM     14  O   UNL d   1      32.790 -17.888  -2.623  0.00  0.00    -0.268 OA
BRANCH  12  15
ATOM     15  C   UNL d   1      32.152 -19.610  -0.562  0.00  0.00     0.150 C 
BRANCH  15  16
ATOM     16  C   UNL d   1      33.040 -18.802   0.396  0.00  0.00     0.254 C 
BRANCH  16  17
ATOM     17  N   UNL d   1      32.264 -18.219   1.597  0.00  0.00    -0.070 N 
ATOM     18  H   UNL d   1      31.265 -18.404   1.423  0.00  0.00     0.279 HD
BRANCH  17  19
ATOM     19  C   UNL d   1      32.676 -18.992   2.847  0.00  0.00     0.230 C 
ATOM     20  C   UNL d   1      32.302 -20.461   2.810  0.00  0.00     0.034 C 
ENDBRANCH  17  19
BRANCH  17  21
ATOM     21  C   UNL d   1      32.476 -16.713   1.674  0.00  0.00     0.230 C 
ATOM     22  C   UNL d   1      32.300 -15.986   0.361  0.00  0.00     0.034 C 
ENDBRANCH  17  21
ENDBRANCH  16  17
ENDBRANCH  15  16
ENDBRANCH  12  15
ENDBRANCH   8  11
ENDBRANCH   3   5
ENDBRANCH   1   3
BRANCH   1  23
ATOM     23  N   UNL d   1      25.889 -15.346  -3.460  0.00  0.00    -0.299 N 
ATOM     24  C   UNL d   1      25.979 -15.202  -2.051  0.00  0.00     0.257 C 
ATOM     25  O   UNL d   1      26.450 -14.251  -1.427  0.00  0.00    -0.267 OA
ATOM     26  H   UNL d   1      25.459 -16.189  -3.814  0.00  0.00     0.171 HD
BRANCH  24  27
ATOM     27  C   UNL d   1      25.531 -16.241  -1.129  0.00  0.00     0.035 A 
ATOM     28  C   UNL d   1      26.468 -16.742  -0.206  0.00  0.00     0.017 A 
ATOM     29  C   UNL d   1      26.216 -17.924   0.479  0.00  0.00     0.004 A 
ATOM     30  C   UNL d   1      25.001 -18.574   0.284  0.00  0.00     0.037 A 
ATOM     31  C   UNL d   1      24.080 -18.086  -0.651  0.00  0.00     0.069 A 
ATOM     32  C   UNL d   1      24.358 -16.924  -1.376  0.00  0.00     0.053 A 
BRANCH  31  33
ATOM     33  O   UNL d   1      22.947 -18.837  -0.811  0.00  0.00    -0.351 OA
BRANCH  33  34
ATOM     34  C   UNL d   1      21.744 -18.072  -0.838  0.00  0.00     0.180 C 
BRANCH  34  35
ATOM     35  C   UNL d   1      20.591 -18.954  -1.267  0.00  0.00     0.065 C 
BRANCH  35  36
ATOM     36  C   UNL d   1      19.971 -19.673  -0.095  0.00  0.00    -0.056 A 
ATOM     37  C   UNL d   1      18.824 -20.449  -0.283  0.00  0.00     0.007 A 
ATOM     38  C   UNL d   1      18.145 -20.971   0.816  0.00  0.00     0.001 A 
ATOM     39  C   UNL d   1      18.660 -20.807   2.101  0.00  0.00     0.000 A 
ATOM     40  C   UNL d   1      19.831 -20.081   2.296  0.00  0.00     0.001 A 
ATOM     41  C   UNL d   1      20.475 -19.503   1.205  0.00  0.00     0.007 A 
ENDBRANCH  35  36
ENDBRANCH  34  35
ENDBRANCH  33  34
ENDBRANCH  31  33
ENDBRANCH  24  27
ENDBRANCH   1  23
TORSDOF 14
ENDMDL
MODEL 6
REMARK VINA RESULT:    -9.539      2.427      3.572
REMARK INTER + INTRA:         -15.968
REMARK INTER:                 -13.715
REMARK INTRA:                  -2.254
REMARK CONF_INDEPENDENT:        4.176
REMARK UNBOUND:                -2.254
REMARK  14 active torsions:
REMARK  status: ('A' for Active; 'I' for Inactive)
REMARK    1  A    between atoms: C_2  and  N_3 
REMARK    2  A    between atoms: N_3  and  C_4 
REMARK    3  A    between atoms: N_3  and  C_6 
REMARK    4  A    between atoms: C_6  and  C_7 
REMARK    5  A    between atoms: C_7  and  N_8 
REMARK       I    between atoms: N_8  and  C_9 
REMARK    6  A    between atoms: C_9  and  C_11 
REMARK    7  A    between atoms: C_14  and  N_15 
REMARK    8  A    between atoms: N_15  and  C_16 
REMARK    9  A    between atoms: C_16  and  N_18 
REMARK       I    between atoms: N_18  and  C_19 
REMARK   10  A    between atoms: C_19  and  C_21 
REMARK   11  A    between atoms: C_25  and  O_26 
REMARK   12  A    between atoms: O_26  and  C_27 
REMARK   13  A    between atoms: C_27  and  C_28 
REMARK   14  A    between atoms: C_28  and  C_29 
ROOT
ATOM      1  C   UNL d   1      28.611 -14.326   2.497  0.00  0.00     0.179 C 
ATOM      2  S   UNL d   1      29.202 -12.813   2.017  0.00  0.00    -0.040 SA
ENDROOT
BRANCH   1   3
ATOM      3  N   UNL d   1      28.584 -14.824   3.842  0.00  0.00    -0.333 N 
ATOM      4  H   UNL d   1      28.250 -15.771   4.010  0.00  0.00     0.168 HD
BRANCH   3   5
ATOM      5  C   UNL d   1      28.870 -14.063   5.060  0.00  0.00     0.034 A 
ATOM      6  C   UNL d   1      29.757 -14.495   6.062  0.00  0.00     0.030 A 
ATOM      7  C   UNL d   1      29.898 -13.757   7.282  0.00  0.00     0.019 A 
ATOM      8  C   UNL d   1      29.189 -12.565   7.495  0.00  0.00     0.032 A 
ATOM      9  C   UNL d   1      28.363 -12.109   6.504  0.00  0.00     0.019 A 
ATOM     10  C   UNL d   1      28.269 -12.831   5.328  0.00  0.00     0.030 A 
BRANCH   8  11
ATOM     11  C   UNL d   1      29.407 -11.662   8.651  0.00  0.00     0.251 C 
ATOM     12  N   UNL d   1      30.729 -11.512   9.069  0.00  0.00    -0.355 N 
ATOM     13  H   UNL d   1      31.474 -11.910   8.506  0.00  0.00     0.162 HD
ATOM     14  O   UNL d   1      28.472 -11.126   9.211  0.00  0.00    -0.268 OA
BRANCH  12  15
ATOM     15  C   UNL d   1      31.009 -10.640  10.185  0.00  0.00     0.150 C 
BRANCH  15  16
ATOM     16  C   UNL d   1      31.146  -9.159   9.806  0.00  0.00     0.254 C 
BRANCH  16  17
ATOM     17  N   UNL d   1      29.787  -8.448   9.627  0.00  0.00    -0.070 N 
ATOM     18  H   UNL d   1      29.057  -9.160   9.780  0.00  0.00     0.279 HD
BRANCH  17  19
ATOM     19  C   UNL d   1      29.654  -7.395  10.725  0.00  0.00     0.230 C 
ATOM     20  C   UNL d   1      30.399  -7.741  11.999  0.00  0.00     0.034 C 
ENDBRANCH  17  19
BRANCH  17  21
ATOM     21  C   UNL d   1      29.660  -7.915   8.207  0.00  0.00     0.230 C 
ATOM     22  C   UNL d   1      29.933  -8.935   7.126  0.00  0.00     0.034 C 
ENDBRANCH  17  21
ENDBRANCH  16  17
ENDBRANCH  15  16
ENDBRANCH  12  15
ENDBRANCH   8  11
ENDBRANCH   3   5
ENDBRANCH   1   3
BRANCH   1  23
ATOM     23  N   UNL d   1      28.078 -15.182   1.507  0.00  0.00    -0.299 N 
ATOM     24  C   UNL d   1      26.974 -14.814   0.693  0.00  0.00     0.257 C 
ATOM     25  O   UNL d   1      26.348 -13.755   0.719  0.00  0.00    -0.267 OA
ATOM     26  H   UNL d   1      28.490 -16.091   1.348  0.00  0.00     0.171 HD
BRANCH  24  27
ATOM     27  C   UNL d   1      26.400 -15.717  -0.299  0.00  0.00     0.035 A 
ATOM     28  C   UNL d   1      26.320 -15.262  -1.629  0.00  0.00     0.017 A 
ATOM     29  C   UNL d   1      25.519 -15.925  -2.550  0.00  0.00     0.004 A 
ATOM     30  C   UNL d   1      24.844 -17.077  -2.157  0.00  0.00     0.037 A 
ATOM     31  C   UNL d   1      24.908 -17.516  -0.829  0.00  0.00     0.069 A 
ATOM     32  C   UNL d   1      25.675 -16.819   0.108  0.00  0.00     0.053 A 
BRANCH  31  33
ATOM     33  O   UNL d   1      24.156 -18.620  -0.536  0.00  0.00    -0.351 OA
BRANCH  33  34
ATOM     34  C   UNL d   1      22.949 -18.328   0.167  0.00  0.00     0.180 C 
BRANCH  34  35
ATOM     35  C   UNL d   1      21.763 -18.559  -0.745  0.00  0.00     0.065 C 
BRANCH  35  36
ATOM     36  C   UNL d   1      20.665 -19.325  -0.052  0.00  0.00    -0.056 A 
ATOM     37  C   UNL d   1      19.590 -19.824  -0.793  0.00  0.00     0.007 A 
ATOM     38  C   UNL d   1      18.488 -20.376  -0.143  0.00  0.00     0.001 A 
ATOM     39  C   UNL d   1      18.494 -20.524   1.244  0.00  0.00     0.000 A 
ATOM     40  C   UNL d   1      19.581 -20.078   1.988  0.00  0.00     0.001 A 
ATOM     41  C   UNL d   1      20.655 -19.467   1.345  0.00  0.00     0.007 A 
ENDBRANCH  35  36
ENDBRANCH  34  35
ENDBRANCH  33  34
ENDBRANCH  31  33
ENDBRANCH  24  27
ENDBRANCH   1  23
TORSDOF 14
ENDMDL
MODEL 7
REMARK VINA RESULT:    -9.409      2.007      2.706
REMARK INTER + INTRA:         -15.866
REMARK INTER:                 -13.586
REMARK INTRA:                  -2.281
REMARK CONF_INDEPENDENT:        4.176
REMARK UNBOUND:                -2.281
REMARK  14 active torsions:
REMARK  status: ('A' for Active; 'I' for Inactive)
REMARK    1  A    between atoms: C_2  and  N_3 
REMARK    2  A    between atoms: N_3  and  C_4 
REMARK    3  A    between atoms: N_3  and  C_6 
REMARK    4  A    between atoms: C_6  and  C_7 
REMARK    5  A    between atoms: C_7  and  N_8 
REMARK       I    between atoms: N_8  and  C_9 
REMARK    6  A    between atoms: C_9  and  C_11 
REMARK    7  A    between atoms: C_14  and  N_15 
REMARK    8  A    between atoms: N_15  and  C_16 
REMARK    9  A    between atoms: C_16  and  N_18 
REMARK       I    between atoms: N_18  and  C_19 
REMARK   10  A    between atoms: C_19  and  C_21 
REMARK   11  A    between atoms: C_25  and  O_26 
REMARK   12  A    between atoms: O_26  and  C_27 
REMARK   13  A    between atoms: C_27  and  C_28 
REMARK   14  A    between atoms: C_28  and  C_29 
ROOT
ATOM      1  C   UNL d   1      29.113 -13.652  -0.115  0.00  0.00     0.179 C 
ATOM      2  S   UNL d   1      30.150 -13.579  -1.453  0.00  0.00    -0.040 SA
ENDROOT
BRANCH   1   3
ATOM      3  N   UNL d   1      28.928 -12.613   0.856  0.00  0.00    -0.333 N 
ATOM      4  H   UNL d   1      28.835 -11.651   0.537  0.00  0.00     0.168 HD
BRANCH   3   5
ATOM      5  C   UNL d   1      28.987 -12.760   2.313  0.00  0.00     0.034 A 
ATOM      6  C   UNL d   1      30.119 -12.446   3.086  0.00  0.00     0.030 A 
ATOM      7  C   UNL d   1      30.146 -12.728   4.490  0.00  0.00     0.019 A 
ATOM      8  C   UNL d   1      29.035 -13.285   5.141  0.00  0.00     0.032 A 
ATOM      9  C   UNL d   1      27.910 -13.545   4.406  0.00  0.00     0.019 A 
ATOM     10  C   UNL d   1      27.906 -13.237   3.058  0.00  0.00     0.030 A 
BRANCH   8  11
ATOM     11  C   UNL d   1      28.924 -13.447   6.611  0.00  0.00     0.251 C 
ATOM     12  N   UNL d   1      28.882 -12.268   7.354  0.00  0.00    -0.355 N 
ATOM     13  H   UNL d   1      28.800 -11.380   6.869  0.00  0.00     0.162 HD
ATOM     14  O   UNL d   1      28.914 -14.550   7.119  0.00  0.00    -0.268 OA
BRANCH  12  15
ATOM     15  C   UNL d   1      28.768 -12.358   8.791  0.00  0.00     0.150 C 
BRANCH  15  16
ATOM     16  C   UNL d   1      29.967 -13.028   9.475  0.00  0.00     0.254 C 
BRANCH  16  17
ATOM     17  N   UNL d   1      29.780 -14.548   9.678  0.00  0.00    -0.070 N 
ATOM     18  H   UNL d   1      29.779 -14.974   8.739  0.00  0.00     0.279 HD
BRANCH  17  19
ATOM     19  C   UNL d   1      30.994 -15.078  10.436  0.00  0.00     0.230 C 
ATOM     20  C   UNL d   1      30.780 -16.445  11.057  0.00  0.00     0.034 C 
ENDBRANCH  17  19
BRANCH  17  21
ATOM     21  C   UNL d   1      28.437 -14.825  10.341  0.00  0.00     0.230 C 
ATOM     22  C   UNL d   1      28.155 -13.984  11.565  0.00  0.00     0.034 C 
ENDBRANCH  17  21
ENDBRANCH  16  17
ENDBRANCH  15  16
ENDBRANCH  12  15
ENDBRANCH   8  11
ENDBRANCH   3   5
ENDBRANCH   1   3
BRANCH   1  23
ATOM     23  N   UNL d   1      28.340 -14.820   0.071  0.00  0.00    -0.299 N 
ATOM     24  C   UNL d   1      26.995 -14.924  -0.370  0.00  0.00     0.257 C 
ATOM     25  O   UNL d   1      26.331 -14.065  -0.949  0.00  0.00    -0.267 OA
ATOM     26  H   UNL d   1      28.745 -15.628   0.522  0.00  0.00     0.171 HD
BRANCH  24  27
ATOM     27  C   UNL d   1      26.187 -16.118  -0.137  0.00  0.00     0.035 A 
ATOM     28  C   UNL d   1      26.852 -17.283   0.288  0.00  0.00     0.017 A 
ATOM     29  C   UNL d   1      26.214 -18.516   0.230  0.00  0.00     0.004 A 
ATOM     30  C   UNL d   1      24.890 -18.574  -0.197  0.00  0.00     0.037 A 
ATOM     31  C   UNL d   1      24.238 -17.418  -0.640  0.00  0.00     0.069 A 
ATOM     32  C   UNL d   1      24.899 -16.187  -0.629  0.00  0.00     0.053 A 
BRANCH  31  33
ATOM     33  O   UNL d   1      22.962 -17.599  -1.100  0.00  0.00    -0.351 OA
BRANCH  33  34
ATOM     34  C   UNL d   1      22.102 -18.260  -0.174  0.00  0.00     0.180 C 
BRANCH  34  35
ATOM     35  C   UNL d   1      20.933 -18.872  -0.916  0.00  0.00     0.065 C 
BRANCH  35  36
ATOM     36  C   UNL d   1      19.982 -19.574   0.019  0.00  0.00    -0.056 A 
ATOM     37  C   UNL d   1      20.281 -19.656   1.382  0.00  0.00     0.007 A 
ATOM     38  C   UNL d   1      19.503 -20.450   2.223  0.00  0.00     0.001 A 
ATOM     39  C   UNL d   1      18.365 -21.087   1.730  0.00  0.00     0.000 A 
ATOM     40  C   UNL d   1      18.027 -20.969   0.385  0.00  0.00     0.001 A 
ATOM     41  C   UNL d   1      18.840 -20.230  -0.470  0.00  0.00     0.007 A 
ENDBRANCH  35  36
ENDBRANCH  34  35
ENDBRANCH  33  34
ENDBRANCH  31  33
ENDBRANCH  24  27
ENDBRANCH   1  23
TORSDOF 14
ENDMDL
MODEL 8
REMARK VINA RESULT:    -9.349      2.867      4.338
REMARK INTER + INTRA:         -16.078
REMARK INTER:                 -13.525
REMARK INTRA:                  -2.552
REMARK CONF_INDEPENDENT:        4.176
REMARK UNBOUND:                -2.552
REMARK  14 active torsions:
REMARK  status: ('A' for Active; 'I' for Inactive)
REMARK    1  A    between atoms: C_2  and  N_3 
REMARK    2  A    between atoms: N_3  and  C_4 
REMARK    3  A    between atoms: N_3  and  C_6 
REMARK    4  A    between atoms: C_6  and  C_7 
REMARK    5  A    between atoms: C_7  and  N_8 
REMARK       I    between atoms: N_8  and  C_9 
REMARK    6  A    between atoms: C_9  and  C_11 
REMARK    7  A    between atoms: C_14  and  N_15 
REMARK    8  A    between atoms: N_15  and  C_16 
REMARK    9  A    between atoms: C_16  and  N_18 
REMARK       I    between atoms: N_18  and  C_19 
REMARK   10  A    between atoms: C_19  and  C_21 
REMARK   11  A    between atoms: C_25  and  O_26 
REMARK   12  A    between atoms: O_26  and  C_27 
REMARK   13  A    between atoms: C_27  and  C_28 
REMARK   14  A    between atoms: C_28  and  C_29 
ROOT
ATOM      1  C   UNL d   1      27.104 -13.135  -2.778  0.00  0.00     0.179 C 
ATOM      2  S   UNL d   1      27.102 -13.293  -4.465  0.00  0.00    -0.040 SA
ENDROOT
BRANCH   1   3
ATOM      3  N   UNL d   1      27.406 -11.936  -2.052  0.00  0.00    -0.333 N 
ATOM      4  H   UNL d   1      27.402 -11.047  -2.547  0.00  0.00     0.168 HD
BRANCH   3   5
ATOM      5  C   UNL d   1      27.859 -11.848  -0.662  0.00  0.00     0.034 A 
ATOM      6  C   UNL d   1      29.079 -11.267  -0.272  0.00  0.00     0.030 A 
ATOM      7  C   UNL d   1      29.513 -11.324   1.092  0.00  0.00     0.019 A 
ATOM      8  C   UNL d   1      28.720 -11.922   2.082  0.00  0.00     0.032 A 
ATOM      9  C   UNL d   1      27.507 -12.445   1.721  0.00  0.00     0.019 A 
ATOM     10  C   UNL d   1      27.105 -12.351   0.401  0.00  0.00     0.030 A 
BRANCH   8  11
ATOM     11  C   UNL d   1      29.019 -11.872   3.534  0.00  0.00     0.251 C 
ATOM     12  N   UNL d   1      27.931 -11.632   4.373  0.00  0.00    -0.355 N 
ATOM     13  H   UNL d   1      26.995 -11.631   3.982  0.00  0.00     0.162 HD
ATOM     14  O   UNL d   1      30.156 -11.993   3.943  0.00  0.00    -0.268 OA
BRANCH  12  15
ATOM     15  C   UNL d   1      28.155 -11.577   5.799  0.00  0.00     0.150 C 
BRANCH  15  16
ATOM     16  C   UNL d   1      28.316 -12.952   6.463  0.00  0.00     0.254 C 
BRANCH  16  17
ATOM     17  N   UNL d   1      29.687 -13.605   6.184  0.00  0.00    -0.070 N 
ATOM     18  H   UNL d   1      30.257 -12.901   5.691  0.00  0.00     0.279 HD
BRANCH  17  19
ATOM     19  C   UNL d   1      30.355 -13.896   7.526  0.00  0.00     0.230 C 
ATOM     20  C   UNL d   1      29.377 -14.158   8.653  0.00  0.00     0.034 C 
ENDBRANCH  17  19
BRANCH  17  21
ATOM     21  C   UNL d   1      29.514 -14.815   5.276  0.00  0.00     0.230 C 
ATOM     22  C   UNL d   1      28.078 -15.158   4.953  0.00  0.00     0.034 C 
ENDBRANCH  17  21
ENDBRANCH  16  17
ENDBRANCH  15  16
ENDBRANCH  12  15
ENDBRANCH   8  11
ENDBRANCH   3   5
ENDBRANCH   1   3
BRANCH   1  23
ATOM     23  N   UNL d   1      26.764 -14.264  -1.999  0.00  0.00    -0.299 N 
ATOM     24  C   UNL d   1      25.541 -14.965  -2.163  0.00  0.00     0.257 C 
ATOM     25  O   UNL d   1      24.639 -14.715  -2.962  0.00  0.00    -0.267 OA
ATOM     26  H   UNL d   1      27.408 -14.609  -1.301  0.00  0.00     0.171 HD
BRANCH  24  27
ATOM     27  C   UNL d   1      25.176 -16.104  -1.327  0.00  0.00     0.035 A 
ATOM     28  C   UNL d   1      26.153 -16.610  -0.449  0.00  0.00     0.017 A 
ATOM     29  C   UNL d   1      25.991 -17.858   0.139  0.00  0.00     0.004 A 
ATOM     30  C   UNL d   1      24.823 -18.575  -0.105  0.00  0.00     0.037 A 
ATOM     31  C   UNL d   1      23.862 -18.080  -0.995  0.00  0.00     0.069 A 
ATOM     32  C   UNL d   1      24.051 -16.847  -1.624  0.00  0.00     0.053 A 
BRANCH  31  33
ATOM     33  O   UNL d   1      22.784 -18.895  -1.212  0.00  0.00    -0.351 OA
BRANCH  33  34
ATOM     34  C   UNL d   1      21.526 -18.262  -0.988  0.00  0.00     0.180 C 
BRANCH  34  35
ATOM     35  C   UNL d   1      20.407 -19.243  -1.270  0.00  0.00     0.065 C 
BRANCH  35  36
ATOM     36  C   UNL d   1      19.862 -19.849  -0.003  0.00  0.00    -0.056 A 
ATOM     37  C   UNL d   1      18.679 -20.592  -0.041  0.00  0.00     0.007 A 
ATOM     38  C   UNL d   1      18.074 -21.006   1.145  0.00  0.00     0.001 A 
ATOM     39  C   UNL d   1      18.696 -20.767   2.369  0.00  0.00     0.000 A 
ATOM     40  C   UNL d   1      19.901 -20.073   2.416  0.00  0.00     0.001 A 
ATOM     41  C   UNL d   1      20.473 -19.603   1.237  0.00  0.00     0.007 A 
ENDBRANCH  35  36
ENDBRANCH  34  35
ENDBRANCH  33  34
ENDBRANCH  31  33
ENDBRANCH  24  27
ENDBRANCH   1  23
TORSDOF 14
ENDMDL
MODEL 9
REMARK VINA RESULT:    -8.980      7.633     11.085
REMARK INTER + INTRA:         -15.852
REMARK INTER:                 -13.156
REMARK INTRA:                  -2.696
REMARK CONF_INDEPENDENT:        4.176
REMARK UNBOUND:                -2.696
REMARK  14 active torsions:
REMARK  status: ('A' for Active; 'I' for Inactive)
REMARK    1  A    between atoms: C_2  and  N_3 
REMARK    2  A    between atoms: N_3  and  C_4 
REMARK    3  A    between atoms: N_3  and  C_6 
REMARK    4  A    between atoms: C_6  and  C_7 
REMARK    5  A    between atoms: C_7  and  N_8 
REMARK       I    between atoms: N_8  and  C_9 
REMARK    6  A    between atoms: C_9  and  C_11 
REMARK    7  A    between atoms: C_14  and  N_15 
REMARK    8  A    between atoms: N_15  and  C_16 
REMARK    9  A    between atoms: C_16  and  N_18 
REMARK       I    between atoms: N_18  and  C_19 
REMARK   10  A    between atoms: C_19  and  C_21 
REMARK   11  A    between atoms: C_25  and  O_26 
REMARK   12  A    between atoms: O_26  and  C_27 
REMARK   13  A    between atoms: C_27  and  C_28 
REMARK   14  A    between atoms: C_28  and  C_29 
ROOT
ATOM      1  C   UNL d   1      30.400 -14.887  -6.415  0.00  0.00     0.179 C 
ATOM      2  S   UNL d   1      31.211 -13.440  -6.754  0.00  0.00    -0.040 SA
ENDROOT
BRANCH   1   3
ATOM      3  N   UNL d   1      30.542 -16.115  -7.143  0.00  0.00    -0.333 N 
ATOM      4  H   UNL d   1      30.486 -16.094  -8.159  0.00  0.00     0.168 HD
BRANCH   3   5
ATOM      5  C   UNL d   1      30.635 -17.462  -6.573  0.00  0.00     0.034 A 
ATOM      6  C   UNL d   1      30.810 -18.625  -7.343  0.00  0.00     0.030 A 
ATOM      7  C   UNL d   1      30.772 -19.919  -6.730  0.00  0.00     0.019 A 
ATOM      8  C   UNL d   1      30.600 -20.062  -5.345  0.00  0.00     0.032 A 
ATOM      9  C   UNL d   1      30.480 -18.933  -4.581  0.00  0.00     0.019 A 
ATOM     10  C   UNL d   1      30.548 -17.697  -5.200  0.00  0.00     0.030 A 
BRANCH   8  11
ATOM     11  C   UNL d   1      30.718 -21.349  -4.618  0.00  0.00     0.251 C 
ATOM     12  N   UNL d   1      32.012 -21.849  -4.469  0.00  0.00    -0.355 N 
ATOM     13  H   UNL d   1      32.800 -21.271  -4.739  0.00  0.00     0.162 HD
ATOM     14  O   UNL d   1      29.733 -21.936  -4.221  0.00  0.00    -0.268 OA
BRANCH  12  15
ATOM     15  C   UNL d   1      32.196 -23.096  -3.764  0.00  0.00     0.150 C 
BRANCH  15  16
ATOM     16  C   UNL d   1      31.709 -24.331  -4.535  0.00  0.00     0.254 C 
BRANCH  16  17
ATOM     17  N   UNL d   1      30.226 -24.671  -4.266  0.00  0.00    -0.070 N 
ATOM     18  H   UNL d   1      29.666 -23.940  -4.728  0.00  0.00     0.279 HD
BRANCH  17  19
ATOM     19  C   UNL d   1      29.915 -26.003  -4.943  0.00  0.00     0.230 C 
ATOM     20  C   UNL d   1      28.525 -26.074  -5.545  0.00  0.00     0.034 C 
ENDBRANCH  17  19
BRANCH  17  21
ATOM     21  C   UNL d   1      29.945 -24.629  -2.770  0.00  0.00     0.230 C 
ATOM     22  C   UNL d   1      28.494 -24.827  -2.397  0.00  0.00     0.034 C 
ENDBRANCH  17  21
ENDBRANCH  16  17
ENDBRANCH  15  16
ENDBRANCH  12  15
ENDBRANCH   8  11
ENDBRANCH   3   5
ENDBRANCH   1   3
BRANCH   1  23
ATOM     23  N   UNL d   1      29.514 -14.917  -5.314  0.00  0.00    -0.299 N 
ATOM     24  C   UNL d   1      28.111 -15.070  -5.465  0.00  0.00     0.257 C 
ATOM     25  O   UNL d   1      27.484 -15.195  -6.517  0.00  0.00    -0.267 OA
ATOM     26  H   UNL d   1      29.874 -14.839  -4.373  0.00  0.00     0.171 HD
BRANCH  24  27
ATOM     27  C   UNL d   1      27.197 -15.057  -4.328  0.00  0.00     0.035 A 
ATOM     28  C   UNL d   1      25.934 -14.462  -4.512  0.00  0.00     0.017 A 
ATOM     29  C   UNL d   1      25.146 -14.137  -3.415  0.00  0.00     0.004 A 
ATOM     30  C   UNL d   1      25.594 -14.461  -2.138  0.00  0.00     0.037 A 
ATOM     31  C   UNL d   1      26.858 -15.033  -1.956  0.00  0.00     0.069 A 
ATOM     32  C   UNL d   1      27.672 -15.313  -3.057  0.00  0.00     0.053 A 
BRANCH  31  33
ATOM     33  O   UNL d   1      27.226 -15.251  -0.656  0.00  0.00    -0.351 OA
BRANCH  33  34
ATOM     34  C   UNL d   1      26.222 -15.891   0.130  0.00  0.00     0.180 C 
BRANCH  34  35
ATOM     35  C   UNL d   1      26.001 -17.300  -0.380  0.00  0.00     0.065 C 
BRANCH  35  36
ATOM     36  C   UNL d   1      24.535 -17.621  -0.519  0.00  0.00    -0.056 A 
ATOM     37  C   UNL d   1      23.598 -16.585  -0.569  0.00  0.00     0.007 A 
ATOM     38  C   UNL d   1      22.235 -16.872  -0.520  0.00  0.00     0.001 A 
ATOM     39  C   UNL d   1      21.796 -18.195  -0.519  0.00  0.00     0.000 A 
ATOM     40  C   UNL d   1      22.720 -19.236  -0.521  0.00  0.00     0.001 A 
ATOM     41  C   UNL d   1      24.083 -18.951  -0.505  0.00  0.00     0.007 A 
ENDBRANCH  35  36
ENDBRANCH  34  35
ENDBRANCH  33  34
ENDBRANCH  31  33
ENDBRANCH  24  27
ENDBRANCH   1  23
TORSDOF 14
ENDMDL
