MODEL 1
REMARK VINA RESULT:    -9.615      0.000      0.000
REMARK INTER + INTRA:         -13.681
REMARK INTER:                 -12.002
REMARK INTRA:                  -1.679
REMARK CONF_INDEPENDENT:        2.386
REMARK UNBOUND:                -1.679
REMARK  8 active torsions:
REMARK  status: ('A' for Active; 'I' for Inactive)
REMARK    1  A    between atoms: C_2  and  C_3 
REMARK    2  A    between atoms: C_3  and  C_4 
REMARK       I    between atoms: C_4  and  N_6 
REMARK    3  A    between atoms: N_6  and  C_7 
REMARK    4  A    between atoms: C_10  and  C_11 
REMARK       I    between atoms: C_11  and  N_13 
REMARK    5  A    between atoms: N_13  and  N_14 
REMARK    6  A    between atoms: N_14  and  C_15 
REMARK    7  A    between atoms: C_15  and  N_17 
REMARK       I    between atoms: N_17  and  C_18 
REMARK    8  A    between atoms: C_18  and  C_20 
ROOT
ATOM      1  C   UNL d   1      26.300 -16.229  -1.404  0.00  0.00     0.270 C 
ATOM      2  O   UNL d   1      26.544 -16.130  -2.611  0.00  0.00    -0.266 OA
ATOM      3  N   UNL d   1      27.209 -15.813  -0.438  0.00  0.00    -0.264 N 
ATOM      4  H   UNL d   1      27.017 -15.859   0.561  0.00  0.00     0.190 HD
ENDROOT
BRANCH   3   5
ATOM      5  N   UNL d   1      28.498 -15.219  -0.758  0.00  0.00    -0.273 N 
ATOM      6  H   UNL d   1      28.484 -14.553  -1.528  0.00  0.00     0.189 HD
BRANCH   5   7
ATOM      7  C   UNL d   1      29.622 -15.610  -0.000  0.00  0.00     0.193 C 
ATOM      8  S   UNL d   1      30.845 -16.513  -0.741  0.00  0.00    -0.039 SA
BRANCH   7   9
ATOM      9  N   UNL d   1      29.624 -15.199   1.356  0.00  0.00    -0.298 N 
ATOM     10  C   UNL d   1      28.634 -14.413   1.992  0.00  0.00     0.257 C 
ATOM     11  O   UNL d   1      27.624 -13.968   1.443  0.00  0.00    -0.267 OA
ATOM     12  H   UNL d   1      30.375 -15.537   1.940  0.00  0.00     0.171 HD
BRANCH  10  13
ATOM     13  C   UNL d   1      28.745 -14.039   3.434  0.00  0.00     0.033 A 
ATOM     14  C   UNL d   1      28.354 -14.991   4.398  0.00  0.00     0.017 A 
ATOM     15  C   UNL d   1      28.205 -14.643   5.748  0.00  0.00     0.009 A 
ATOM     16  C   UNL d   1      28.508 -13.346   6.181  0.00  0.00    -0.045 A 
ATOM     17  C   UNL d   1      28.491 -13.041   7.655  0.00  0.00     0.049 C 
ATOM     18  C   UNL d   1      28.866 -12.393   5.211  0.00  0.00     0.017 A 
ATOM     19 BR   UNL d   1      29.164 -10.575   5.685  0.00  0.00    -0.051 Br
ATOM     20  C   UNL d   1      28.982 -12.730   3.848  0.00  0.00     0.036 A 
ENDBRANCH  10  13
ENDBRANCH   7   9
ENDBRANCH   5   7
ENDBRANCH   3   5
BRANCH   1  21
ATOM     21  C   UNL d   1      24.960 -16.792  -0.938  0.00  0.00     0.033 A 
ATOM     22  C   UNL d   1      24.914 -17.988  -0.188  0.00  0.00     0.019 A 
ATOM     23  C   UNL d   1      23.685 -18.601   0.171  0.00  0.00     0.030 A 
ATOM     24  C   UNL d   1      22.472 -18.012  -0.189  0.00  0.00     0.034 A 
ATOM     25  C   UNL d   1      22.516 -16.807  -0.894  0.00  0.00     0.030 A 
ATOM     26  C   UNL d   1      23.733 -16.199  -1.256  0.00  0.00     0.019 A 
BRANCH  24  27
ATOM     27  N   UNL d   1      21.224 -18.585   0.181  0.00  0.00    -0.327 N 
ATOM     28  C   UNL d   1      20.426 -19.265  -0.736  0.00  0.00     0.222 C 
ATOM     29  O   UNL d   1      20.771 -19.496  -1.894  0.00  0.00    -0.273 OA
ATOM     30  H   UNL d   1      20.987 -18.623   1.165  0.00  0.00     0.169 HD
BRANCH  28  31
ATOM     31  C   UNL d   1      19.079 -19.760  -0.213  0.00  0.00     0.103 C 
BRANCH  31  32
ATOM     32  C   UNL d   1      19.286 -21.045   0.608  0.00  0.00     0.005 C 
ATOM     33  C   UNL d   1      18.033 -21.499   1.332  0.00  0.00     0.005 C 
ENDBRANCH  31  32
ENDBRANCH  28  31
ENDBRANCH  24  27
ENDBRANCH   1  21
TORSDOF 8
ENDMDL
MODEL 2
REMARK VINA RESULT:    -9.595      1.907      2.636
REMARK INTER + INTRA:         -13.629
REMARK INTER:                 -11.981
REMARK INTRA:                  -1.647
REMARK CONF_INDEPENDENT:        2.386
REMARK UNBOUND:                -1.647
REMARK  8 active torsions:
REMARK  status: ('A' for Active; 'I' for Inactive)
REMARK    1  A    between atoms: C_2  and  C_3 
REMARK    2  A    between atoms: C_3  and  C_4 
REMARK       I    between atoms: C_4  and  N_6 
REMARK    3  A    between atoms: N_6  and  C_7 
REMARK    4  A    between atoms: C_10  and  C_11 
REMARK       I    between atoms: C_11  and  N_13 
REMARK    5  A    between atoms: N_13  and  N_14 
REMARK    6  A    between atoms: N_14  and  C_15 
REMARK    7  A    between atoms: C_15  and  N_17 
REMARK       I    between atoms: N_17  and  C_18 
REMARK    8  A    between atoms: C_18  and  C_20 
ROOT
ATOM      1  C   UNL d   1      27.946 -15.276  -0.076  0.00  0.00     0.270 C 
ATOM      2  O   UNL d   1      28.078 -14.420  -0.956  0.00  0.00    -0.266 OA
ATOM      3  N   UNL d   1      28.847 -15.388   0.977  0.00  0.00    -0.264 N 
ATOM      4  H   UNL d   1      28.743 -16.067   1.728  0.00  0.00     0.190 HD
ENDROOT
BRANCH   3   5
ATOM      5  N   UNL d   1      29.996 -14.510   1.140  0.00  0.00    -0.273 N 
ATOM      6  H   UNL d   1      30.025 -13.719   0.499  0.00  0.00     0.189 HD
BRANCH   5   7
ATOM      7  C   UNL d   1      30.943 -14.824   2.136  0.00  0.00     0.193 C 
ATOM      8  S   UNL d   1      32.378 -15.604   1.696  0.00  0.00    -0.039 SA
BRANCH   7   9
ATOM      9  N   UNL d   1      30.596 -14.447   3.457  0.00  0.00    -0.298 N 
ATOM     10  C   UNL d   1      29.295 -14.451   4.012  0.00  0.00     0.257 C 
ATOM     11  O   UNL d   1      28.270 -14.780   3.410  0.00  0.00    -0.267 OA
ATOM     12  H   UNL d   1      31.351 -14.200   4.081  0.00  0.00     0.171 HD
BRANCH  10  13
ATOM     13  C   UNL d   1      29.050 -14.028   5.424  0.00  0.00     0.033 A 
ATOM     14  C   UNL d   1      28.126 -12.988   5.654  0.00  0.00     0.017 A 
ATOM     15  C   UNL d   1      28.013 -12.378   6.911  0.00  0.00     0.009 A 
ATOM     16  C   UNL d   1      28.777 -12.838   7.991  0.00  0.00    -0.045 A 
ATOM     17  C   UNL d   1      28.525 -12.272   9.363  0.00  0.00     0.049 C 
ATOM     18  C   UNL d   1      29.720 -13.854   7.748  0.00  0.00     0.017 A 
ATOM     19 BR   UNL d   1      30.896 -14.448   9.120  0.00  0.00    -0.051 Br
ATOM     20  C   UNL d   1      29.861 -14.445   6.477  0.00  0.00     0.036 A 
ENDBRANCH  10  13
ENDBRANCH   7   9
ENDBRANCH   5   7
ENDBRANCH   3   5
BRANCH   1  21
ATOM     21  C   UNL d   1      26.753 -16.229  -0.107  0.00  0.00     0.033 A 
ATOM     22  C   UNL d   1      25.585 -15.882  -0.820  0.00  0.00     0.019 A 
ATOM     23  C   UNL d   1      24.416 -16.688  -0.785  0.00  0.00     0.030 A 
ATOM     24  C   UNL d   1      24.404 -17.878  -0.056  0.00  0.00     0.034 A 
ATOM     25  C   UNL d   1      25.574 -18.244   0.616  0.00  0.00     0.030 A 
ATOM     26  C   UNL d   1      26.731 -17.444   0.587  0.00  0.00     0.019 A 
BRANCH  24  27
ATOM     27  N   UNL d   1      23.261 -18.724  -0.024  0.00  0.00    -0.327 N 
ATOM     28  C   UNL d   1      22.003 -18.275  -0.419  0.00  0.00     0.222 C 
ATOM     29  O   UNL d   1      21.802 -17.161  -0.900  0.00  0.00    -0.273 OA
ATOM     30  H   UNL d   1      23.401 -19.712   0.150  0.00  0.00     0.169 HD
BRANCH  28  31
ATOM     31  C   UNL d   1      20.857 -19.272  -0.259  0.00  0.00     0.103 C 
BRANCH  31  32
ATOM     32  C   UNL d   1      20.576 -19.498   1.237  0.00  0.00     0.005 C 
ATOM     33  C   UNL d   1      19.236 -20.159   1.499  0.00  0.00     0.005 C 
ENDBRANCH  31  32
ENDBRANCH  28  31
ENDBRANCH  24  27
ENDBRANCH   1  21
TORSDOF 8
ENDMDL
MODEL 3
REMARK VINA RESULT:    -9.593      5.239      7.707
REMARK INTER + INTRA:         -13.521
REMARK INTER:                 -11.979
REMARK INTRA:                  -1.541
REMARK CONF_INDEPENDENT:        2.386
REMARK UNBOUND:                -1.541
REMARK  8 active torsions:
REMARK  status: ('A' for Active; 'I' for Inactive)
REMARK    1  A    between atoms: C_2  and  C_3 
REMARK    2  A    between atoms: C_3  and  C_4 
REMARK       I    between atoms: C_4  and  N_6 
REMARK    3  A    between atoms: N_6  and  C_7 
REMARK    4  A    between atoms: C_10  and  C_11 
REMARK       I    between atoms: C_11  and  N_13 
REMARK    5  A    between atoms: N_13  and  N_14 
REMARK    6  A    between atoms: N_14  and  C_15 
REMARK    7  A    between atoms: C_15  and  N_17 
REMARK       I    between atoms: N_17  and  C_18 
REMARK    8  A    between atoms: C_18  and  C_20 
ROOT
ATOM      1  C   UNL d   1      25.458 -16.012  -2.084  0.00  0.00     0.270 C 
ATOM      2  O   UNL d   1      25.135 -15.108  -2.861  0.00  0.00    -0.266 OA
ATOM      3  N   UNL d   1      26.790 -16.287  -1.796  0.00  0.00    -0.264 N 
ATOM      4  H   UNL d   1      27.078 -17.008  -1.138  0.00  0.00     0.190 HD
ENDROOT
BRANCH   3   5
ATOM      5  N   UNL d   1      27.901 -15.536  -2.361  0.00  0.00    -0.273 N 
ATOM      6  H   UNL d   1      27.631 -14.738  -2.934  0.00  0.00     0.189 HD
BRANCH   5   7
ATOM      7  C   UNL d   1      29.214 -15.968  -2.080  0.00  0.00     0.193 C 
ATOM      8  S   UNL d   1      29.792 -15.875  -0.494  0.00  0.00    -0.039 SA
BRANCH   7   9
ATOM      9  N   UNL d   1      29.952 -16.454  -3.186  0.00  0.00    -0.298 N 
ATOM     10  C   UNL d   1      29.561 -16.391  -4.545  0.00  0.00     0.257 C 
ATOM     11  O   UNL d   1      28.505 -15.903  -4.955  0.00  0.00    -0.267 OA
ATOM     12  H   UNL d   1      30.867 -16.838  -2.999  0.00  0.00     0.171 HD
BRANCH  10  13
ATOM     13  C   UNL d   1      30.427 -16.942  -5.631  0.00  0.00     0.033 A 
ATOM     14  C   UNL d   1      30.981 -16.037  -6.560  0.00  0.00     0.017 A 
ATOM     15  C   UNL d   1      31.603 -16.487  -7.733  0.00  0.00     0.009 A 
ATOM     16  C   UNL d   1      31.747 -17.859  -7.975  0.00  0.00    -0.045 A 
ATOM     17  C   UNL d   1      32.555 -18.315  -9.161  0.00  0.00     0.049 C 
ATOM     18  C   UNL d   1      31.165 -18.756  -7.061  0.00  0.00     0.017 A 
ATOM     19 BR   UNL d   1      31.190 -20.631  -7.376  0.00  0.00    -0.051 Br
ATOM     20  C   UNL d   1      30.507 -18.306  -5.899  0.00  0.00     0.036 A 
ENDBRANCH  10  13
ENDBRANCH   7   9
ENDBRANCH   5   7
ENDBRANCH   3   5
BRANCH   1  21
ATOM     21  C   UNL d   1      24.384 -16.843  -1.388  0.00  0.00     0.033 A 
ATOM     22  C   UNL d   1      24.653 -18.176  -1.006  0.00  0.00     0.019 A 
ATOM     23  C   UNL d   1      23.649 -19.016  -0.455  0.00  0.00     0.030 A 
ATOM     24  C   UNL d   1      22.358 -18.528  -0.248  0.00  0.00     0.034 A 
ATOM     25  C   UNL d   1      22.102 -17.196  -0.586  0.00  0.00     0.030 A 
ATOM     26  C   UNL d   1      23.094 -16.363  -1.137  0.00  0.00     0.019 A 
BRANCH  24  27
ATOM     27  N   UNL d   1      21.338 -19.334   0.329  0.00  0.00    -0.327 N 
ATOM     28  C   UNL d   1      20.282 -19.836  -0.427  0.00  0.00     0.222 C 
ATOM     29  O   UNL d   1      20.197 -19.700  -1.646  0.00  0.00    -0.273 OA
ATOM     30  H   UNL d   1      21.469 -19.666   1.277  0.00  0.00     0.169 HD
BRANCH  28  31
ATOM     31  C   UNL d   1      19.223 -20.622   0.343  0.00  0.00     0.103 C 
BRANCH  31  32
ATOM     32  C   UNL d   1      18.882 -19.883   1.649  0.00  0.00     0.005 C 
ATOM     33  C   UNL d   1      19.598 -20.450   2.861  0.00  0.00     0.005 C 
ENDBRANCH  31  32
ENDBRANCH  28  31
ENDBRANCH  24  27
ENDBRANCH   1  21
TORSDOF 8
ENDMDL
MODEL 4
REMARK VINA RESULT:    -9.552      4.403      6.542
REMARK INTER + INTRA:         -13.893
REMARK INTER:                 -11.939
REMARK INTRA:                  -1.954
REMARK CONF_INDEPENDENT:        2.386
REMARK UNBOUND:                -1.954
REMARK  8 active torsions:
REMARK  status: ('A' for Active; 'I' for Inactive)
REMARK    1  A    between atoms: C_2  and  C_3 
REMARK    2  A    between atoms: C_3  and  C_4 
REMARK       I    between atoms: C_4  and  N_6 
REMARK    3  A    between atoms: N_6  and  C_7 
REMARK    4  A    between atoms: C_10  and  C_11 
REMARK       I    between atoms: C_11  and  N_13 
REMARK    5  A    between atoms: N_13  and  N_14 
REMARK    6  A    between atoms: N_14  and  C_15 
REMARK    7  A    between atoms: C_15  and  N_17 
REMARK       I    between atoms: N_17  and  C_18 
REMARK    8  A    between atoms: C_18  and  C_20 
ROOT
ATOM      1  C   UNL d   1      27.701 -16.924  -0.837  0.00  0.00     0.270 C 
ATOM      2  O   UNL d   1      28.071 -15.889  -1.399  0.00  0.00    -0.266 OA
ATOM      3  N   UNL d   1      28.608 -17.876  -0.387  0.00  0.00    -0.264 N 
ATOM      4  H   UNL d   1      28.327 -18.723   0.103  0.00  0.00     0.190 HD
ENDROOT
BRANCH   3   5
ATOM      5  N   UNL d   1      30.050 -17.731  -0.521  0.00  0.00    -0.273 N 
ATOM      6  H   UNL d   1      30.551 -17.602   0.355  0.00  0.00     0.189 HD
BRANCH   5   7
ATOM      7  C   UNL d   1      30.610 -17.774  -1.815  0.00  0.00     0.193 C 
ATOM      8  S   UNL d   1      31.820 -18.905  -2.155  0.00  0.00    -0.039 SA
BRANCH   7   9
ATOM      9  N   UNL d   1      30.092 -16.835  -2.742  0.00  0.00    -0.298 N 
ATOM     10  C   UNL d   1      29.820 -17.075  -4.110  0.00  0.00     0.257 C 
ATOM     11  O   UNL d   1      30.008 -18.146  -4.691  0.00  0.00    -0.267 OA
ATOM     12  H   UNL d   1      29.844 -15.923  -2.387  0.00  0.00     0.171 HD
BRANCH  10  13
ATOM     13  C   UNL d   1      29.274 -16.002  -4.994  0.00  0.00     0.033 A 
ATOM     14  C   UNL d   1      30.062 -15.573  -6.082  0.00  0.00     0.017 A 
ATOM     15  C   UNL d   1      29.733 -14.423  -6.813  0.00  0.00     0.009 A 
ATOM     16  C   UNL d   1      28.567 -13.706  -6.516  0.00  0.00    -0.045 A 
ATOM     17  C   UNL d   1      28.155 -12.569  -7.412  0.00  0.00     0.049 C 
ATOM     18  C   UNL d   1      27.802 -14.119  -5.409  0.00  0.00     0.017 A 
ATOM     19 BR   UNL d   1      26.278 -13.129  -4.846  0.00  0.00    -0.051 Br
ATOM     20  C   UNL d   1      28.149 -15.254  -4.650  0.00  0.00     0.036 A 
ENDBRANCH  10  13
ENDBRANCH   7   9
ENDBRANCH   5   7
ENDBRANCH   3   5
BRANCH   1  21
ATOM     21  C   UNL d   1      26.215 -17.173  -0.593  0.00  0.00     0.033 A 
ATOM     22  C   UNL d   1      25.802 -18.134   0.356  0.00  0.00     0.019 A 
ATOM     23  C   UNL d   1      24.434 -18.473   0.536  0.00  0.00     0.030 A 
ATOM     24  C   UNL d   1      23.447 -17.832  -0.213  0.00  0.00     0.034 A 
ATOM     25  C   UNL d   1      23.850 -16.851  -1.122  0.00  0.00     0.030 A 
ATOM     26  C   UNL d   1      25.205 -16.517  -1.306  0.00  0.00     0.019 A 
BRANCH  24  27
ATOM     27  N   UNL d   1      22.066 -18.127  -0.037  0.00  0.00    -0.327 N 
ATOM     28  C   UNL d   1      21.337 -18.832  -0.990  0.00  0.00     0.222 C 
ATOM     29  O   UNL d   1      21.839 -19.325  -1.999  0.00  0.00    -0.273 OA
ATOM     30  H   UNL d   1      21.650 -17.945   0.868  0.00  0.00     0.169 HD
BRANCH  28  31
ATOM     31  C   UNL d   1      19.848 -19.008  -0.698  0.00  0.00     0.103 C 
BRANCH  31  32
ATOM     32  C   UNL d   1      19.668 -19.713   0.658  0.00  0.00     0.005 C 
ATOM     33  C   UNL d   1      18.556 -20.745   0.651  0.00  0.00     0.005 C 
ENDBRANCH  31  32
ENDBRANCH  28  31
ENDBRANCH  24  27
ENDBRANCH   1  21
TORSDOF 8
ENDMDL
MODEL 5
REMARK VINA RESULT:    -9.546      5.697      8.069
REMARK INTER + INTRA:         -13.475
REMARK INTER:                 -11.933
REMARK INTRA:                  -1.542
REMARK CONF_INDEPENDENT:        2.386
REMARK UNBOUND:                -1.542
REMARK  8 active torsions:
REMARK  status: ('A' for Active; 'I' for Inactive)
REMARK    1  A    between atoms: C_2  and  C_3 
REMARK    2  A    between atoms: C_3  and  C_4 
REMARK       I    between atoms: C_4  and  N_6 
REMARK    3  A    between atoms: N_6  and  C_7 
REMARK    4  A    between atoms: C_10  and  C_11 
REMARK       I    between atoms: C_11  and  N_13 
REMARK    5  A    between atoms: N_13  and  N_14 
REMARK    6  A    between atoms: N_14  and  C_15 
REMARK    7  A    between atoms: C_15  and  N_17 
REMARK       I    between atoms: N_17  and  C_18 
REMARK    8  A    between atoms: C_18  and  C_20 
ROOT
ATOM      1  C   UNL d   1      25.602 -15.981  -1.773  0.00  0.00     0.270 C 
ATOM      2  O   UNL d   1      26.374 -15.327  -1.064  0.00  0.00    -0.266 OA
ATOM      3  N   UNL d   1      25.736 -16.020  -3.156  0.00  0.00    -0.264 N 
ATOM      4  H   UNL d   1      25.129 -16.574  -3.757  0.00  0.00     0.190 HD
ENDROOT
BRANCH   3   5
ATOM      5  N   UNL d   1      26.788 -15.319  -3.876  0.00  0.00    -0.273 N 
ATOM      6  H   UNL d   1      27.703 -15.764  -3.838  0.00  0.00     0.189 HD
BRANCH   5   7
ATOM      7  C   UNL d   1      26.461 -14.118  -4.539  0.00  0.00     0.193 C 
ATOM      8  S   UNL d   1      24.950 -13.408  -4.266  0.00  0.00    -0.039 SA
BRANCH   7   9
ATOM      9  N   UNL d   1      27.458 -13.598  -5.401  0.00  0.00    -0.298 N 
ATOM     10  C   UNL d   1      28.501 -14.334  -6.010  0.00  0.00     0.257 C 
ATOM     11  O   UNL d   1      28.692 -15.544  -5.865  0.00  0.00    -0.267 OA
ATOM     12  H   UNL d   1      27.393 -12.621  -5.647  0.00  0.00     0.171 HD
BRANCH  10  13
ATOM     13  C   UNL d   1      29.500 -13.674  -6.904  0.00  0.00     0.033 A 
ATOM     14  C   UNL d   1      29.068 -12.588  -7.694  0.00  0.00     0.017 A 
ATOM     15  C   UNL d   1      29.869 -12.070  -8.720  0.00  0.00     0.009 A 
ATOM     16  C   UNL d   1      31.154 -12.581  -8.942  0.00  0.00    -0.045 A 
ATOM     17  C   UNL d   1      32.052 -11.905  -9.944  0.00  0.00     0.049 C 
ATOM     18  C   UNL d   1      31.567 -13.685  -8.173  0.00  0.00     0.017 A 
ATOM     19 BR   UNL d   1      33.239 -14.533  -8.494  0.00  0.00    -0.051 Br
ATOM     20  C   UNL d   1      30.750 -14.232  -7.164  0.00  0.00     0.036 A 
ENDBRANCH  10  13
ENDBRANCH   7   9
ENDBRANCH   5   7
ENDBRANCH   3   5
BRANCH   1  21
ATOM     21  C   UNL d   1      24.484 -16.800  -1.134  0.00  0.00     0.033 A 
ATOM     22  C   UNL d   1      24.738 -18.109  -0.669  0.00  0.00     0.019 A 
ATOM     23  C   UNL d   1      23.702 -18.942  -0.169  0.00  0.00     0.030 A 
ATOM     24  C   UNL d   1      22.392 -18.469  -0.095  0.00  0.00     0.034 A 
ATOM     25  C   UNL d   1      22.146 -17.159  -0.515  0.00  0.00     0.030 A 
ATOM     26  C   UNL d   1      23.170 -16.333  -1.016  0.00  0.00     0.019 A 
BRANCH  24  27
ATOM     27  N   UNL d   1      21.337 -19.267   0.428  0.00  0.00    -0.327 N 
ATOM     28  C   UNL d   1      20.343 -19.800  -0.388  0.00  0.00     0.222 C 
ATOM     29  O   UNL d   1      20.347 -19.700  -1.614  0.00  0.00    -0.273 OA
ATOM     30  H   UNL d   1      21.400 -19.570   1.392  0.00  0.00     0.169 HD
BRANCH  28  31
ATOM     31  C   UNL d   1      19.235 -20.572   0.325  0.00  0.00     0.103 C 
BRANCH  31  32
ATOM     32  C   UNL d   1      18.771 -19.784   1.562  0.00  0.00     0.005 C 
ATOM     33  C   UNL d   1      19.149 -20.450   2.871  0.00  0.00     0.005 C 
ENDBRANCH  31  32
ENDBRANCH  28  31
ENDBRANCH  24  27
ENDBRANCH   1  21
TORSDOF 8
ENDMDL
MODEL 6
REMARK VINA RESULT:    -9.393      4.799      6.458
REMARK INTER + INTRA:         -13.485
REMARK INTER:                 -11.780
REMARK INTRA:                  -1.705
REMARK CONF_INDEPENDENT:        2.386
REMARK UNBOUND:                -1.705
REMARK  8 active torsions:
REMARK  status: ('A' for Active; 'I' for Inactive)
REMARK    1  A    between atoms: C_2  and  C_3 
REMARK    2  A    between atoms: C_3  and  C_4 
REMARK       I    between atoms: C_4  and  N_6 
REMARK    3  A    between atoms: N_6  and  C_7 
REMARK    4  A    between atoms: C_10  and  C_11 
REMARK       I    between atoms: C_11  and  N_13 
REMARK    5  A    between atoms: N_13  and  N_14 
REMARK    6  A    between atoms: N_14  and  C_15 
REMARK    7  A    between atoms: C_15  and  N_17 
REMARK       I    between atoms: N_17  and  C_18 
REMARK    8  A    between atoms: C_18  and  C_20 
ROOT
ATOM      1  C   UNL d   1      26.548 -16.442  -1.337  0.00  0.00     0.270 C 
ATOM      2  O   UNL d   1      26.660 -15.304  -1.804  0.00  0.00    -0.266 OA
ATOM      3  N   UNL d   1      27.650 -17.270  -1.157  0.00  0.00    -0.264 N 
ATOM      4  H   UNL d   1      27.584 -18.200  -0.748  0.00  0.00     0.190 HD
ENDROOT
BRANCH   3   5
ATOM      5  N   UNL d   1      29.011 -16.870  -1.481  0.00  0.00    -0.273 N 
ATOM      6  H   UNL d   1      29.659 -16.882  -0.696  0.00  0.00     0.189 HD
BRANCH   5   7
ATOM      7  C   UNL d   1      29.303 -16.507  -2.812  0.00  0.00     0.193 C 
ATOM      8  S   UNL d   1      30.307 -17.503  -3.739  0.00  0.00    -0.039 SA
BRANCH   7   9
ATOM      9  N   UNL d   1      28.711 -15.303  -3.266  0.00  0.00    -0.298 N 
ATOM     10  C   UNL d   1      28.218 -15.054  -4.569  0.00  0.00     0.257 C 
ATOM     11  O   UNL d   1      28.243 -15.860  -5.501  0.00  0.00    -0.267 OA
ATOM     12  H   UNL d   1      28.581 -14.567  -2.587  0.00  0.00     0.171 HD
BRANCH  10  13
ATOM     13  C   UNL d   1      27.613 -13.737  -4.933  0.00  0.00     0.033 A 
ATOM     14  C   UNL d   1      26.448 -13.330  -4.251  0.00  0.00     0.017 A 
ATOM     15  C   UNL d   1      25.691 -12.234  -4.688  0.00  0.00     0.009 A 
ATOM     16  C   UNL d   1      26.118 -11.473  -5.784  0.00  0.00    -0.045 A 
ATOM     17  C   UNL d   1      25.375 -10.212  -6.136  0.00  0.00     0.049 C 
ATOM     18  C   UNL d   1      27.263 -11.902  -6.480  0.00  0.00     0.017 A 
ATOM     19 BR   UNL d   1      27.840 -11.013  -8.059  0.00  0.00    -0.051 Br
ATOM     20  C   UNL d   1      28.006 -13.025  -6.065  0.00  0.00     0.036 A 
ENDBRANCH  10  13
ENDBRANCH   7   9
ENDBRANCH   5   7
ENDBRANCH   3   5
BRANCH   1  21
ATOM     21  C   UNL d   1      25.178 -16.962  -0.912  0.00  0.00     0.033 A 
ATOM     22  C   UNL d   1      25.034 -18.289  -0.450  0.00  0.00     0.019 A 
ATOM     23  C   UNL d   1      23.762 -18.845  -0.148  0.00  0.00     0.030 A 
ATOM     24  C   UNL d   1      22.608 -18.072  -0.275  0.00  0.00     0.034 A 
ATOM     25  C   UNL d   1      22.753 -16.746  -0.692  0.00  0.00     0.030 A 
ATOM     26  C   UNL d   1      24.011 -16.194  -0.997  0.00  0.00     0.019 A 
BRANCH  24  27
ATOM     27  N   UNL d   1      21.322 -18.589   0.047  0.00  0.00    -0.327 N 
ATOM     28  C   UNL d   1      20.548 -19.270  -0.888  0.00  0.00     0.222 C 
ATOM     29  O   UNL d   1      20.942 -19.550  -2.019  0.00  0.00    -0.273 OA
ATOM     30  H   UNL d   1      21.035 -18.587   1.018  0.00  0.00     0.169 HD
BRANCH  28  31
ATOM     31  C   UNL d   1      19.159 -19.701  -0.420  0.00  0.00     0.103 C 
BRANCH  31  32
ATOM     32  C   UNL d   1      19.294 -20.815   0.633  0.00  0.00     0.005 C 
ATOM     33  C   UNL d   1      17.961 -21.254   1.210  0.00  0.00     0.005 C 
ENDBRANCH  31  32
ENDBRANCH  28  31
ENDBRANCH  24  27
ENDBRANCH   1  21
TORSDOF 8
ENDMDL
MODEL 7
REMARK VINA RESULT:    -9.384      2.018      2.271
REMARK INTER + INTRA:         -13.642
REMARK INTER:                 -11.770
REMARK INTRA:                  -1.872
REMARK CONF_INDEPENDENT:        2.386
REMARK UNBOUND:                -1.872
REMARK  8 active torsions:
REMARK  status: ('A' for Active; 'I' for Inactive)
REMARK    1  A    between atoms: C_2  and  C_3 
REMARK    2  A    between atoms: C_3  and  C_4 
REMARK       I    between atoms: C_4  and  N_6 
REMARK    3  A    between atoms: N_6  and  C_7 
REMARK    4  A    between atoms: C_10  and  C_11 
REMARK       I    between atoms: C_11  and  N_13 
REMARK    5  A    between atoms: N_13  and  N_14 
REMARK    6  A    between atoms: N_14  and  C_15 
REMARK    7  A    between atoms: C_15  and  N_17 
REMARK       I    between atoms: N_17  and  C_18 
REMARK    8  A    between atoms: C_18  and  C_20 
ROOT
ATOM      1  C   UNL d   1      25.951 -15.985  -1.618  0.00  0.00     0.270 C 
ATOM      2  O   UNL d   1      26.338 -16.190  -2.773  0.00  0.00    -0.266 OA
ATOM      3  N   UNL d   1      26.533 -15.013  -0.813  0.00  0.00    -0.264 N 
ATOM      4  H   UNL d   1      26.212 -14.808   0.131  0.00  0.00     0.190 HD
ENDROOT
BRANCH   3   5
ATOM      5  N   UNL d   1      27.620 -14.154  -1.259  0.00  0.00    -0.273 N 
ATOM      6  H   UNL d   1      28.327 -14.617  -1.826  0.00  0.00     0.189 HD
BRANCH   5   7
ATOM      7  C   UNL d   1      27.603 -12.797  -0.873  0.00  0.00     0.193 C 
ATOM      8  S   UNL d   1      27.342 -11.608  -2.045  0.00  0.00    -0.039 SA
BRANCH   7   9
ATOM      9  N   UNL d   1      27.814 -12.547   0.506  0.00  0.00    -0.298 N 
ATOM     10  C   UNL d   1      26.893 -12.797   1.550  0.00  0.00     0.257 C 
ATOM     11  O   UNL d   1      25.763 -13.267   1.400  0.00  0.00    -0.267 OA
ATOM     12  H   UNL d   1      28.723 -12.204   0.780  0.00  0.00     0.171 HD
BRANCH  10  13
ATOM     13  C   UNL d   1      27.228 -12.489   2.974  0.00  0.00     0.033 A 
ATOM     14  C   UNL d   1      27.278 -11.135   3.365  0.00  0.00     0.017 A 
ATOM     15  C   UNL d   1      27.808 -10.753   4.605  0.00  0.00     0.009 A 
ATOM     16  C   UNL d   1      28.243 -11.723   5.517  0.00  0.00    -0.045 A 
ATOM     17  C   UNL d   1      28.661 -11.298   6.899  0.00  0.00     0.049 C 
ATOM     18  C   UNL d   1      28.221 -13.070   5.109  0.00  0.00     0.017 A 
ATOM     19 BR   UNL d   1      28.918 -14.444   6.224  0.00  0.00    -0.051 Br
ATOM     20  C   UNL d   1      27.722 -13.454   3.848  0.00  0.00     0.036 A 
ENDBRANCH  10  13
ENDBRANCH   7   9
ENDBRANCH   5   7
ENDBRANCH   3   5
BRANCH   1  21
ATOM     21  C   UNL d   1      24.785 -16.789  -1.048  0.00  0.00     0.033 A 
ATOM     22  C   UNL d   1      24.990 -18.106  -0.583  0.00  0.00     0.019 A 
ATOM     23  C   UNL d   1      23.914 -18.924  -0.147  0.00  0.00     0.030 A 
ATOM     24  C   UNL d   1      22.610 -18.427  -0.140  0.00  0.00     0.034 A 
ATOM     25  C   UNL d   1      22.411 -17.109  -0.560  0.00  0.00     0.030 A 
ATOM     26  C   UNL d   1      23.475 -16.298  -0.998  0.00  0.00     0.019 A 
BRANCH  24  27
ATOM     27  N   UNL d   1      21.514 -19.210   0.318  0.00  0.00    -0.327 N 
ATOM     28  C   UNL d   1      20.545 -19.700  -0.553  0.00  0.00     0.222 C 
ATOM     29  O   UNL d   1      20.606 -19.573  -1.775  0.00  0.00    -0.273 OA
ATOM     30  H   UNL d   1      21.527 -19.536   1.277  0.00  0.00     0.169 HD
BRANCH  28  31
ATOM     31  C   UNL d   1      19.388 -20.460   0.093  0.00  0.00     0.103 C 
BRANCH  31  32
ATOM     32  C   UNL d   1      19.028 -19.805   1.438  0.00  0.00     0.005 C 
ATOM     33  C   UNL d   1      19.756 -20.422   2.617  0.00  0.00     0.005 C 
ENDBRANCH  31  32
ENDBRANCH  28  31
ENDBRANCH  24  27
ENDBRANCH   1  21
TORSDOF 8
ENDMDL
MODEL 8
REMARK VINA RESULT:    -9.325      5.602      8.117
REMARK INTER + INTRA:         -13.488
REMARK INTER:                 -11.711
REMARK INTRA:                  -1.777
REMARK CONF_INDEPENDENT:        2.386
REMARK UNBOUND:                -1.777
REMARK  8 active torsions:
REMARK  status: ('A' for Active; 'I' for Inactive)
REMARK    1  A    between atoms: C_2  and  C_3 
REMARK    2  A    between atoms: C_3  and  C_4 
REMARK       I    between atoms: C_4  and  N_6 
REMARK    3  A    between atoms: N_6  and  C_7 
REMARK    4  A    between atoms: C_10  and  C_11 
REMARK       I    between atoms: C_11  and  N_13 
REMARK    5  A    between atoms: N_13  and  N_14 
REMARK    6  A    between atoms: N_14  and  C_15 
REMARK    7  A    between atoms: C_15  and  N_17 
REMARK       I    between atoms: N_17  and  C_18 
REMARK    8  A    between atoms: C_18  and  C_20 
ROOT
ATOM      1  C   UNL d   1      26.258 -16.568  -1.460  0.00  0.00     0.270 C 
ATOM      2  O   UNL d   1      27.239 -16.639  -0.712  0.00  0.00    -0.266 OA
ATOM      3  N   UNL d   1      26.356 -16.048  -2.745  0.00  0.00    -0.264 N 
ATOM      4  H   UNL d   1      25.568 -16.005  -3.389  0.00  0.00     0.190 HD
ENDROOT
BRANCH   3   5
ATOM      5  N   UNL d   1      27.603 -15.565  -3.319  0.00  0.00    -0.273 N 
ATOM      6  H   UNL d   1      28.417 -15.659  -2.714  0.00  0.00     0.189 HD
BRANCH   5   7
ATOM      7  C   UNL d   1      27.576 -15.021  -4.620  0.00  0.00     0.193 C 
ATOM      8  S   UNL d   1      26.384 -13.890  -5.018  0.00  0.00    -0.039 SA
BRANCH   7   9
ATOM      9  N   UNL d   1      28.582 -15.486  -5.503  0.00  0.00    -0.298 N 
ATOM     10  C   UNL d   1      29.739 -16.216  -5.141  0.00  0.00     0.257 C 
ATOM     11  O   UNL d   1      30.037 -16.544  -3.991  0.00  0.00    -0.267 OA
ATOM     12  H   UNL d   1      28.439 -15.328  -6.490  0.00  0.00     0.171 HD
BRANCH  10  13
ATOM     13  C   UNL d   1      30.735 -16.654  -6.166  0.00  0.00     0.033 A 
ATOM     14  C   UNL d   1      31.678 -15.709  -6.620  0.00  0.00     0.017 A 
ATOM     15  C   UNL d   1      32.486 -15.964  -7.736  0.00  0.00     0.009 A 
ATOM     16  C   UNL d   1      32.419 -17.201  -8.390  0.00  0.00    -0.045 A 
ATOM     17  C   UNL d   1      33.404 -17.508  -9.486  0.00  0.00     0.049 C 
ATOM     18  C   UNL d   1      31.454 -18.127  -7.953  0.00  0.00     0.017 A 
ATOM     19 BR   UNL d   1      31.195 -19.776  -8.864  0.00  0.00    -0.051 Br
ATOM     20  C   UNL d   1      30.615 -17.859  -6.853  0.00  0.00     0.036 A 
ENDBRANCH  10  13
ENDBRANCH   7   9
ENDBRANCH   5   7
ENDBRANCH   3   5
BRANCH   1  21
ATOM     21  C   UNL d   1      24.900 -17.086  -0.994  0.00  0.00     0.033 A 
ATOM     22  C   UNL d   1      24.774 -18.402  -0.496  0.00  0.00     0.019 A 
ATOM     23  C   UNL d   1      23.512 -18.957  -0.154  0.00  0.00     0.030 A 
ATOM     24  C   UNL d   1      22.351 -18.193  -0.276  0.00  0.00     0.034 A 
ATOM     25  C   UNL d   1      22.479 -16.877  -0.728  0.00  0.00     0.030 A 
ATOM     26  C   UNL d   1      23.728 -16.326  -1.072  0.00  0.00     0.019 A 
BRANCH  24  27
ATOM     27  N   UNL d   1      21.076 -18.709   0.086  0.00  0.00    -0.327 N 
ATOM     28  C   UNL d   1      20.280 -19.405  -0.820  0.00  0.00     0.222 C 
ATOM     29  O   UNL d   1      20.646 -19.699  -1.957  0.00  0.00    -0.273 OA
ATOM     30  H   UNL d   1      20.814 -18.695   1.064  0.00  0.00     0.169 HD
BRANCH  28  31
ATOM     31  C   UNL d   1      18.905 -19.833  -0.311  0.00  0.00     0.103 C 
BRANCH  31  32
ATOM     32  C   UNL d   1      19.072 -20.849   0.832  0.00  0.00     0.005 C 
ATOM     33  C   UNL d   1      17.786 -21.576   1.178  0.00  0.00     0.005 C 
ENDBRANCH  31  32
ENDBRANCH  28  31
ENDBRANCH  24  27
ENDBRANCH   1  21
TORSDOF 8
ENDMDL
MODEL 9
REMARK VINA RESULT:    -8.999      4.629      6.486
REMARK INTER + INTRA:         -13.412
REMARK INTER:                 -11.385
REMARK INTRA:                  -2.027
REMARK CONF_INDEPENDENT:        2.386
REMARK UNBOUND:                -2.027
REMARK  8 active torsions:
REMARK  status: ('A' for Active; 'I' for Inactive)
REMARK    1  A    between atoms: C_2  and  C_3 
REMARK    2  A    between atoms: C_3  and  C_4 
REMARK       I    between atoms: C_4  and  N_6 
REMARK    3  A    between atoms: N_6  and  C_7 
REMARK    4  A    between atoms: C_10  and  C_11 
REMARK       I    between atoms: C_11  and  N_13 
REMARK    5  A    between atoms: N_13  and  N_14 
REMARK    6  A    between atoms: N_14  and  C_15 
REMARK    7  A    between atoms: C_15  and  N_17 
REMARK       I    between atoms: N_17  and  C_18 
REMARK    8  A    between atoms: C_18  and  C_20 
ROOT
ATOM      1  C   UNL d   1      27.348 -16.400  -1.701  0.00  0.00     0.270 C 
ATOM      2  O   UNL d   1      28.344 -16.658  -1.018  0.00  0.00    -0.266 OA
ATOM      3  N   UNL d   1      27.454 -15.798  -2.949  0.00  0.00    -0.264 N 
ATOM      4  H   UNL d   1      26.649 -15.602  -3.541  0.00  0.00     0.190 HD
ENDROOT
BRANCH   3   5
ATOM      5  N   UNL d   1      28.726 -15.440  -3.558  0.00  0.00    -0.273 N 
ATOM      6  H   UNL d   1      29.547 -15.673  -3.002  0.00  0.00     0.189 HD
BRANCH   5   7
ATOM      7  C   UNL d   1      28.712 -14.816  -4.822  0.00  0.00     0.193 C 
ATOM      8  S   UNL d   1      29.430 -15.599  -6.139  0.00  0.00    -0.039 SA
BRANCH   7   9
ATOM      9  N   UNL d   1      28.079 -13.550  -4.877  0.00  0.00    -0.298 N 
ATOM     10  C   UNL d   1      26.691 -13.304  -4.753  0.00  0.00     0.257 C 
ATOM     11  O   UNL d   1      25.831 -14.171  -4.585  0.00  0.00    -0.267 OA
ATOM     12  H   UNL d   1      28.674 -12.738  -4.963  0.00  0.00     0.171 HD
BRANCH  10  13
ATOM     13  C   UNL d   1      26.136 -11.918  -4.829  0.00  0.00     0.033 A 
ATOM     14  C   UNL d   1      25.825 -11.398  -6.102  0.00  0.00     0.017 A 
ATOM     15  C   UNL d   1      25.526 -10.040  -6.282  0.00  0.00     0.009 A 
ATOM     16  C   UNL d   1      25.466  -9.178  -5.180  0.00  0.00    -0.045 A 
ATOM     17  C   UNL d   1      24.991  -7.763  -5.379  0.00  0.00     0.049 C 
ATOM     18  C   UNL d   1      25.809  -9.695  -3.917  0.00  0.00     0.017 A 
ATOM     19 BR   UNL d   1      25.887  -8.571  -2.385  0.00  0.00    -0.051 Br
ATOM     20  C   UNL d   1      26.144 -11.052  -3.738  0.00  0.00     0.036 A 
ENDBRANCH  10  13
ENDBRANCH   7   9
ENDBRANCH   5   7
ENDBRANCH   3   5
BRANCH   1  21
ATOM     21  C   UNL d   1      25.956 -16.770  -1.195  0.00  0.00     0.033 A 
ATOM     22  C   UNL d   1      25.735 -18.017  -0.569  0.00  0.00     0.019 A 
ATOM     23  C   UNL d   1      24.437 -18.443  -0.183  0.00  0.00     0.030 A 
ATOM     24  C   UNL d   1      23.334 -17.614  -0.389  0.00  0.00     0.034 A 
ATOM     25  C   UNL d   1      23.557 -16.362  -0.968  0.00  0.00     0.030 A 
ATOM     26  C   UNL d   1      24.842 -15.940  -1.357  0.00  0.00     0.019 A 
BRANCH  24  27
ATOM     27  N   UNL d   1      22.025 -17.999   0.014  0.00  0.00    -0.327 N 
ATOM     28  C   UNL d   1      21.219 -18.808  -0.782  0.00  0.00     0.222 C 
ATOM     29  O   UNL d   1      21.600 -19.318  -1.835  0.00  0.00    -0.273 OA
ATOM     30  H   UNL d   1      21.738 -17.797   0.964  0.00  0.00     0.169 HD
BRANCH  28  31
ATOM     31  C   UNL d   1      19.811 -19.075  -0.254  0.00  0.00     0.103 C 
BRANCH  31  32
ATOM     32  C   UNL d   1      19.825 -20.327   0.641  0.00  0.00     0.005 C 
ATOM     33  C   UNL d   1      18.497 -21.059   0.665  0.00  0.00     0.005 C 
ENDBRANCH  31  32
ENDBRANCH  28  31
ENDBRANCH  24  27
ENDBRANCH   1  21
TORSDOF 8
ENDMDL
