MODEL 1
REMARK VINA RESULT:   -10.785      0.000      0.000
REMARK INTER + INTRA:         -14.581
REMARK INTER:                 -13.172
REMARK INTRA:                  -1.409
REMARK CONF_INDEPENDENT:        2.386
REMARK UNBOUND:                -1.409
REMARK  8 active torsions:
REMARK  status: ('A' for Active; 'I' for Inactive)
REMARK    1  A    between atoms: O_2  and  C_3 
REMARK    2  A    between atoms: C_8  and  S_9 
REMARK    3  A    between atoms: S_9  and  C_10 
REMARK    4  A    between atoms: C_10  and  C_11 
REMARK       I    between atoms: C_11  and  N_13 
REMARK    5  A    between atoms: N_13  and  C_14 
REMARK    6  A    between atoms: C_19  and  C_20 
REMARK       I    between atoms: C_20  and  N_22 
REMARK    7  A    between atoms: N_22  and  C_23 
REMARK    8  A    between atoms: C_23  and  C_24 
ROOT
ATOM      1  C   UNL d   1      25.345 -15.239  -3.131  0.00  0.00     0.231 C 
ATOM      2  O   UNL d   1      25.523 -16.305  -3.730  0.00  0.00    -0.272 OA
ATOM      3  N   UNL d   1      25.619 -15.107  -1.747  0.00  0.00    -0.326 N 
ATOM      4  H   UNL d   1      25.246 -14.306  -1.246  0.00  0.00     0.169 HD
ENDROOT
BRANCH   3   5
ATOM      5  C   UNL d   1      25.957 -16.231  -0.927  0.00  0.00     0.050 A 
ATOM      6  C   UNL d   1      27.325 -16.386  -0.593  0.00  0.00     0.030 A 
ATOM      7  C   UNL d   1      27.768 -17.431   0.230  0.00  0.00     0.002 A 
ATOM      8  C   UNL d   1      26.847 -18.328   0.753  0.00  0.00     0.001 A 
ATOM      9  C   UNL d   1      25.498 -18.210   0.404  0.00  0.00     0.019 A 
ATOM     10  C   UNL d   1      25.024 -17.180  -0.448  0.00  0.00     0.058 A 
BRANCH  10  11
ATOM     11  C   UNL d   1      23.558 -17.241  -0.796  0.00  0.00     0.254 C 
ATOM     12  O   UNL d   1      23.002 -16.225  -1.274  0.00  0.00    -0.268 OA
ATOM     13  N   UNL d   1      22.829 -18.379  -0.550  0.00  0.00    -0.353 N 
ATOM     14  H   UNL d   1      23.324 -19.174  -0.173  0.00  0.00     0.163 HD
BRANCH  13  15
ATOM     15  C   UNL d   1      21.495 -18.581  -1.142  0.00  0.00     0.161 C 
BRANCH  15  16
ATOM     16  C   UNL d   1      20.497 -19.120  -0.156  0.00  0.00    -0.041 C 
ATOM     17  C   UNL d   1      20.655 -19.323   1.226  0.00  0.00     0.009 C 
ATOM     18  C   UNL d   1      19.734 -20.066   2.001  0.00  0.00     0.001 C 
ATOM     19  C   UNL d   1      18.711 -20.693   1.386  0.00  0.00     0.000 C 
ATOM     20  C   UNL d   1      18.690 -20.524   0.041  0.00  0.00     0.001 C 
ATOM     21  C   UNL d   1      19.344 -19.564  -0.700  0.00  0.00     0.009 C 
ENDBRANCH  15  16
ENDBRANCH  13  15
ENDBRANCH  10  11
ENDBRANCH   3   5
BRANCH   1  22
ATOM     22  C   UNL d   1      25.015 -13.887  -3.839  0.00  0.00     0.185 C 
BRANCH  22  23
ATOM     23  S   UNL d   1      26.527 -13.169  -5.000  0.00  0.00    -0.083 SA
BRANCH  23  24
ATOM     24  C   UNL d   1      27.838 -14.431  -5.306  0.00  0.00     0.168 C 
ATOM     25  N   UNL d   1      28.249 -15.428  -4.521  0.00  0.00    -0.223 NA
ATOM     26  C   UNL d   1      29.296 -16.067  -5.211  0.00  0.00     0.086 C 
ATOM     27  C   UNL d   1      30.018 -17.259  -4.982  0.00  0.00     0.037 C 
ATOM     28  C   UNL d   1      29.605 -15.352  -6.360  0.00  0.00     0.066 C 
ATOM     29  C   UNL d   1      30.883 -17.727  -6.000  0.00  0.00     0.039 C 
ATOM     30  C   UNL d   1      31.174 -16.948  -7.125  0.00  0.00     0.070 C 
ATOM     31  C   UNL d   1      30.625 -15.676  -7.261  0.00  0.00     0.068 C 
ATOM     32  N   UNL d   1      28.705 -14.316  -6.369  0.00  0.00    -0.333 N 
ATOM     33  H   UNL d   1      28.881 -13.467  -6.871  0.00  0.00     0.168 HD
BRANCH  30  34
ATOM     34  O   UNL d   1      31.997 -17.353  -8.146  0.00  0.00    -0.356 OA
ATOM     35  C   UNL d   1      32.006 -18.767  -8.342  0.00  0.00     0.210 C 
ENDBRANCH  30  34
ENDBRANCH  23  24
ENDBRANCH  22  23
ENDBRANCH   1  22
TORSDOF 8
ENDMDL
MODEL 2
REMARK VINA RESULT:   -10.628      0.990      1.588
REMARK INTER + INTRA:         -15.194
REMARK INTER:                 -13.014
REMARK INTRA:                  -2.180
REMARK CONF_INDEPENDENT:        2.386
REMARK UNBOUND:                -2.180
REMARK  8 active torsions:
REMARK  status: ('A' for Active; 'I' for Inactive)
REMARK    1  A    between atoms: O_2  and  C_3 
REMARK    2  A    between atoms: C_8  and  S_9 
REMARK    3  A    between atoms: S_9  and  C_10 
REMARK    4  A    between atoms: C_10  and  C_11 
REMARK       I    between atoms: C_11  and  N_13 
REMARK    5  A    between atoms: N_13  and  C_14 
REMARK    6  A    between atoms: C_19  and  C_20 
REMARK       I    between atoms: C_20  and  N_22 
REMARK    7  A    between atoms: N_22  and  C_23 
REMARK    8  A    between atoms: C_23  and  C_24 
ROOT
ATOM      1  C   UNL d   1      25.176 -15.111  -3.123  0.00  0.00     0.231 C 
ATOM      2  O   UNL d   1      25.528 -16.064  -3.826  0.00  0.00    -0.272 OA
ATOM      3  N   UNL d   1      25.321 -15.131  -1.714  0.00  0.00    -0.326 N 
ATOM      4  H   UNL d   1      24.815 -14.448  -1.158  0.00  0.00     0.169 HD
ENDROOT
BRANCH   3   5
ATOM      5  C   UNL d   1      25.723 -16.309  -1.006  0.00  0.00     0.050 A 
ATOM      6  C   UNL d   1      27.114 -16.483  -0.802  0.00  0.00     0.030 A 
ATOM      7  C   UNL d   1      27.622 -17.582  -0.094  0.00  0.00     0.002 A 
ATOM      8  C   UNL d   1      26.746 -18.517   0.441  0.00  0.00     0.001 A 
ATOM      9  C   UNL d   1      25.373 -18.379   0.216  0.00  0.00     0.019 A 
ATOM     10  C   UNL d   1      24.831 -17.292  -0.519  0.00  0.00     0.058 A 
BRANCH  10  11
ATOM     11  C   UNL d   1      23.341 -17.334  -0.745  0.00  0.00     0.254 C 
ATOM     12  O   UNL d   1      22.734 -16.269  -1.007  0.00  0.00    -0.268 OA
ATOM     13  N   UNL d   1      22.648 -18.513  -0.619  0.00  0.00    -0.353 N 
ATOM     14  H   UNL d   1      23.183 -19.345  -0.416  0.00  0.00     0.163 HD
BRANCH  13  15
ATOM     15  C   UNL d   1      21.269 -18.652  -1.118  0.00  0.00     0.161 C 
BRANCH  15  16
ATOM     16  C   UNL d   1      20.326 -19.188  -0.079  0.00  0.00    -0.041 C 
ATOM     17  C   UNL d   1      20.536 -19.330   1.304  0.00  0.00     0.009 C 
ATOM     18  C   UNL d   1      19.671 -20.076   2.138  0.00  0.00     0.001 C 
ATOM     19  C   UNL d   1      18.654 -20.766   1.582  0.00  0.00     0.000 C 
ATOM     20  C   UNL d   1      18.583 -20.652   0.233  0.00  0.00     0.001 C 
ATOM     21  C   UNL d   1      19.174 -19.699  -0.566  0.00  0.00     0.009 C 
ENDBRANCH  15  16
ENDBRANCH  13  15
ENDBRANCH  10  11
ENDBRANCH   3   5
BRANCH   1  22
ATOM     22  C   UNL d   1      24.745 -13.722  -3.691  0.00  0.00     0.185 C 
BRANCH  22  23
ATOM     23  S   UNL d   1      26.100 -12.891  -4.965  0.00  0.00    -0.083 SA
BRANCH  23  24
ATOM     24  C   UNL d   1      27.515 -14.020  -5.319  0.00  0.00     0.168 C 
ATOM     25  N   UNL d   1      28.149 -14.244  -6.471  0.00  0.00    -0.223 NA
ATOM     26  C   UNL d   1      29.125 -15.222  -6.201  0.00  0.00     0.086 C 
ATOM     27  C   UNL d   1      30.194 -15.753  -6.955  0.00  0.00     0.037 C 
ATOM     28  C   UNL d   1      28.975 -15.687  -4.903  0.00  0.00     0.066 C 
ATOM     29  C   UNL d   1      31.127 -16.592  -6.299  0.00  0.00     0.039 C 
ATOM     30  C   UNL d   1      30.907 -17.048  -4.995  0.00  0.00     0.070 C 
ATOM     31  C   UNL d   1      29.746 -16.694  -4.313  0.00  0.00     0.068 C 
ATOM     32  N   UNL d   1      27.937 -14.947  -4.392  0.00  0.00    -0.333 N 
ATOM     33  H   UNL d   1      27.389 -15.269  -3.618  0.00  0.00     0.168 HD
BRANCH  30  34
ATOM     34  O   UNL d   1      31.779 -17.854  -4.308  0.00  0.00    -0.356 OA
ATOM     35  C   UNL d   1      31.157 -18.615  -3.273  0.00  0.00     0.210 C 
ENDBRANCH  30  34
ENDBRANCH  23  24
ENDBRANCH  22  23
ENDBRANCH   1  22
TORSDOF 8
ENDMDL
MODEL 3
REMARK VINA RESULT:   -10.167      3.467      5.571
REMARK INTER + INTRA:         -14.771
REMARK INTER:                 -12.554
REMARK INTRA:                  -2.218
REMARK CONF_INDEPENDENT:        2.386
REMARK UNBOUND:                -2.218
REMARK  8 active torsions:
REMARK  status: ('A' for Active; 'I' for Inactive)
REMARK    1  A    between atoms: O_2  and  C_3 
REMARK    2  A    between atoms: C_8  and  S_9 
REMARK    3  A    between atoms: S_9  and  C_10 
REMARK    4  A    between atoms: C_10  and  C_11 
REMARK       I    between atoms: C_11  and  N_13 
REMARK    5  A    between atoms: N_13  and  C_14 
REMARK    6  A    between atoms: C_19  and  C_20 
REMARK       I    between atoms: C_20  and  N_22 
REMARK    7  A    between atoms: N_22  and  C_23 
REMARK    8  A    between atoms: C_23  and  C_24 
ROOT
ATOM      1  C   UNL d   1      25.846 -15.280  -3.178  0.00  0.00     0.231 C 
ATOM      2  O   UNL d   1      26.847 -15.950  -3.460  0.00  0.00    -0.272 OA
ATOM      3  N   UNL d   1      25.188 -15.415  -1.931  0.00  0.00    -0.326 N 
ATOM      4  H   UNL d   1      24.253 -15.033  -1.825  0.00  0.00     0.169 HD
ENDROOT
BRANCH   3   5
ATOM      5  C   UNL d   1      25.534 -16.440  -0.994  0.00  0.00     0.050 A 
ATOM      6  C   UNL d   1      26.908 -16.576  -0.677  0.00  0.00     0.030 A 
ATOM      7  C   UNL d   1      27.359 -17.524   0.253  0.00  0.00     0.002 A 
ATOM      8  C   UNL d   1      26.441 -18.340   0.898  0.00  0.00     0.001 A 
ATOM      9  C   UNL d   1      25.084 -18.244   0.570  0.00  0.00     0.019 A 
ATOM     10  C   UNL d   1      24.601 -17.313  -0.386  0.00  0.00     0.058 A 
BRANCH  10  11
ATOM     11  C   UNL d   1      23.126 -17.393  -0.689  0.00  0.00     0.254 C 
ATOM     12  O   UNL d   1      22.538 -16.376  -1.125  0.00  0.00    -0.268 OA
ATOM     13  N   UNL d   1      22.425 -18.549  -0.448  0.00  0.00    -0.353 N 
ATOM     14  H   UNL d   1      22.946 -19.344  -0.106  0.00  0.00     0.163 HD
BRANCH  13  15
ATOM     15  C   UNL d   1      21.077 -18.761  -1.002  0.00  0.00     0.161 C 
BRANCH  15  16
ATOM     16  C   UNL d   1      20.115 -19.323   0.006  0.00  0.00    -0.041 C 
ATOM     17  C   UNL d   1      20.286 -19.462   1.395  0.00  0.00     0.009 C 
ATOM     18  C   UNL d   1      19.414 -20.230   2.201  0.00  0.00     0.001 C 
ATOM     19  C   UNL d   1      18.431 -20.943   1.613  0.00  0.00     0.000 C 
ATOM     20  C   UNL d   1      18.400 -20.828   0.263  0.00  0.00     0.001 C 
ATOM     21  C   UNL d   1      18.992 -19.859  -0.516  0.00  0.00     0.009 C 
ENDBRANCH  15  16
ENDBRANCH  13  15
ENDBRANCH  10  11
ENDBRANCH   3   5
BRANCH   1  22
ATOM     22  C   UNL d   1      25.327 -14.087  -4.039  0.00  0.00     0.185 C 
BRANCH  22  23
ATOM     23  S   UNL d   1      26.224 -12.307  -3.618  0.00  0.00    -0.083 SA
BRANCH  23  24
ATOM     24  C   UNL d   1      26.661 -12.147  -1.833  0.00  0.00     0.168 C 
ATOM     25  N   UNL d   1      27.193 -11.110  -1.184  0.00  0.00    -0.223 NA
ATOM     26  C   UNL d   1      27.360 -11.524   0.152  0.00  0.00     0.086 C 
ATOM     27  C   UNL d   1      27.720 -10.844   1.335  0.00  0.00     0.037 C 
ATOM     28  C   UNL d   1      27.052 -12.872   0.266  0.00  0.00     0.066 C 
ATOM     29  C   UNL d   1      27.592 -11.527   2.568  0.00  0.00     0.039 C 
ATOM     30  C   UNL d   1      27.304 -12.895   2.617  0.00  0.00     0.070 C 
ATOM     31  C   UNL d   1      27.149 -13.624   1.441  0.00  0.00     0.068 C 
ATOM     32  N   UNL d   1      26.659 -13.241  -0.997  0.00  0.00    -0.333 N 
ATOM     33  H   UNL d   1      26.696 -14.194  -1.305  0.00  0.00     0.168 HD
BRANCH  30  34
ATOM     34  O   UNL d   1      27.159 -13.607   3.782  0.00  0.00    -0.356 OA
ATOM     35  C   UNL d   1      28.166 -14.600   3.972  0.00  0.00     0.210 C 
ENDBRANCH  30  34
ENDBRANCH  23  24
ENDBRANCH  22  23
ENDBRANCH   1  22
TORSDOF 8
ENDMDL
MODEL 4
REMARK VINA RESULT:    -8.933      2.233      9.263
REMARK INTER + INTRA:         -14.390
REMARK INTER:                 -11.320
REMARK INTRA:                  -3.070
REMARK CONF_INDEPENDENT:        2.386
REMARK UNBOUND:                -3.070
REMARK  8 active torsions:
REMARK  status: ('A' for Active; 'I' for Inactive)
REMARK    1  A    between atoms: O_2  and  C_3 
REMARK    2  A    between atoms: C_8  and  S_9 
REMARK    3  A    between atoms: S_9  and  C_10 
REMARK    4  A    between atoms: C_10  and  C_11 
REMARK       I    between atoms: C_11  and  N_13 
REMARK    5  A    between atoms: N_13  and  C_14 
REMARK    6  A    between atoms: C_19  and  C_20 
REMARK       I    between atoms: C_20  and  N_22 
REMARK    7  A    between atoms: N_22  and  C_23 
REMARK    8  A    between atoms: C_23  and  C_24 
ROOT
ATOM      1  C   UNL d   1      28.294 -15.093  -1.208  0.00  0.00     0.231 C 
ATOM      2  O   UNL d   1      28.617 -13.910  -1.366  0.00  0.00    -0.272 OA
ATOM      3  N   UNL d   1      27.322 -15.715  -2.029  0.00  0.00    -0.326 N 
ATOM      4  H   UNL d   1      26.915 -16.596  -1.728  0.00  0.00     0.169 HD
ENDROOT
BRANCH   3   5
ATOM      5  C   UNL d   1      26.539 -14.979  -2.975  0.00  0.00     0.050 A 
ATOM      6  C   UNL d   1      25.242 -14.588  -2.560  0.00  0.00     0.030 A 
ATOM      7  C   UNL d   1      24.400 -13.835  -3.391  0.00  0.00     0.002 A 
ATOM      8  C   UNL d   1      24.846 -13.442  -4.644  0.00  0.00     0.001 A 
ATOM      9  C   UNL d   1      26.110 -13.851  -5.084  0.00  0.00     0.019 A 
ATOM     10  C   UNL d   1      26.975 -14.635  -4.276  0.00  0.00     0.058 A 
BRANCH  10  11
ATOM     11  C   UNL d   1      28.266 -15.064  -4.926  0.00  0.00     0.254 C 
ATOM     12  O   UNL d   1      28.233 -15.570  -6.072  0.00  0.00    -0.268 OA
ATOM     13  N   UNL d   1      29.458 -14.946  -4.255  0.00  0.00    -0.353 N 
ATOM     14  H   UNL d   1      29.434 -14.523  -3.338  0.00  0.00     0.163 HD
BRANCH  13  15
ATOM     15  C   UNL d   1      30.749 -15.069  -4.953  0.00  0.00     0.161 C 
BRANCH  15  16
ATOM     16  C   UNL d   1      30.933 -16.409  -5.606  0.00  0.00    -0.041 C 
ATOM     17  C   UNL d   1      31.060 -16.705  -6.975  0.00  0.00     0.009 C 
ATOM     18  C   UNL d   1      30.978 -18.022  -7.485  0.00  0.00     0.001 C 
ATOM     19  C   UNL d   1      30.668 -19.033  -6.648  0.00  0.00     0.000 C 
ATOM     20  C   UNL d   1      30.466 -18.645  -5.365  0.00  0.00     0.001 C 
ATOM     21  C   UNL d   1      30.853 -17.465  -4.769  0.00  0.00     0.009 C 
ENDBRANCH  15  16
ENDBRANCH  13  15
ENDBRANCH  10  11
ENDBRANCH   3   5
BRANCH   1  22
ATOM     22  C   UNL d   1      29.044 -16.081  -0.261  0.00  0.00     0.185 C 
BRANCH  22  23
ATOM     23  S   UNL d   1      28.080 -17.853   0.022  0.00  0.00    -0.083 SA
BRANCH  23  24
ATOM     24  C   UNL d   1      26.254 -17.700  -0.191  0.00  0.00     0.168 C 
ATOM     25  N   UNL d   1      25.483 -16.614  -0.116  0.00  0.00    -0.223 NA
ATOM     26  C   UNL d   1      24.161 -17.053  -0.318  0.00  0.00     0.086 C 
ATOM     27  C   UNL d   1      22.937 -16.376  -0.507  0.00  0.00     0.037 C 
ATOM     28  C   UNL d   1      24.132 -18.439  -0.374  0.00  0.00     0.066 C 
ATOM     29  C   UNL d   1      21.804 -17.131  -0.894  0.00  0.00     0.039 C 
ATOM     30  C   UNL d   1      21.829 -18.530  -0.907  0.00  0.00     0.070 C 
ATOM     31  C   UNL d   1      22.978 -19.216  -0.521  0.00  0.00     0.068 C 
ATOM     32  N   UNL d   1      25.447 -18.814  -0.251  0.00  0.00    -0.333 N 
ATOM     33  H   UNL d   1      25.709 -19.725   0.072  0.00  0.00     0.168 HD
BRANCH  30  34
ATOM     34  O   UNL d   1      20.766 -19.312  -1.282  0.00  0.00    -0.356 OA
ATOM     35  C   UNL d   1      19.864 -19.597  -0.213  0.00  0.00     0.210 C 
ENDBRANCH  30  34
ENDBRANCH  23  24
ENDBRANCH  22  23
ENDBRANCH   1  22
TORSDOF 8
ENDMDL
MODEL 5
REMARK VINA RESULT:    -8.821      2.107      8.376
REMARK INTER + INTRA:         -14.135
REMARK INTER:                 -11.207
REMARK INTRA:                  -2.928
REMARK CONF_INDEPENDENT:        2.386
REMARK UNBOUND:                -2.928
REMARK  8 active torsions:
REMARK  status: ('A' for Active; 'I' for Inactive)
REMARK    1  A    between atoms: O_2  and  C_3 
REMARK    2  A    between atoms: C_8  and  S_9 
REMARK    3  A    between atoms: S_9  and  C_10 
REMARK    4  A    between atoms: C_10  and  C_11 
REMARK       I    between atoms: C_11  and  N_13 
REMARK    5  A    between atoms: N_13  and  C_14 
REMARK    6  A    between atoms: C_19  and  C_20 
REMARK       I    between atoms: C_20  and  N_22 
REMARK    7  A    between atoms: N_22  and  C_23 
REMARK    8  A    between atoms: C_23  and  C_24 
ROOT
ATOM      1  C   UNL d   1      29.454 -16.532  -2.042  0.00  0.00     0.231 C 
ATOM      2  O   UNL d   1      28.360 -16.919  -2.465  0.00  0.00    -0.272 OA
ATOM      3  N   UNL d   1      30.670 -16.915  -2.661  0.00  0.00    -0.326 N 
ATOM      4  H   UNL d   1      31.542 -16.776  -2.159  0.00  0.00     0.169 HD
ENDROOT
BRANCH   3   5
ATOM      5  C   UNL d   1      30.719 -17.897  -3.702  0.00  0.00     0.050 A 
ATOM      6  C   UNL d   1      31.169 -19.189  -3.335  0.00  0.00     0.030 A 
ATOM      7  C   UNL d   1      31.227 -20.239  -4.263  0.00  0.00     0.002 A 
ATOM      8  C   UNL d   1      30.817 -20.020  -5.571  0.00  0.00     0.001 A 
ATOM      9  C   UNL d   1      30.405 -18.741  -5.958  0.00  0.00     0.019 A 
ATOM     10  C   UNL d   1      30.361 -17.653  -5.048  0.00  0.00     0.058 A 
BRANCH  10  11
ATOM     11  C   UNL d   1      29.976 -16.320  -5.640  0.00  0.00     0.254 C 
ATOM     12  O   UNL d   1      30.236 -16.090  -6.844  0.00  0.00    -0.268 OA
ATOM     13  N   UNL d   1      29.391 -15.353  -4.861  0.00  0.00    -0.353 N 
ATOM     14  H   UNL d   1      29.193 -15.590  -3.899  0.00  0.00     0.163 HD
BRANCH  13  15
ATOM     15  C   UNL d   1      28.737 -14.176  -5.457  0.00  0.00     0.161 C 
BRANCH  15  16
ATOM     16  C   UNL d   1      27.300 -14.034  -5.040  0.00  0.00    -0.041 C 
ATOM     17  C   UNL d   1      26.610 -12.868  -4.663  0.00  0.00     0.009 C 
ATOM     18  C   UNL d   1      25.334 -12.898  -4.053  0.00  0.00     0.001 C 
ATOM     19  C   UNL d   1      24.788 -14.087  -3.726  0.00  0.00     0.000 C 
ATOM     20  C   UNL d   1      25.564 -15.154  -4.036  0.00  0.00     0.001 C 
ATOM     21  C   UNL d   1      26.629 -15.198  -4.909  0.00  0.00     0.009 C 
ENDBRANCH  15  16
ENDBRANCH  13  15
ENDBRANCH  10  11
ENDBRANCH   3   5
BRANCH   1  22
ATOM     22  C   UNL d   1      29.624 -15.434  -0.946  0.00  0.00     0.185 C 
BRANCH  22  23
ATOM     23  S   UNL d   1      27.868 -14.632  -0.295  0.00  0.00    -0.083 SA
BRANCH  23  24
ATOM     24  C   UNL d   1      26.479 -15.845  -0.352  0.00  0.00     0.168 C 
ATOM     25  N   UNL d   1      26.502 -17.165  -0.160  0.00  0.00    -0.223 NA
ATOM     26  C   UNL d   1      25.183 -17.616  -0.355  0.00  0.00     0.086 C 
ATOM     27  C   UNL d   1      24.546 -18.857  -0.144  0.00  0.00     0.037 C 
ATOM     28  C   UNL d   1      24.393 -16.569  -0.808  0.00  0.00     0.066 C 
ATOM     29  C   UNL d   1      23.136 -18.916  -0.251  0.00  0.00     0.039 C 
ATOM     30  C   UNL d   1      22.396 -17.834  -0.738  0.00  0.00     0.070 C 
ATOM     31  C   UNL d   1      23.039 -16.668  -1.145  0.00  0.00     0.068 C 
ATOM     32  N   UNL d   1      25.239 -15.489  -0.834  0.00  0.00    -0.333 N 
ATOM     33  H   UNL d   1      25.061 -14.691  -1.414  0.00  0.00     0.168 HD
BRANCH  30  34
ATOM     34  O   UNL d   1      21.028 -17.830  -0.854  0.00  0.00    -0.356 OA
ATOM     35  C   UNL d   1      20.474 -19.123  -1.093  0.00  0.00     0.210 C 
ENDBRANCH  30  34
ENDBRANCH  23  24
ENDBRANCH  22  23
ENDBRANCH   1  22
TORSDOF 8
ENDMDL
MODEL 6
REMARK VINA RESULT:    -8.290      3.406      5.571
REMARK INTER + INTRA:         -14.110
REMARK INTER:                 -10.676
REMARK INTRA:                  -3.433
REMARK CONF_INDEPENDENT:        2.386
REMARK UNBOUND:                -3.433
REMARK  8 active torsions:
REMARK  status: ('A' for Active; 'I' for Inactive)
REMARK    1  A    between atoms: O_2  and  C_3 
REMARK    2  A    between atoms: C_8  and  S_9 
REMARK    3  A    between atoms: S_9  and  C_10 
REMARK    4  A    between atoms: C_10  and  C_11 
REMARK       I    between atoms: C_11  and  N_13 
REMARK    5  A    between atoms: N_13  and  C_14 
REMARK    6  A    between atoms: C_19  and  C_20 
REMARK       I    between atoms: C_20  and  N_22 
REMARK    7  A    between atoms: N_22  and  C_23 
REMARK    8  A    between atoms: C_23  and  C_24 
ROOT
ATOM      1  C   UNL d   1      30.409 -14.921   0.510  0.00  0.00     0.231 C 
ATOM      2  O   UNL d   1      29.993 -14.259  -0.447  0.00  0.00    -0.272 OA
ATOM      3  N   UNL d   1      29.812 -14.832   1.792  0.00  0.00    -0.326 N 
ATOM      4  H   UNL d   1      30.314 -15.200   2.595  0.00  0.00     0.169 HD
ENDROOT
BRANCH   3   5
ATOM      5  C   UNL d   1      28.809 -13.859   2.100  0.00  0.00     0.050 A 
ATOM      6  C   UNL d   1      29.135 -12.900   3.091  0.00  0.00     0.030 A 
ATOM      7  C   UNL d   1      28.243 -11.880   3.450  0.00  0.00     0.002 A 
ATOM      8  C   UNL d   1      27.015 -11.787   2.810  0.00  0.00     0.001 A 
ATOM      9  C   UNL d   1      26.663 -12.747   1.856  0.00  0.00     0.019 A 
ATOM     10  C   UNL d   1      27.533 -13.806   1.490  0.00  0.00     0.058 A 
BRANCH  10  11
ATOM     11  C   UNL d   1      26.972 -14.805   0.510  0.00  0.00     0.254 C 
ATOM     12  O   UNL d   1      26.475 -14.393  -0.564  0.00  0.00    -0.268 OA
ATOM     13  N   UNL d   1      26.963 -16.146   0.808  0.00  0.00    -0.353 N 
ATOM     14  H   UNL d   1      27.384 -16.429   1.682  0.00  0.00     0.163 HD
BRANCH  13  15
ATOM     15  C   UNL d   1      26.707 -17.162  -0.227  0.00  0.00     0.161 C 
BRANCH  15  16
ATOM     16  C   UNL d   1      25.246 -17.319  -0.541  0.00  0.00    -0.041 C 
ATOM     17  C   UNL d   1      24.303 -16.318  -0.834  0.00  0.00     0.009 C 
ATOM     18  C   UNL d   1      22.910 -16.565  -0.866  0.00  0.00     0.001 C 
ATOM     19  C   UNL d   1      22.449 -17.781  -0.508  0.00  0.00     0.000 C 
ATOM     20  C   UNL d   1      23.420 -18.654  -0.147  0.00  0.00     0.001 C 
ATOM     21  C   UNL d   1      24.769 -18.575  -0.413  0.00  0.00     0.009 C 
ENDBRANCH  15  16
ENDBRANCH  13  15
ENDBRANCH  10  11
ENDBRANCH   3   5
BRANCH   1  22
ATOM     22  C   UNL d   1      31.466 -16.063   0.385  0.00  0.00     0.185 C 
BRANCH  22  23
ATOM     23  S   UNL d   1      31.184 -17.281  -1.223  0.00  0.00    -0.083 SA
BRANCH  23  24
ATOM     24  C   UNL d   1      30.019 -16.558  -2.456  0.00  0.00     0.168 C 
ATOM     25  N   UNL d   1      30.224 -16.264  -3.741  0.00  0.00    -0.223 NA
ATOM     26  C   UNL d   1      29.025 -15.699  -4.214  0.00  0.00     0.086 C 
ATOM     27  C   UNL d   1      28.569 -15.338  -5.500  0.00  0.00     0.037 C 
ATOM     28  C   UNL d   1      28.141 -15.526  -3.158  0.00  0.00     0.066 C 
ATOM     29  C   UNL d   1      27.208 -14.980  -5.654  0.00  0.00     0.039 C 
ATOM     30  C   UNL d   1      26.372 -14.797  -4.548  0.00  0.00     0.070 C 
ATOM     31  C   UNL d   1      26.870 -14.950  -3.257  0.00  0.00     0.068 C 
ATOM     32  N   UNL d   1      28.805 -16.034  -2.070  0.00  0.00    -0.333 N 
ATOM     33  H   UNL d   1      28.576 -15.758  -1.134  0.00  0.00     0.168 HD
BRANCH  30  34
ATOM     34  O   UNL d   1      25.045 -14.459  -4.638  0.00  0.00    -0.356 OA
ATOM     35  C   UNL d   1      24.469 -14.074  -3.390  0.00  0.00     0.210 C 
ENDBRANCH  30  34
ENDBRANCH  23  24
ENDBRANCH  22  23
ENDBRANCH   1  22
TORSDOF 8
ENDMDL
MODEL 7
REMARK VINA RESULT:    -8.249      3.711      7.801
REMARK INTER + INTRA:         -14.589
REMARK INTER:                 -10.636
REMARK INTRA:                  -3.953
REMARK CONF_INDEPENDENT:        2.386
REMARK UNBOUND:                -3.953
REMARK  8 active torsions:
REMARK  status: ('A' for Active; 'I' for Inactive)
REMARK    1  A    between atoms: O_2  and  C_3 
REMARK    2  A    between atoms: C_8  and  S_9 
REMARK    3  A    between atoms: S_9  and  C_10 
REMARK    4  A    between atoms: C_10  and  C_11 
REMARK       I    between atoms: C_11  and  N_13 
REMARK    5  A    between atoms: N_13  and  C_14 
REMARK    6  A    between atoms: C_19  and  C_20 
REMARK       I    between atoms: C_20  and  N_22 
REMARK    7  A    between atoms: N_22  and  C_23 
REMARK    8  A    between atoms: C_23  and  C_24 
ROOT
ATOM      1  C   UNL d   1      30.435 -14.516   0.055  0.00  0.00     0.231 C 
ATOM      2  O   UNL d   1      30.387 -13.302  -0.173  0.00  0.00    -0.272 OA
ATOM      3  N   UNL d   1      29.615 -15.123   1.037  0.00  0.00    -0.326 N 
ATOM      4  H   UNL d   1      29.843 -16.059   1.358  0.00  0.00     0.169 HD
ENDROOT
BRANCH   3   5
ATOM      5  C   UNL d   1      28.808 -14.355   1.936  0.00  0.00     0.050 A 
ATOM      6  C   UNL d   1      29.127 -14.448   3.314  0.00  0.00     0.030 A 
ATOM      7  C   UNL d   1      28.425 -13.715   4.282  0.00  0.00     0.002 A 
ATOM      8  C   UNL d   1      27.406 -12.860   3.889  0.00  0.00     0.001 A 
ATOM      9  C   UNL d   1      27.054 -12.785   2.537  0.00  0.00     0.019 A 
ATOM     10  C   UNL d   1      27.728 -13.533   1.537  0.00  0.00     0.058 A 
BRANCH  10  11
ATOM     11  C   UNL d   1      27.175 -13.406   0.140  0.00  0.00     0.254 C 
ATOM     12  O   UNL d   1      26.155 -14.063  -0.174  0.00  0.00    -0.268 OA
ATOM     13  N   UNL d   1      27.805 -12.617  -0.791  0.00  0.00    -0.353 N 
ATOM     14  H   UNL d   1      28.617 -12.099  -0.486  0.00  0.00     0.163 HD
BRANCH  13  15
ATOM     15  C   UNL d   1      27.143 -12.233  -2.049  0.00  0.00     0.161 C 
BRANCH  15  16
ATOM     16  C   UNL d   1      26.797 -13.416  -2.909  0.00  0.00    -0.041 C 
ATOM     17  C   UNL d   1      27.666 -14.278  -3.601  0.00  0.00     0.009 C 
ATOM     18  C   UNL d   1      27.215 -15.199  -4.575  0.00  0.00     0.001 C 
ATOM     19  C   UNL d   1      25.915 -15.195  -4.934  0.00  0.00     0.000 C 
ATOM     20  C   UNL d   1      25.169 -14.266  -4.288  0.00  0.00     0.001 C 
ATOM     21  C   UNL d   1      25.477 -13.596  -3.125  0.00  0.00     0.009 C 
ENDBRANCH  15  16
ENDBRANCH  13  15
ENDBRANCH  10  11
ENDBRANCH   3   5
BRANCH   1  22
ATOM     22  C   UNL d   1      31.218 -15.536  -0.831  0.00  0.00     0.185 C 
BRANCH  22  23
ATOM     23  S   UNL d   1      30.349 -17.376  -0.941  0.00  0.00    -0.083 SA
BRANCH  23  24
ATOM     24  C   UNL d   1      28.506 -17.283  -0.939  0.00  0.00     0.168 C 
ATOM     25  N   UNL d   1      27.698 -16.517  -1.674  0.00  0.00    -0.223 NA
ATOM     26  C   UNL d   1      26.387 -16.808  -1.252  0.00  0.00     0.086 C 
ATOM     27  C   UNL d   1      25.113 -16.449  -1.743  0.00  0.00     0.037 C 
ATOM     28  C   UNL d   1      26.426 -17.656  -0.154  0.00  0.00     0.066 C 
ATOM     29  C   UNL d   1      23.977 -17.092  -1.196  0.00  0.00     0.039 C 
ATOM     30  C   UNL d   1      24.077 -17.917  -0.071  0.00  0.00     0.070 C 
ATOM     31  C   UNL d   1      25.307 -18.115   0.549  0.00  0.00     0.068 C 
ATOM     32  N   UNL d   1      27.762 -17.901   0.042  0.00  0.00    -0.333 N 
ATOM     33  H   UNL d   1      28.121 -18.195   0.929  0.00  0.00     0.168 HD
BRANCH  30  34
ATOM     34  O   UNL d   1      23.012 -18.573   0.495  0.00  0.00    -0.356 OA
ATOM     35  C   UNL d   1      22.042 -19.011  -0.455  0.00  0.00     0.210 C 
ENDBRANCH  30  34
ENDBRANCH  23  24
ENDBRANCH  22  23
ENDBRANCH   1  22
TORSDOF 8
ENDMDL
MODEL 8
REMARK VINA RESULT:    -8.215      3.261      8.393
REMARK INTER + INTRA:         -14.170
REMARK INTER:                 -10.602
REMARK INTRA:                  -3.568
REMARK CONF_INDEPENDENT:        2.386
REMARK UNBOUND:                -3.568
REMARK  8 active torsions:
REMARK  status: ('A' for Active; 'I' for Inactive)
REMARK    1  A    between atoms: O_2  and  C_3 
REMARK    2  A    between atoms: C_8  and  S_9 
REMARK    3  A    between atoms: S_9  and  C_10 
REMARK    4  A    between atoms: C_10  and  C_11 
REMARK       I    between atoms: C_11  and  N_13 
REMARK    5  A    between atoms: N_13  and  C_14 
REMARK    6  A    between atoms: C_19  and  C_20 
REMARK       I    between atoms: C_20  and  N_22 
REMARK    7  A    between atoms: N_22  and  C_23 
REMARK    8  A    between atoms: C_23  and  C_24 
ROOT
ATOM      1  C   UNL d   1      28.840 -15.997  -2.675  0.00  0.00     0.231 C 
ATOM      2  O   UNL d   1      29.306 -15.660  -3.769  0.00  0.00    -0.272 OA
ATOM      3  N   UNL d   1      27.605 -15.487  -2.203  0.00  0.00    -0.326 N 
ATOM      4  H   UNL d   1      27.371 -15.597  -1.221  0.00  0.00     0.169 HD
ENDROOT
BRANCH   3   5
ATOM      5  C   UNL d   1      26.907 -14.436  -2.879  0.00  0.00     0.050 A 
ATOM      6  C   UNL d   1      26.660 -14.622  -4.261  0.00  0.00     0.030 A 
ATOM      7  C   UNL d   1      25.956 -13.673  -5.017  0.00  0.00     0.002 A 
ATOM      8  C   UNL d   1      25.468 -12.530  -4.399  0.00  0.00     0.001 A 
ATOM      9  C   UNL d   1      25.735 -12.314  -3.043  0.00  0.00     0.019 A 
ATOM     10  C   UNL d   1      26.466 -13.243  -2.258  0.00  0.00     0.058 A 
BRANCH  10  11
ATOM     11  C   UNL d   1      26.742 -12.824  -0.836  0.00  0.00     0.254 C 
ATOM     12  O   UNL d   1      27.122 -11.652  -0.609  0.00  0.00    -0.268 OA
ATOM     13  N   UNL d   1      26.623 -13.726   0.192  0.00  0.00    -0.353 N 
ATOM     14  H   UNL d   1      26.305 -14.656  -0.041  0.00  0.00     0.163 HD
BRANCH  13  15
ATOM     15  C   UNL d   1      26.589 -13.289   1.598  0.00  0.00     0.161 C 
BRANCH  15  16
ATOM     16  C   UNL d   1      27.688 -13.896   2.424  0.00  0.00    -0.041 C 
ATOM     17  C   UNL d   1      27.676 -14.226   3.790  0.00  0.00     0.009 C 
ATOM     18  C   UNL d   1      28.848 -14.558   4.509  0.00  0.00     0.001 C 
ATOM     19  C   UNL d   1      30.046 -14.462   3.895  0.00  0.00     0.000 C 
ATOM     20  C   UNL d   1      29.973 -14.043   2.608  0.00  0.00     0.001 C 
ATOM     21  C   UNL d   1      28.869 -14.033   1.784  0.00  0.00     0.009 C 
ENDBRANCH  15  16
ENDBRANCH  13  15
ENDBRANCH  10  11
ENDBRANCH   3   5
BRANCH   1  22
ATOM     22  C   UNL d   1      29.421 -17.151  -1.800  0.00  0.00     0.185 C 
BRANCH  22  23
ATOM     23  S   UNL d   1      28.449 -17.419  -0.029  0.00  0.00    -0.083 SA
BRANCH  23  24
ATOM     24  C   UNL d   1      26.615 -17.402  -0.226  0.00  0.00     0.168 C 
ATOM     25  N   UNL d   1      25.768 -16.373  -0.155  0.00  0.00    -0.223 NA
ATOM     26  C   UNL d   1      24.479 -16.910  -0.339  0.00  0.00     0.086 C 
ATOM     27  C   UNL d   1      23.208 -16.326  -0.523  0.00  0.00     0.037 C 
ATOM     28  C   UNL d   1      24.550 -18.295  -0.380  0.00  0.00     0.066 C 
ATOM     29  C   UNL d   1      22.129 -17.165  -0.891  0.00  0.00     0.039 C 
ATOM     30  C   UNL d   1      22.256 -18.558  -0.890  0.00  0.00     0.070 C 
ATOM     31  C   UNL d   1      23.454 -19.155  -0.508  0.00  0.00     0.068 C 
ATOM     32  N   UNL d   1      25.890 -18.572  -0.266  0.00  0.00    -0.333 N 
ATOM     33  H   UNL d   1      26.220 -19.458   0.064  0.00  0.00     0.168 HD
BRANCH  30  34
ATOM     34  O   UNL d   1      21.249 -19.420  -1.246  0.00  0.00    -0.356 OA
ATOM     35  C   UNL d   1      19.947 -18.951  -0.895  0.00  0.00     0.210 C 
ENDBRANCH  30  34
ENDBRANCH  23  24
ENDBRANCH  22  23
ENDBRANCH   1  22
TORSDOF 8
ENDMDL
