MODEL 1
REMARK VINA RESULT:    -7.318      0.000      0.000
REMARK INTER + INTRA:         -12.381
REMARK INTER:                 -10.301
REMARK INTRA:                  -2.080
REMARK CONF_INDEPENDENT:        2.983
REMARK UNBOUND:                -2.080
REMARK  10 active torsions:
REMARK  status: ('A' for Active; 'I' for Inactive)
REMARK    1  A    between atoms: C_2  and  C_4 
REMARK    2  A    between atoms: C_4  and  C_5 
REMARK    3  A    between atoms: C_5  and  N_6 
REMARK    4  A    between atoms: N_6  and  C_7 
REMARK    5  A    between atoms: C_7  and  N_9 
REMARK    6  A    between atoms: N_9  and  N_10 
REMARK       I    between atoms: N_10  and  C_11 
REMARK    7  A    between atoms: C_11  and  C_13 
REMARK    8  A    between atoms: C_13  and  N_14 
REMARK       I    between atoms: N_14  and  C_15 
REMARK    9  A    between atoms: C_15  and  C_17 
REMARK   10  A    between atoms: C_21  and  N_22 
ROOT
ATOM      1  N   UNL d   1      25.164 -17.517   0.428  0.00  0.00    -0.267 N 
ATOM      2  C   UNL d   1      26.481 -17.954   0.515  0.00  0.00     0.253 C 
ATOM      3  O   UNL d   1      26.774 -19.147   0.628  0.00  0.00    -0.270 OA
ATOM      4  H   UNL d   1      24.898 -16.538   0.331  0.00  0.00     0.190 HD
ENDROOT
BRANCH   2   5
ATOM      5  C   UNL d   1      27.575 -16.848   0.467  0.00  0.00     0.227 C 
BRANCH   5   6
ATOM      6  N   UNL d   1      27.600 -16.136  -0.824  0.00  0.00    -0.348 N 
ATOM      7  C   UNL d   1      26.564 -15.326  -1.243  0.00  0.00     0.252 C 
ATOM      8  O   UNL d   1      25.548 -15.144  -0.568  0.00  0.00    -0.268 OA
ATOM      9  H   UNL d   1      28.457 -16.210  -1.363  0.00  0.00     0.163 HD
BRANCH   7  10
ATOM     10  C   UNL d   1      26.658 -14.667  -2.585  0.00  0.00     0.034 A 
ATOM     11  C   UNL d   1      25.707 -13.687  -2.932  0.00  0.00     0.017 A 
ATOM     12  C   UNL d   1      25.597 -13.220  -4.249  0.00  0.00     0.003 A 
ATOM     13  C   UNL d   1      26.474 -13.681  -5.228  0.00  0.00     0.036 A 
ATOM     14  C   UNL d   1      27.441 -14.636  -4.880  0.00  0.00     0.103 A 
ATOM     15  C   UNL d   1      27.544 -15.128  -3.564  0.00  0.00     0.053 A 
BRANCH  14  16
ATOM     16  N   UNL d   1      28.308 -15.191  -5.931  0.00  0.00    -0.116 N 
ATOM     17  O   UNL d   1      28.142 -14.791  -7.091  0.00  0.00    -0.532 OA
ATOM     18  O   UNL d   1      29.150 -16.034  -5.591  0.00  0.00    -0.532 OA
ENDBRANCH  14  16
ENDBRANCH   7  10
ENDBRANCH   5   6
ENDBRANCH   2   5
BRANCH   1  19
ATOM     19  N   UNL d   1      24.067 -18.455   0.458  0.00  0.00    -0.274 N 
ATOM     20  H   UNL d   1      24.243 -19.325   0.958  0.00  0.00     0.189 HD
BRANCH  19  21
ATOM     21  C   UNL d   1      22.861 -18.157  -0.176  0.00  0.00     0.186 C 
ATOM     22  S   UNL d   1      22.516 -16.608  -0.741  0.00  0.00    -0.040 SA
BRANCH  21  23
ATOM     23  N   UNL d   1      21.988 -19.238  -0.304  0.00  0.00    -0.366 N 
ATOM     24  H   UNL d   1      22.157 -20.085   0.223  0.00  0.00     0.161 HD
BRANCH  23  25
ATOM     25  C   UNL d   1      20.758 -19.185  -1.113  0.00  0.00     0.122 C 
BRANCH  25  26
ATOM     26  C   UNL d   1      19.435 -19.327  -0.348  0.00  0.00     0.023 C 
BRANCH  26  27
ATOM     27  C   UNL d   1      19.456 -20.520   0.643  0.00  0.00    -0.021 C 
ATOM     28  C   UNL d   1      19.902 -20.060   2.034  0.00  0.00     0.009 C 
ATOM     29  C   UNL d   1      18.087 -21.198   0.760  0.00  0.00     0.009 C 
ENDBRANCH  26  27
ENDBRANCH  25  26
ENDBRANCH  23  25
ENDBRANCH  21  23
ENDBRANCH  19  21
ENDBRANCH   1  19
TORSDOF 10
ENDMDL
MODEL 2
REMARK VINA RESULT:    -7.203      4.041      5.868
REMARK INTER + INTRA:         -12.261
REMARK INTER:                 -10.186
REMARK INTRA:                  -2.075
REMARK CONF_INDEPENDENT:        2.983
REMARK UNBOUND:                -2.075
REMARK  10 active torsions:
REMARK  status: ('A' for Active; 'I' for Inactive)
REMARK    1  A    between atoms: C_2  and  C_4 
REMARK    2  A    between atoms: C_4  and  C_5 
REMARK    3  A    between atoms: C_5  and  N_6 
REMARK    4  A    between atoms: N_6  and  C_7 
REMARK    5  A    between atoms: C_7  and  N_9 
REMARK    6  A    between atoms: N_9  and  N_10 
REMARK       I    between atoms: N_10  and  C_11 
REMARK    7  A    between atoms: C_11  and  C_13 
REMARK    8  A    between atoms: C_13  and  N_14 
REMARK       I    between atoms: N_14  and  C_15 
REMARK    9  A    between atoms: C_15  and  C_17 
REMARK   10  A    between atoms: C_21  and  N_22 
ROOT
ATOM      1  N   UNL d   1      25.453 -15.539  -1.321  0.00  0.00    -0.267 N 
ATOM      2  C   UNL d   1      25.341 -14.570  -2.312  0.00  0.00     0.253 C 
ATOM      3  O   UNL d   1      24.375 -14.519  -3.077  0.00  0.00    -0.270 OA
ATOM      4  H   UNL d   1      26.240 -15.600  -0.676  0.00  0.00     0.190 HD
ENDROOT
BRANCH   2   5
ATOM      5  C   UNL d   1      26.512 -13.549  -2.408  0.00  0.00     0.227 C 
BRANCH   5   6
ATOM      6  N   UNL d   1      26.662 -12.747  -1.180  0.00  0.00    -0.348 N 
ATOM      7  C   UNL d   1      27.235 -13.253  -0.031  0.00  0.00     0.252 C 
ATOM      8  O   UNL d   1      27.660 -14.409   0.047  0.00  0.00    -0.268 OA
ATOM      9  H   UNL d   1      26.390 -11.772  -1.243  0.00  0.00     0.163 HD
BRANCH   7  10
ATOM     10  C   UNL d   1      27.318 -12.378   1.182  0.00  0.00     0.034 A 
ATOM     11  C   UNL d   1      27.742 -12.941   2.402  0.00  0.00     0.017 A 
ATOM     12  C   UNL d   1      27.604 -12.242   3.609  0.00  0.00     0.003 A 
ATOM     13  C   UNL d   1      27.094 -10.945   3.609  0.00  0.00     0.036 A 
ATOM     14  C   UNL d   1      26.697 -10.370   2.393  0.00  0.00     0.103 A 
ATOM     15  C   UNL d   1      26.810 -11.074   1.178  0.00  0.00     0.053 A 
BRANCH  14  16
ATOM     16  N   UNL d   1      26.075  -9.037   2.401  0.00  0.00    -0.116 N 
ATOM     17  O   UNL d   1      25.146  -8.825   1.610  0.00  0.00    -0.532 OA
ATOM     18  O   UNL d   1      26.526  -8.201   3.197  0.00  0.00    -0.532 OA
ENDBRANCH  14  16
ENDBRANCH   7  10
ENDBRANCH   5   6
ENDBRANCH   2   5
BRANCH   1  19
ATOM     19  N   UNL d   1      24.425 -16.536  -1.138  0.00  0.00    -0.274 N 
ATOM     20  H   UNL d   1      23.567 -16.388  -1.665  0.00  0.00     0.189 HD
BRANCH  19  21
ATOM     21  C   UNL d   1      24.628 -17.613  -0.276  0.00  0.00     0.186 C 
ATOM     22  S   UNL d   1      26.171 -18.083   0.209  0.00  0.00    -0.040 SA
BRANCH  21  23
ATOM     23  N   UNL d   1      23.459 -18.250   0.145  0.00  0.00    -0.366 N 
ATOM     24  H   UNL d   1      23.471 -18.821   0.980  0.00  0.00     0.161 HD
BRANCH  23  25
ATOM     25  C   UNL d   1      22.159 -18.063  -0.521  0.00  0.00     0.122 C 
BRANCH  25  26
ATOM     26  C   UNL d   1      21.304 -19.324  -0.707  0.00  0.00     0.023 C 
BRANCH  26  27
ATOM     27  C   UNL d   1      20.046 -19.318   0.201  0.00  0.00    -0.021 C 
ATOM     28  C   UNL d   1      18.854 -19.950  -0.524  0.00  0.00     0.009 C 
ATOM     29  C   UNL d   1      20.280 -20.066   1.517  0.00  0.00     0.009 C 
ENDBRANCH  26  27
ENDBRANCH  25  26
ENDBRANCH  23  25
ENDBRANCH  21  23
ENDBRANCH  19  21
ENDBRANCH   1  19
TORSDOF 10
ENDMDL
MODEL 3
REMARK VINA RESULT:    -6.405      4.785      7.444
REMARK INTER + INTRA:         -11.231
REMARK INTER:                  -9.388
REMARK INTRA:                  -1.843
REMARK CONF_INDEPENDENT:        2.983
REMARK UNBOUND:                -1.843
REMARK  10 active torsions:
REMARK  status: ('A' for Active; 'I' for Inactive)
REMARK    1  A    between atoms: C_2  and  C_4 
REMARK    2  A    between atoms: C_4  and  C_5 
REMARK    3  A    between atoms: C_5  and  N_6 
REMARK    4  A    between atoms: N_6  and  C_7 
REMARK    5  A    between atoms: C_7  and  N_9 
REMARK    6  A    between atoms: N_9  and  N_10 
REMARK       I    between atoms: N_10  and  C_11 
REMARK    7  A    between atoms: C_11  and  C_13 
REMARK    8  A    between atoms: C_13  and  N_14 
REMARK       I    between atoms: N_14  and  C_15 
REMARK    9  A    between atoms: C_15  and  C_17 
REMARK   10  A    between atoms: C_21  and  N_22 
ROOT
ATOM      1  N   UNL d   1      25.628 -11.927  -4.037  0.00  0.00    -0.267 N 
ATOM      2  C   UNL d   1      25.889 -10.880  -4.915  0.00  0.00     0.253 C 
ATOM      3  O   UNL d   1      25.480 -10.877  -6.078  0.00  0.00    -0.270 OA
ATOM      4  H   UNL d   1      25.953 -11.950  -3.072  0.00  0.00     0.190 HD
ENDROOT
BRANCH   2   5
ATOM      5  C   UNL d   1      26.737  -9.705  -4.347  0.00  0.00     0.227 C 
BRANCH   5   6
ATOM      6  N   UNL d   1      26.761  -9.689  -2.872  0.00  0.00    -0.348 N 
ATOM      7  C   UNL d   1      27.443 -10.633  -2.132  0.00  0.00     0.252 C 
ATOM      8  O   UNL d   1      28.078 -11.554  -2.653  0.00  0.00    -0.268 OA
ATOM      9  H   UNL d   1      26.310  -8.898  -2.423  0.00  0.00     0.163 HD
BRANCH   7  10
ATOM     10  C   UNL d   1      27.386 -10.560  -0.637  0.00  0.00     0.034 A 
ATOM     11  C   UNL d   1      27.660 -11.720   0.114  0.00  0.00     0.017 A 
ATOM     12  C   UNL d   1      27.385 -11.776   1.487  0.00  0.00     0.003 A 
ATOM     13  C   UNL d   1      26.886 -10.653   2.144  0.00  0.00     0.036 A 
ATOM     14  C   UNL d   1      26.638  -9.486   1.405  0.00  0.00     0.103 A 
ATOM     15  C   UNL d   1      26.890  -9.429   0.020  0.00  0.00     0.053 A 
BRANCH  14  16
ATOM     16  N   UNL d   1      26.027  -8.330   2.078  0.00  0.00    -0.116 N 
ATOM     17  O   UNL d   1      26.405  -8.061   3.226  0.00  0.00    -0.532 OA
ATOM     18  O   UNL d   1      25.162  -7.698   1.455  0.00  0.00    -0.532 OA
ENDBRANCH  14  16
ENDBRANCH   7  10
ENDBRANCH   5   6
ENDBRANCH   2   5
BRANCH   1  19
ATOM     19  N   UNL d   1      24.849 -13.068  -4.454  0.00  0.00    -0.274 N 
ATOM     20  H   UNL d   1      24.086 -12.871  -5.099  0.00  0.00     0.189 HD
BRANCH  19  21
ATOM     21  C   UNL d   1      25.146 -14.343  -3.975  0.00  0.00     0.186 C 
ATOM     22  S   UNL d   1      26.183 -15.382  -4.802  0.00  0.00    -0.040 SA
BRANCH  21  23
ATOM     23  N   UNL d   1      24.524 -14.671  -2.769  0.00  0.00    -0.366 N 
ATOM     24  H   UNL d   1      23.739 -14.124  -2.444  0.00  0.00     0.161 HD
BRANCH  23  25
ATOM     25  C   UNL d   1      24.899 -15.849  -1.968  0.00  0.00     0.122 C 
BRANCH  25  26
ATOM     26  C   UNL d   1      23.769 -16.517  -1.173  0.00  0.00     0.023 C 
BRANCH  26  27
ATOM     27  C   UNL d   1      24.112 -17.978  -0.780  0.00  0.00    -0.021 C 
ATOM     28  C   UNL d   1      25.503 -18.054  -0.143  0.00  0.00     0.009 C 
ATOM     29  C   UNL d   1      23.087 -18.570   0.192  0.00  0.00     0.009 C 
ENDBRANCH  26  27
ENDBRANCH  25  26
ENDBRANCH  23  25
ENDBRANCH  21  23
ENDBRANCH  19  21
ENDBRANCH   1  19
TORSDOF 10
ENDMDL
MODEL 4
REMARK VINA RESULT:    -6.257      4.411      6.715
REMARK INTER + INTRA:         -11.433
REMARK INTER:                  -9.240
REMARK INTRA:                  -2.192
REMARK CONF_INDEPENDENT:        2.983
REMARK UNBOUND:                -2.192
REMARK  10 active torsions:
REMARK  status: ('A' for Active; 'I' for Inactive)
REMARK    1  A    between atoms: C_2  and  C_4 
REMARK    2  A    between atoms: C_4  and  C_5 
REMARK    3  A    between atoms: C_5  and  N_6 
REMARK    4  A    between atoms: N_6  and  C_7 
REMARK    5  A    between atoms: C_7  and  N_9 
REMARK    6  A    between atoms: N_9  and  N_10 
REMARK       I    between atoms: N_10  and  C_11 
REMARK    7  A    between atoms: C_11  and  C_13 
REMARK    8  A    between atoms: C_13  and  N_14 
REMARK       I    between atoms: N_14  and  C_15 
REMARK    9  A    between atoms: C_15  and  C_17 
REMARK   10  A    between atoms: C_21  and  N_22 
ROOT
ATOM      1  N   UNL d   1      27.111 -15.327  -1.259  0.00  0.00    -0.267 N 
ATOM      2  C   UNL d   1      27.886 -16.224  -0.531  0.00  0.00     0.253 C 
ATOM      3  O   UNL d   1      28.792 -16.882  -1.047  0.00  0.00    -0.270 OA
ATOM      4  H   UNL d   1      26.360 -14.771  -0.855  0.00  0.00     0.190 HD
ENDROOT
BRANCH   2   5
ATOM      5  C   UNL d   1      27.542 -16.355   0.981  0.00  0.00     0.227 C 
BRANCH   5   6
ATOM      6  N   UNL d   1      27.793 -15.107   1.726  0.00  0.00    -0.348 N 
ATOM      7  C   UNL d   1      27.033 -13.970   1.543  0.00  0.00     0.252 C 
ATOM      8  O   UNL d   1      26.094 -13.919   0.745  0.00  0.00    -0.268 OA
ATOM      9  H   UNL d   1      28.510 -15.147   2.443  0.00  0.00     0.163 HD
BRANCH   7  10
ATOM     10  C   UNL d   1      27.379 -12.735   2.319  0.00  0.00     0.034 A 
ATOM     11  C   UNL d   1      28.219 -12.850   3.444  0.00  0.00     0.017 A 
ATOM     12  C   UNL d   1      28.374 -11.785   4.342  0.00  0.00     0.003 A 
ATOM     13  C   UNL d   1      27.739 -10.569   4.099  0.00  0.00     0.036 A 
ATOM     14  C   UNL d   1      26.924 -10.442   2.964  0.00  0.00     0.103 A 
ATOM     15  C   UNL d   1      26.743 -11.515   2.069  0.00  0.00     0.053 A 
BRANCH  14  16
ATOM     16  N   UNL d   1      26.181  -9.191   2.754  0.00  0.00    -0.116 N 
ATOM     17  O   UNL d   1      26.643  -8.152   3.246  0.00  0.00    -0.532 OA
ATOM     18  O   UNL d   1      25.130  -9.253   2.101  0.00  0.00    -0.532 OA
ENDBRANCH  14  16
ENDBRANCH   7  10
ENDBRANCH   5   6
ENDBRANCH   2   5
BRANCH   1  19
ATOM     19  N   UNL d   1      27.342 -15.122  -2.669  0.00  0.00    -0.274 N 
ATOM     20  H   UNL d   1      28.318 -15.074  -2.955  0.00  0.00     0.189 HD
BRANCH  19  21
ATOM     21  C   UNL d   1      26.271 -14.991  -3.552  0.00  0.00     0.186 C 
ATOM     22  S   UNL d   1      26.460 -15.201  -5.213  0.00  0.00    -0.040 SA
BRANCH  21  23
ATOM     23  N   UNL d   1      25.051 -14.684  -2.947  0.00  0.00    -0.366 N 
ATOM     24  H   UNL d   1      24.551 -13.849  -3.221  0.00  0.00     0.161 HD
BRANCH  23  25
ATOM     25  C   UNL d   1      24.394 -15.571  -1.972  0.00  0.00     0.122 C 
BRANCH  25  26
ATOM     26  C   UNL d   1      24.781 -17.055  -2.036  0.00  0.00     0.023 C 
BRANCH  26  27
ATOM     27  C   UNL d   1      23.988 -17.913  -1.016  0.00  0.00    -0.021 C 
ATOM     28  C   UNL d   1      24.864 -18.265   0.190  0.00  0.00     0.009 C 
ATOM     29  C   UNL d   1      22.725 -17.200  -0.521  0.00  0.00     0.009 C 
ENDBRANCH  26  27
ENDBRANCH  25  26
ENDBRANCH  23  25
ENDBRANCH  21  23
ENDBRANCH  19  21
ENDBRANCH   1  19
TORSDOF 10
ENDMDL
MODEL 5
REMARK VINA RESULT:    -6.166      6.459      8.333
REMARK INTER + INTRA:         -11.180
REMARK INTER:                  -9.149
REMARK INTRA:                  -2.031
REMARK CONF_INDEPENDENT:        2.983
REMARK UNBOUND:                -2.031
REMARK  10 active torsions:
REMARK  status: ('A' for Active; 'I' for Inactive)
REMARK    1  A    between atoms: C_2  and  C_4 
REMARK    2  A    between atoms: C_4  and  C_5 
REMARK    3  A    between atoms: C_5  and  N_6 
REMARK    4  A    between atoms: N_6  and  C_7 
REMARK    5  A    between atoms: C_7  and  N_9 
REMARK    6  A    between atoms: N_9  and  N_10 
REMARK       I    between atoms: N_10  and  C_11 
REMARK    7  A    between atoms: C_11  and  C_13 
REMARK    8  A    between atoms: C_13  and  N_14 
REMARK       I    between atoms: N_14  and  C_15 
REMARK    9  A    between atoms: C_15  and  C_17 
REMARK   10  A    between atoms: C_21  and  N_22 
ROOT
ATOM      1  N   UNL d   1      28.087 -13.734   4.180  0.00  0.00    -0.267 N 
ATOM      2  C   UNL d   1      28.161 -14.006   5.541  0.00  0.00     0.253 C 
ATOM      3  O   UNL d   1      28.270 -15.155   5.978  0.00  0.00    -0.270 OA
ATOM      4  H   UNL d   1      28.000 -12.794   3.795  0.00  0.00     0.190 HD
ENDROOT
BRANCH   2   5
ATOM      5  C   UNL d   1      28.093 -12.776   6.491  0.00  0.00     0.227 C 
BRANCH   5   6
ATOM      6  N   UNL d   1      27.799 -11.523   5.770  0.00  0.00    -0.348 N 
ATOM      7  C   UNL d   1      28.634 -11.017   4.795  0.00  0.00     0.252 C 
ATOM      8  O   UNL d   1      29.681 -11.577   4.460  0.00  0.00    -0.268 OA
ATOM      9  H   UNL d   1      26.907 -11.085   5.974  0.00  0.00     0.163 HD
BRANCH   7  10
ATOM     10  C   UNL d   1      28.274  -9.721   4.136  0.00  0.00     0.034 A 
ATOM     11  C   UNL d   1      28.930  -8.543   4.545  0.00  0.00     0.017 A 
ATOM     12  C   UNL d   1      28.467  -7.281   4.146  0.00  0.00     0.003 A 
ATOM     13  C   UNL d   1      27.377  -7.179   3.284  0.00  0.00     0.036 A 
ATOM     14  C   UNL d   1      26.739  -8.351   2.852  0.00  0.00     0.103 A 
ATOM     15  C   UNL d   1      27.183  -9.622   3.267  0.00  0.00     0.053 A 
BRANCH  14  16
ATOM     16  N   UNL d   1      25.534  -8.243   2.016  0.00  0.00    -0.116 N 
ATOM     17  O   UNL d   1      24.743  -9.195   2.011  0.00  0.00    -0.532 OA
ATOM     18  O   UNL d   1      25.388  -7.204   1.357  0.00  0.00    -0.532 OA
ENDBRANCH  14  16
ENDBRANCH   7  10
ENDBRANCH   5   6
ENDBRANCH   2   5
BRANCH   1  19
ATOM     19  N   UNL d   1      28.143 -14.797   3.205  0.00  0.00    -0.274 N 
ATOM     20  H   UNL d   1      28.483 -15.694   3.548  0.00  0.00     0.189 HD
BRANCH  19  21
ATOM     21  C   UNL d   1      27.758 -14.570   1.884  0.00  0.00     0.186 C 
ATOM     22  S   UNL d   1      27.056 -13.116   1.403  0.00  0.00    -0.040 SA
BRANCH  21  23
ATOM     23  N   UNL d   1      28.008 -15.632   1.014  0.00  0.00    -0.366 N 
ATOM     24  H   UNL d   1      28.605 -16.393   1.309  0.00  0.00     0.161 HD
BRANCH  23  25
ATOM     25  C   UNL d   1      27.368 -15.754  -0.307  0.00  0.00     0.122 C 
BRANCH  25  26
ATOM     26  C   UNL d   1      25.886 -16.154  -0.309  0.00  0.00     0.023 C 
BRANCH  26  27
ATOM     27  C   UNL d   1      25.691 -17.684  -0.476  0.00  0.00    -0.021 C 
ATOM     28  C   UNL d   1      26.486 -18.449   0.585  0.00  0.00     0.009 C 
ATOM     29  C   UNL d   1      24.217 -18.091  -0.383  0.00  0.00     0.009 C 
ENDBRANCH  26  27
ENDBRANCH  25  26
ENDBRANCH  23  25
ENDBRANCH  21  23
ENDBRANCH  19  21
ENDBRANCH   1  19
TORSDOF 10
ENDMDL
MODEL 6
REMARK VINA RESULT:    -6.014      4.041      8.908
REMARK INTER + INTRA:         -11.394
REMARK INTER:                  -8.997
REMARK INTRA:                  -2.397
REMARK CONF_INDEPENDENT:        2.983
REMARK UNBOUND:                -2.397
REMARK  10 active torsions:
REMARK  status: ('A' for Active; 'I' for Inactive)
REMARK    1  A    between atoms: C_2  and  C_4 
REMARK    2  A    between atoms: C_4  and  C_5 
REMARK    3  A    between atoms: C_5  and  N_6 
REMARK    4  A    between atoms: N_6  and  C_7 
REMARK    5  A    between atoms: C_7  and  N_9 
REMARK    6  A    between atoms: N_9  and  N_10 
REMARK       I    between atoms: N_10  and  C_11 
REMARK    7  A    between atoms: C_11  and  C_13 
REMARK    8  A    between atoms: C_13  and  N_14 
REMARK       I    between atoms: N_14  and  C_15 
REMARK    9  A    between atoms: C_15  and  C_17 
REMARK   10  A    between atoms: C_21  and  N_22 
ROOT
ATOM      1  N   UNL d   1      28.539 -14.632  -4.035  0.00  0.00    -0.267 N 
ATOM      2  C   UNL d   1      27.544 -14.764  -4.997  0.00  0.00     0.253 C 
ATOM      3  O   UNL d   1      27.777 -15.187  -6.132  0.00  0.00    -0.270 OA
ATOM      4  H   UNL d   1      28.370 -14.287  -3.091  0.00  0.00     0.190 HD
ENDROOT
BRANCH   2   5
ATOM      5  C   UNL d   1      26.110 -14.343  -4.563  0.00  0.00     0.227 C 
BRANCH   5   6
ATOM      6  N   UNL d   1      25.517 -15.281  -3.592  0.00  0.00    -0.348 N 
ATOM      7  C   UNL d   1      25.859 -15.278  -2.255  0.00  0.00     0.252 C 
ATOM      8  O   UNL d   1      26.684 -14.492  -1.782  0.00  0.00    -0.268 OA
ATOM      9  H   UNL d   1      24.781 -15.886  -3.942  0.00  0.00     0.163 HD
BRANCH   7  10
ATOM     10  C   UNL d   1      25.231 -16.288  -1.345  0.00  0.00     0.034 A 
ATOM     11  C   UNL d   1      26.059 -17.060  -0.506  0.00  0.00     0.017 A 
ATOM     12  C   UNL d   1      25.559 -18.177   0.176  0.00  0.00     0.003 A 
ATOM     13  C   UNL d   1      24.209 -18.506   0.079  0.00  0.00     0.036 A 
ATOM     14  C   UNL d   1      23.374 -17.724  -0.733  0.00  0.00     0.103 A 
ATOM     15  C   UNL d   1      23.874 -16.613  -1.441  0.00  0.00     0.053 A 
BRANCH  14  16
ATOM     16  N   UNL d   1      21.970 -18.122  -0.909  0.00  0.00    -0.116 N 
ATOM     17  O   UNL d   1      21.109 -17.232  -0.905  0.00  0.00    -0.532 OA
ATOM     18  O   UNL d   1      21.731 -19.331  -1.044  0.00  0.00    -0.532 OA
ENDBRANCH  14  16
ENDBRANCH   7  10
ENDBRANCH   5   6
ENDBRANCH   2   5
BRANCH   1  19
ATOM     19  N   UNL d   1      29.905 -14.995  -4.325  0.00  0.00    -0.274 N 
ATOM     20  H   UNL d   1      30.546 -14.220  -4.481  0.00  0.00     0.189 HD
BRANCH  19  21
ATOM     21  C   UNL d   1      30.284 -16.336  -4.389  0.00  0.00     0.186 C 
ATOM     22  S   UNL d   1      30.900 -17.149  -3.047  0.00  0.00    -0.040 SA
BRANCH  21  23
ATOM     23  N   UNL d   1      30.104 -16.933  -5.638  0.00  0.00    -0.366 N 
ATOM     24  H   UNL d   1      29.387 -16.587  -6.261  0.00  0.00     0.161 HD
BRANCH  23  25
ATOM     25  C   UNL d   1      30.976 -18.005  -6.147  0.00  0.00     0.122 C 
BRANCH  25  26
ATOM     26  C   UNL d   1      31.212 -18.025  -7.664  0.00  0.00     0.023 C 
BRANCH  26  27
ATOM     27  C   UNL d   1      31.468 -19.458  -8.199  0.00  0.00    -0.021 C 
ATOM     28  C   UNL d   1      30.974 -20.505  -7.196  0.00  0.00     0.009 C 
ATOM     29  C   UNL d   1      30.783 -19.701  -9.548  0.00  0.00     0.009 C 
ENDBRANCH  26  27
ENDBRANCH  25  26
ENDBRANCH  23  25
ENDBRANCH  21  23
ENDBRANCH  19  21
ENDBRANCH   1  19
TORSDOF 10
ENDMDL
MODEL 7
REMARK VINA RESULT:    -5.795      3.654      8.324
REMARK INTER + INTRA:         -11.619
REMARK INTER:                  -8.778
REMARK INTRA:                  -2.841
REMARK CONF_INDEPENDENT:        2.983
REMARK UNBOUND:                -2.841
REMARK  10 active torsions:
REMARK  status: ('A' for Active; 'I' for Inactive)
REMARK    1  A    between atoms: C_2  and  C_4 
REMARK    2  A    between atoms: C_4  and  C_5 
REMARK    3  A    between atoms: C_5  and  N_6 
REMARK    4  A    between atoms: N_6  and  C_7 
REMARK    5  A    between atoms: C_7  and  N_9 
REMARK    6  A    between atoms: N_9  and  N_10 
REMARK       I    between atoms: N_10  and  C_11 
REMARK    7  A    between atoms: C_11  and  C_13 
REMARK    8  A    between atoms: C_13  and  N_14 
REMARK       I    between atoms: N_14  and  C_15 
REMARK    9  A    between atoms: C_15  and  C_17 
REMARK   10  A    between atoms: C_21  and  N_22 
ROOT
ATOM      1  N   UNL d   1      27.992 -13.799  -5.702  0.00  0.00    -0.267 N 
ATOM      2  C   UNL d   1      26.843 -14.457  -5.276  0.00  0.00     0.253 C 
ATOM      3  O   UNL d   1      26.531 -15.576  -5.692  0.00  0.00    -0.270 OA
ATOM      4  H   UNL d   1      28.271 -12.877  -5.371  0.00  0.00     0.190 HD
ENDROOT
BRANCH   2   5
ATOM      5  C   UNL d   1      25.963 -13.698  -4.241  0.00  0.00     0.227 C 
BRANCH   5   6
ATOM      6  N   UNL d   1      25.359 -14.603  -3.244  0.00  0.00    -0.348 N 
ATOM      7  C   UNL d   1      26.087 -15.576  -2.591  0.00  0.00     0.252 C 
ATOM      8  O   UNL d   1      27.290 -15.757  -2.797  0.00  0.00    -0.268 OA
ATOM      9  H   UNL d   1      24.390 -14.424  -3.002  0.00  0.00     0.163 HD
BRANCH   7  10
ATOM     10  C   UNL d   1      25.386 -16.473  -1.617  0.00  0.00     0.034 A 
ATOM     11  C   UNL d   1      26.149 -17.164  -0.655  0.00  0.00     0.017 A 
ATOM     12  C   UNL d   1      25.586 -18.193   0.112  0.00  0.00     0.003 A 
ATOM     13  C   UNL d   1      24.236 -18.509  -0.028  0.00  0.00     0.036 A 
ATOM     14  C   UNL d   1      23.466 -17.803  -0.965  0.00  0.00     0.103 A 
ATOM     15  C   UNL d   1      24.030 -16.783  -1.757  0.00  0.00     0.053 A 
BRANCH  14  16
ATOM     16  N   UNL d   1      22.065 -18.195  -1.179  0.00  0.00    -0.116 N 
ATOM     17  O   UNL d   1      21.842 -19.324  -1.637  0.00  0.00    -0.532 OA
ATOM     18  O   UNL d   1      21.190 -17.366  -0.895  0.00  0.00    -0.532 OA
ENDBRANCH  14  16
ENDBRANCH   7  10
ENDBRANCH   5   6
ENDBRANCH   2   5
BRANCH   1  19
ATOM     19  N   UNL d   1      28.885 -14.409  -6.658  0.00  0.00    -0.274 N 
ATOM     20  H   UNL d   1      28.867 -14.012  -7.596  0.00  0.00     0.189 HD
BRANCH  19  21
ATOM     21  C   UNL d   1      29.699 -15.479  -6.286  0.00  0.00     0.186 C 
ATOM     22  S   UNL d   1      31.084 -15.884  -7.156  0.00  0.00    -0.040 SA
BRANCH  21  23
ATOM     23  N   UNL d   1      29.274 -16.165  -5.147  0.00  0.00    -0.366 N 
ATOM     24  H   UNL d   1      28.449 -15.854  -4.652  0.00  0.00     0.161 HD
BRANCH  23  25
ATOM     25  C   UNL d   1      29.922 -17.397  -4.665  0.00  0.00     0.122 C 
BRANCH  25  26
ATOM     26  C   UNL d   1      30.659 -17.295  -3.323  0.00  0.00     0.023 C 
BRANCH  26  27
ATOM     27  C   UNL d   1      29.950 -16.333  -2.335  0.00  0.00    -0.021 C 
ATOM     28  C   UNL d   1      30.232 -16.740  -0.886  0.00  0.00     0.009 C 
ATOM     29  C   UNL d   1      30.384 -14.877  -2.536  0.00  0.00     0.009 C 
ENDBRANCH  26  27
ENDBRANCH  25  26
ENDBRANCH  23  25
ENDBRANCH  21  23
ENDBRANCH  19  21
ENDBRANCH   1  19
TORSDOF 10
ENDMDL
MODEL 8
REMARK VINA RESULT:    -5.329      9.299     10.985
REMARK INTER + INTRA:         -11.312
REMARK INTER:                  -8.312
REMARK INTRA:                  -3.000
REMARK CONF_INDEPENDENT:        2.983
REMARK UNBOUND:                -3.000
REMARK  10 active torsions:
REMARK  status: ('A' for Active; 'I' for Inactive)
REMARK    1  A    between atoms: C_2  and  C_4 
REMARK    2  A    between atoms: C_4  and  C_5 
REMARK    3  A    between atoms: C_5  and  N_6 
REMARK    4  A    between atoms: N_6  and  C_7 
REMARK    5  A    between atoms: C_7  and  N_9 
REMARK    6  A    between atoms: N_9  and  N_10 
REMARK       I    between atoms: N_10  and  C_11 
REMARK    7  A    between atoms: C_11  and  C_13 
REMARK    8  A    between atoms: C_13  and  N_14 
REMARK       I    between atoms: N_14  and  C_15 
REMARK    9  A    between atoms: C_15  and  C_17 
REMARK   10  A    between atoms: C_21  and  N_22 
ROOT
ATOM      1  N   UNL d   1      28.954 -10.539   9.072  0.00  0.00    -0.267 N 
ATOM      2  C   UNL d   1      30.088 -10.239   8.325  0.00  0.00     0.253 C 
ATOM      3  O   UNL d   1      31.109 -10.929   8.373  0.00  0.00    -0.270 OA
ATOM      4  H   UNL d   1      28.098  -9.986   9.047  0.00  0.00     0.190 HD
ENDROOT
BRANCH   2   5
ATOM      5  C   UNL d   1      29.999  -8.976   7.421  0.00  0.00     0.227 C 
BRANCH   5   6
ATOM      6  N   UNL d   1      29.011  -9.127   6.337  0.00  0.00    -0.348 N 
ATOM      7  C   UNL d   1      28.951 -10.252   5.541  0.00  0.00     0.252 C 
ATOM      8  O   UNL d   1      29.720 -11.207   5.681  0.00  0.00    -0.268 OA
ATOM      9  H   UNL d   1      28.319  -8.389   6.252  0.00  0.00     0.163 HD
BRANCH   7  10
ATOM     10  C   UNL d   1      27.936 -10.308   4.441  0.00  0.00     0.034 A 
ATOM     11  C   UNL d   1      27.777 -11.508   3.719  0.00  0.00     0.017 A 
ATOM     12  C   UNL d   1      27.030 -11.546   2.534  0.00  0.00     0.003 A 
ATOM     13  C   UNL d   1      26.381 -10.399   2.082  0.00  0.00     0.036 A 
ATOM     14  C   UNL d   1      26.514  -9.209   2.813  0.00  0.00     0.103 A 
ATOM     15  C   UNL d   1      27.282  -9.156   3.992  0.00  0.00     0.053 A 
BRANCH  14  16
ATOM     16  N   UNL d   1      25.905  -7.977   2.289  0.00  0.00    -0.116 N 
ATOM     17  O   UNL d   1      25.150  -8.072   1.313  0.00  0.00    -0.532 OA
ATOM     18  O   UNL d   1      26.192  -6.912   2.855  0.00  0.00    -0.532 OA
ENDBRANCH  14  16
ENDBRANCH   7  10
ENDBRANCH   5   6
ENDBRANCH   2   5
BRANCH   1  19
ATOM     19  N   UNL d   1      28.921 -11.689   9.943  0.00  0.00    -0.274 N 
ATOM     20  H   UNL d   1      28.896 -11.489  10.941  0.00  0.00     0.189 HD
BRANCH  19  21
ATOM     21  C   UNL d   1      28.934 -12.980   9.414  0.00  0.00     0.186 C 
ATOM     22  S   UNL d   1      28.677 -14.336  10.380  0.00  0.00    -0.040 SA
BRANCH  21  23
ATOM     23  N   UNL d   1      29.168 -13.044   8.040  0.00  0.00    -0.366 N 
ATOM     24  H   UNL d   1      29.595 -12.258   7.566  0.00  0.00     0.161 HD
BRANCH  23  25
ATOM     25  C   UNL d   1      28.905 -14.250   7.236  0.00  0.00     0.122 C 
BRANCH  25  26
ATOM     26  C   UNL d   1      29.788 -14.445   5.996  0.00  0.00     0.023 C 
BRANCH  26  27
ATOM     27  C   UNL d   1      28.960 -14.825   4.741  0.00  0.00    -0.021 C 
ATOM     28  C   UNL d   1      27.490 -14.442   4.927  0.00  0.00     0.009 C 
ATOM     29  C   UNL d   1      29.493 -14.151   3.473  0.00  0.00     0.009 C 
ENDBRANCH  26  27
ENDBRANCH  25  26
ENDBRANCH  23  25
ENDBRANCH  21  23
ENDBRANCH  19  21
ENDBRANCH   1  19
TORSDOF 10
ENDMDL
MODEL 9
REMARK VINA RESULT:    -5.242      4.684      7.055
REMARK INTER + INTRA:         -11.676
REMARK INTER:                  -8.225
REMARK INTRA:                  -3.451
REMARK CONF_INDEPENDENT:        2.983
REMARK UNBOUND:                -3.451
REMARK  10 active torsions:
REMARK  status: ('A' for Active; 'I' for Inactive)
REMARK    1  A    between atoms: C_2  and  C_4 
REMARK    2  A    between atoms: C_4  and  C_5 
REMARK    3  A    between atoms: C_5  and  N_6 
REMARK    4  A    between atoms: N_6  and  C_7 
REMARK    5  A    between atoms: C_7  and  N_9 
REMARK    6  A    between atoms: N_9  and  N_10 
REMARK       I    between atoms: N_10  and  C_11 
REMARK    7  A    between atoms: C_11  and  C_13 
REMARK    8  A    between atoms: C_13  and  N_14 
REMARK       I    between atoms: N_14  and  C_15 
REMARK    9  A    between atoms: C_15  and  C_17 
REMARK   10  A    between atoms: C_21  and  N_22 
ROOT
ATOM      1  N   UNL d   1      30.654 -14.728   2.392  0.00  0.00    -0.267 N 
ATOM      2  C   UNL d   1      30.739 -13.698   1.461  0.00  0.00     0.253 C 
ATOM      3  O   UNL d   1      30.705 -12.510   1.788  0.00  0.00    -0.270 OA
ATOM      4  H   UNL d   1      30.683 -15.717   2.145  0.00  0.00     0.190 HD
ENDROOT
BRANCH   2   5
ATOM      5  C   UNL d   1      30.876 -14.130  -0.028  0.00  0.00     0.227 C 
BRANCH   5   6
ATOM      6  N   UNL d   1      29.571 -14.403  -0.658  0.00  0.00    -0.348 N 
ATOM      7  C   UNL d   1      28.637 -15.247  -0.091  0.00  0.00     0.252 C 
ATOM      8  O   UNL d   1      28.831 -15.828   0.980  0.00  0.00    -0.268 OA
ATOM      9  H   UNL d   1      29.358 -13.878  -1.500  0.00  0.00     0.163 HD
BRANCH   7  10
ATOM     10  C   UNL d   1      27.350 -15.493  -0.815  0.00  0.00     0.034 A 
ATOM     11  C   UNL d   1      26.377 -16.318  -0.217  0.00  0.00     0.017 A 
ATOM     12  C   UNL d   1      25.272 -16.780  -0.945  0.00  0.00     0.003 A 
ATOM     13  C   UNL d   1      25.090 -16.377  -2.266  0.00  0.00     0.036 A 
ATOM     14  C   UNL d   1      26.042 -15.532  -2.858  0.00  0.00     0.103 A 
ATOM     15  C   UNL d   1      27.168 -15.083  -2.140  0.00  0.00     0.053 A 
BRANCH  14  16
ATOM     16  N   UNL d   1      25.900 -15.179  -4.278  0.00  0.00    -0.116 N 
ATOM     17  O   UNL d   1      24.910 -14.516  -4.615  0.00  0.00    -0.532 OA
ATOM     18  O   UNL d   1      26.779 -15.575  -5.056  0.00  0.00    -0.532 OA
ENDBRANCH  14  16
ENDBRANCH   7  10
ENDBRANCH   5   6
ENDBRANCH   2   5
BRANCH   1  19
ATOM     19  N   UNL d   1      30.527 -14.446   3.801  0.00  0.00    -0.274 N 
ATOM     20  H   UNL d   1      31.398 -14.262   4.296  0.00  0.00     0.189 HD
BRANCH  19  21
ATOM     21  C   UNL d   1      29.275 -14.445   4.415  0.00  0.00     0.186 C 
ATOM     22  S   UNL d   1      29.100 -14.202   6.073  0.00  0.00    -0.040 SA
BRANCH  21  23
ATOM     23  N   UNL d   1      28.201 -14.652   3.547  0.00  0.00    -0.366 N 
ATOM     24  H   UNL d   1      28.137 -15.515   3.025  0.00  0.00     0.161 HD
BRANCH  23  25
ATOM     25  C   UNL d   1      27.085 -13.700   3.411  0.00  0.00     0.122 C 
BRANCH  25  26
ATOM     26  C   UNL d   1      26.683 -13.325   1.978  0.00  0.00     0.023 C 
BRANCH  26  27
ATOM     27  C   UNL d   1      27.030 -11.853   1.637  0.00  0.00    -0.021 C 
ATOM     28  C   UNL d   1      27.889 -11.231   2.742  0.00  0.00     0.009 C 
ATOM     29  C   UNL d   1      27.771 -11.728   0.302  0.00  0.00     0.009 C 
ENDBRANCH  26  27
ENDBRANCH  25  26
ENDBRANCH  23  25
ENDBRANCH  21  23
ENDBRANCH  19  21
ENDBRANCH   1  19
TORSDOF 10
ENDMDL
