MODEL 1
REMARK VINA RESULT:    -9.424      0.000      0.000
REMARK INTER + INTRA:         -12.754
REMARK INTER:                 -11.810
REMARK INTRA:                  -0.944
REMARK CONF_INDEPENDENT:        2.386
REMARK UNBOUND:                -0.944
REMARK  8 active torsions:
REMARK  status: ('A' for Active; 'I' for Inactive)
REMARK    1  A    between atoms: C_2  and  O_3 
REMARK    2  A    between atoms: O_3  and  C_4 
REMARK    3  A    between atoms: C_6  and  C_7 
REMARK    4  A    between atoms: N_8  and  N_9 
REMARK       I    between atoms: N_9  and  C_10 
REMARK    5  A    between atoms: C_10  and  C_12 
REMARK    6  A    between atoms: C_16  and  S_17 
REMARK    7  A    between atoms: S_17  and  N_20 
REMARK    8  A    between atoms: C_28  and  O_29 
ROOT
ATOM      1  N   UNL d   1      23.188 -17.946  -1.489  0.00  0.00    -0.243 N 
ATOM      2  C   UNL d   1      24.326 -17.845  -0.664  0.00  0.00     0.271 C 
ATOM      3  O   UNL d   1      24.420 -18.409   0.426  0.00  0.00    -0.266 OA
ATOM      4  H   UNL d   1      23.157 -17.526  -2.407  0.00  0.00     0.192 HD
ENDROOT
BRANCH   2   5
ATOM      5  C   UNL d   1      25.501 -16.977  -1.096  0.00  0.00     0.035 C 
ATOM      6  C   UNL d   1      26.384 -16.448  -0.171  0.00  0.00     0.017 C 
ATOM      7  C   UNL d   1      27.319 -15.463  -0.562  0.00  0.00     0.003 C 
ATOM      8  C   UNL d   1      27.332 -14.921  -1.860  0.00  0.00     0.025 C 
ATOM      9  C   UNL d   1      26.439 -15.421  -2.788  0.00  0.00     0.080 C 
ATOM     10  C   UNL d   1      25.681 -16.530  -2.400  0.00  0.00     0.042 C 
BRANCH   9  11
ATOM     11  S   UNL d   1      26.261 -14.623  -4.406  0.00  0.00     0.260 S 
ATOM     12  O   UNL d   1      27.067 -15.392  -5.347  0.00  0.00    -0.200 OA
ATOM     13  O   UNL d   1      24.847 -14.452  -4.606  0.00  0.00    -0.200 OA
BRANCH  11  14
ATOM     14  N   UNL d   1      26.972 -13.057  -4.328  0.00  0.00    -0.307 N 
ATOM     15  C   UNL d   1      26.953 -12.303  -3.045  0.00  0.00     0.135 C 
ATOM     16  C   UNL d   1      25.774 -11.373  -3.208  0.00  0.00     0.022 C 
ATOM     17  C   UNL d   1      25.903 -10.955  -4.692  0.00  0.00     0.022 C 
ATOM     18  C   UNL d   1      26.639 -12.107  -5.410  0.00  0.00     0.135 C 
ENDBRANCH  11  14
ENDBRANCH   9  11
ENDBRANCH   2   5
BRANCH   1  19
ATOM     19  N   UNL d   1      22.159 -18.809  -1.131  0.00  0.00    -0.183 NA
ATOM     20  C   UNL d   1      21.588 -18.679   0.035  0.00  0.00     0.150 C 
BRANCH  20  21
ATOM     21  C   UNL d   1      20.432 -19.549   0.452  0.00  0.00    -0.014 A 
ATOM     22  C   UNL d   1      20.264 -19.998   1.777  0.00  0.00     0.052 A 
ATOM     23  C   UNL d   1      19.162 -20.818   2.147  0.00  0.00     0.102 A 
ATOM     24  C   UNL d   1      18.218 -21.148   1.169  0.00  0.00     0.099 A 
ATOM     25  C   UNL d   1      18.384 -20.711  -0.145  0.00  0.00     0.040 A 
ATOM     26  C   UNL d   1      19.482 -19.921  -0.501  0.00  0.00     0.016 A 
BRANCH  23  27
ATOM     27  O   UNL d   1      19.155 -21.180   3.472  0.00  0.00    -0.349 OA
BRANCH  27  28
ATOM     28  C   UNL d   1      19.895 -20.450   4.456  0.00  0.00     0.171 C 
ATOM     29  C   UNL d   1      19.158 -20.451   5.781  0.00  0.00     0.034 C 
ENDBRANCH  27  28
ENDBRANCH  23  27
BRANCH  24  30
ATOM     30  O   UNL d   1      17.096 -21.873   1.451  0.00  0.00    -0.358 OA
ATOM     31  H   UNL d   1      16.986 -22.617   0.840  0.00  0.00     0.217 HD
ENDBRANCH  24  30
ENDBRANCH  20  21
ENDBRANCH   1  19
TORSDOF 8
ENDMDL
MODEL 2
REMARK VINA RESULT:    -8.874      3.631     11.344
REMARK INTER + INTRA:         -12.652
REMARK INTER:                 -11.260
REMARK INTRA:                  -1.392
REMARK CONF_INDEPENDENT:        2.386
REMARK UNBOUND:                -1.392
REMARK  8 active torsions:
REMARK  status: ('A' for Active; 'I' for Inactive)
REMARK    1  A    between atoms: C_2  and  O_3 
REMARK    2  A    between atoms: O_3  and  C_4 
REMARK    3  A    between atoms: C_6  and  C_7 
REMARK    4  A    between atoms: N_8  and  N_9 
REMARK       I    between atoms: N_9  and  C_10 
REMARK    5  A    between atoms: C_10  and  C_12 
REMARK    6  A    between atoms: C_16  and  S_17 
REMARK    7  A    between atoms: S_17  and  N_20 
REMARK    8  A    between atoms: C_28  and  O_29 
ROOT
ATOM      1  N   UNL d   1      27.163 -15.281  -2.148  0.00  0.00    -0.243 N 
ATOM      2  C   UNL d   1      25.868 -15.796  -2.357  0.00  0.00     0.271 C 
ATOM      3  O   UNL d   1      25.229 -15.614  -3.393  0.00  0.00    -0.266 OA
ATOM      4  H   UNL d   1      27.693 -15.495  -1.316  0.00  0.00     0.192 HD
ENDROOT
BRANCH   2   5
ATOM      5  C   UNL d   1      25.183 -16.593  -1.254  0.00  0.00     0.035 C 
ATOM      6  C   UNL d   1      25.910 -17.197  -0.244  0.00  0.00     0.017 C 
ATOM      7  C   UNL d   1      25.287 -18.120   0.627  0.00  0.00     0.003 C 
ATOM      8  C   UNL d   1      23.951 -18.526   0.453  0.00  0.00     0.025 C 
ATOM      9  C   UNL d   1      23.219 -17.950  -0.567  0.00  0.00     0.080 C 
ATOM     10  C   UNL d   1      23.827 -16.901  -1.265  0.00  0.00     0.042 C 
BRANCH   9  11
ATOM     11  S   UNL d   1      21.570 -18.581  -0.977  0.00  0.00     0.260 S 
ATOM     12  O   UNL d   1      20.654 -17.450  -0.897  0.00  0.00    -0.200 OA
ATOM     13  O   UNL d   1      21.726 -19.325  -2.198  0.00  0.00    -0.200 OA
BRANCH  11  14
ATOM     14  N   UNL d   1      21.083 -19.685   0.251  0.00  0.00    -0.307 N 
ATOM     15  C   UNL d   1      20.106 -20.760  -0.072  0.00  0.00     0.135 C 
ATOM     16  C   UNL d   1      18.793 -20.192   0.410  0.00  0.00     0.022 C 
ATOM     17  C   UNL d   1      19.214 -19.490   1.722  0.00  0.00     0.022 C 
ATOM     18  C   UNL d   1      20.704 -19.117   1.562  0.00  0.00     0.135 C 
ENDBRANCH  11  14
ENDBRANCH   9  11
ENDBRANCH   2   5
BRANCH   1  19
ATOM     19  N   UNL d   1      27.816 -14.633  -3.191  0.00  0.00    -0.183 NA
ATOM     20  C   UNL d   1      28.281 -15.330  -4.190  0.00  0.00     0.150 C 
BRANCH  20  21
ATOM     21  C   UNL d   1      28.947 -14.675  -5.371  0.00  0.00    -0.014 A 
ATOM     22  C   UNL d   1      29.909 -15.336  -6.160  0.00  0.00     0.052 A 
ATOM     23  C   UNL d   1      30.523 -14.696  -7.272  0.00  0.00     0.102 A 
ATOM     24  C   UNL d   1      30.125 -13.394  -7.595  0.00  0.00     0.099 A 
ATOM     25  C   UNL d   1      29.177 -12.734  -6.814  0.00  0.00     0.040 A 
ATOM     26  C   UNL d   1      28.595 -13.367  -5.711  0.00  0.00     0.016 A 
BRANCH  23  27
ATOM     27  O   UNL d   1      31.449 -15.473  -7.922  0.00  0.00    -0.349 OA
BRANCH  27  28
ATOM     28  C   UNL d   1      32.808 -15.554  -7.480  0.00  0.00     0.171 C 
ATOM     29  C   UNL d   1      33.562 -14.293  -7.854  0.00  0.00     0.034 C 
ENDBRANCH  27  28
ENDBRANCH  23  27
BRANCH  24  30
ATOM     30  O   UNL d   1      30.611 -12.730  -8.684  0.00  0.00    -0.358 OA
ATOM     31  H   UNL d   1      30.793 -13.333  -9.421  0.00  0.00     0.217 HD
ENDBRANCH  24  30
ENDBRANCH  20  21
ENDBRANCH   1  19
TORSDOF 8
ENDMDL
MODEL 3
REMARK VINA RESULT:    -8.741      2.917     10.920
REMARK INTER + INTRA:         -12.585
REMARK INTER:                 -11.127
REMARK INTRA:                  -1.457
REMARK CONF_INDEPENDENT:        2.386
REMARK UNBOUND:                -1.457
REMARK  8 active torsions:
REMARK  status: ('A' for Active; 'I' for Inactive)
REMARK    1  A    between atoms: C_2  and  O_3 
REMARK    2  A    between atoms: O_3  and  C_4 
REMARK    3  A    between atoms: C_6  and  C_7 
REMARK    4  A    between atoms: N_8  and  N_9 
REMARK       I    between atoms: N_9  and  C_10 
REMARK    5  A    between atoms: C_10  and  C_12 
REMARK    6  A    between atoms: C_16  and  S_17 
REMARK    7  A    between atoms: S_17  and  N_20 
REMARK    8  A    between atoms: C_28  and  O_29 
ROOT
ATOM      1  N   UNL d   1      25.870 -14.629  -1.785  0.00  0.00    -0.243 N 
ATOM      2  C   UNL d   1      24.615 -15.244  -1.970  0.00  0.00     0.271 C 
ATOM      3  O   UNL d   1      23.754 -14.804  -2.730  0.00  0.00    -0.266 OA
ATOM      4  H   UNL d   1      26.585 -15.042  -1.203  0.00  0.00     0.192 HD
ENDROOT
BRANCH   2   5
ATOM      5  C   UNL d   1      24.263 -16.499  -1.180  0.00  0.00     0.035 C 
ATOM      6  C   UNL d   1      25.246 -17.331  -0.673  0.00  0.00     0.017 C 
ATOM      7  C   UNL d   1      24.905 -18.600  -0.154  0.00  0.00     0.003 C 
ATOM      8  C   UNL d   1      23.591 -19.102  -0.211  0.00  0.00     0.025 C 
ATOM      9  C   UNL d   1      22.603 -18.293  -0.737  0.00  0.00     0.080 C 
ATOM     10  C   UNL d   1      22.964 -16.977  -1.047  0.00  0.00     0.042 C 
BRANCH   9  11
ATOM     11  S   UNL d   1      20.942 -18.955  -1.034  0.00  0.00     0.260 S 
ATOM     12  O   UNL d   1      20.013 -17.840  -0.895  0.00  0.00    -0.200 OA
ATOM     13  O   UNL d   1      21.030 -19.700  -2.261  0.00  0.00    -0.200 OA
BRANCH  11  14
ATOM     14  N   UNL d   1      20.558 -20.062   0.227  0.00  0.00    -0.307 N 
ATOM     15  C   UNL d   1      19.343 -20.914   0.112  0.00  0.00     0.135 C 
ATOM     16  C   UNL d   1      18.319 -20.169   0.935  0.00  0.00     0.022 C 
ATOM     17  C   UNL d   1      19.169 -19.675   2.129  0.00  0.00     0.022 C 
ATOM     18  C   UNL d   1      20.621 -19.559   1.615  0.00  0.00     0.135 C 
ENDBRANCH  11  14
ENDBRANCH   9  11
ENDBRANCH   2   5
BRANCH   1  19
ATOM     19  N   UNL d   1      26.218 -13.538  -2.573  0.00  0.00    -0.183 NA
ATOM     20  C   UNL d   1      26.692 -13.738  -3.772  0.00  0.00     0.150 C 
BRANCH  20  21
ATOM     21  C   UNL d   1      27.033 -12.593  -4.689  0.00  0.00    -0.014 A 
ATOM     22  C   UNL d   1      26.720 -11.255  -4.376  0.00  0.00     0.052 A 
ATOM     23  C   UNL d   1      27.055 -10.191  -5.258  0.00  0.00     0.102 A 
ATOM     24  C   UNL d   1      27.739 -10.494  -6.441  0.00  0.00     0.099 A 
ATOM     25  C   UNL d   1      28.045 -11.818  -6.757  0.00  0.00     0.040 A 
ATOM     26  C   UNL d   1      27.693 -12.858  -5.890  0.00  0.00     0.016 A 
BRANCH  23  27
ATOM     27  O   UNL d   1      26.666  -8.952  -4.812  0.00  0.00    -0.349 OA
BRANCH  27  28
ATOM     28  C   UNL d   1      25.286  -8.609  -4.649  0.00  0.00     0.171 C 
ATOM     29  C   UNL d   1      24.555  -8.717  -5.973  0.00  0.00     0.034 C 
ENDBRANCH  27  28
ENDBRANCH  23  27
BRANCH  24  30
ATOM     30  O   UNL d   1      28.158  -9.529  -7.311  0.00  0.00    -0.358 OA
ATOM     31  H   UNL d   1      27.619  -8.727  -7.246  0.00  0.00     0.217 HD
ENDBRANCH  24  30
ENDBRANCH  20  21
ENDBRANCH   1  19
TORSDOF 8
ENDMDL
MODEL 4
REMARK VINA RESULT:    -8.666      6.788      9.801
REMARK INTER + INTRA:         -12.267
REMARK INTER:                 -11.052
REMARK INTRA:                  -1.215
REMARK CONF_INDEPENDENT:        2.386
REMARK UNBOUND:                -1.215
REMARK  8 active torsions:
REMARK  status: ('A' for Active; 'I' for Inactive)
REMARK    1  A    between atoms: C_2  and  O_3 
REMARK    2  A    between atoms: O_3  and  C_4 
REMARK    3  A    between atoms: C_6  and  C_7 
REMARK    4  A    between atoms: N_8  and  N_9 
REMARK       I    between atoms: N_9  and  C_10 
REMARK    5  A    between atoms: C_10  and  C_12 
REMARK    6  A    between atoms: C_16  and  S_17 
REMARK    7  A    between atoms: S_17  and  N_20 
REMARK    8  A    between atoms: C_28  and  O_29 
ROOT
ATOM      1  N   UNL d   1      28.185 -14.826   3.334  0.00  0.00    -0.243 N 
ATOM      2  C   UNL d   1      27.402 -13.992   2.511  0.00  0.00     0.271 C 
ATOM      3  O   UNL d   1      26.652 -13.122   2.952  0.00  0.00    -0.266 OA
ATOM      4  H   UNL d   1      28.839 -15.492   2.949  0.00  0.00     0.192 HD
ENDROOT
BRANCH   2   5
ATOM      5  C   UNL d   1      27.436 -14.172   0.998  0.00  0.00     0.035 C 
ATOM      6  C   UNL d   1      28.144 -13.304   0.186  0.00  0.00     0.017 C 
ATOM      7  C   UNL d   1      27.974 -13.344  -1.217  0.00  0.00     0.003 C 
ATOM      8  C   UNL d   1      27.029 -14.189  -1.830  0.00  0.00     0.025 C 
ATOM      9  C   UNL d   1      26.298 -15.044  -1.029  0.00  0.00     0.080 C 
ATOM     10  C   UNL d   1      26.652 -15.101   0.323  0.00  0.00     0.042 C 
BRANCH   9  11
ATOM     11  S   UNL d   1      24.924 -15.997  -1.728  0.00  0.00     0.260 S 
ATOM     12  O   UNL d   1      24.038 -15.042  -2.382  0.00  0.00    -0.200 OA
ATOM     13  O   UNL d   1      25.528 -17.075  -2.466  0.00  0.00    -0.200 OA
BRANCH  11  14
ATOM     14  N   UNL d   1      24.020 -16.688  -0.436  0.00  0.00    -0.307 N 
ATOM     15  C   UNL d   1      24.373 -18.044   0.066  0.00  0.00     0.135 C 
ATOM     16  C   UNL d   1      23.384 -18.942  -0.638  0.00  0.00     0.022 C 
ATOM     17  C   UNL d   1      22.094 -18.089  -0.596  0.00  0.00     0.022 C 
ATOM     18  C   UNL d   1      22.546 -16.614  -0.524  0.00  0.00     0.135 C 
ENDBRANCH  11  14
ENDBRANCH   9  11
ENDBRANCH   2   5
BRANCH   1  19
ATOM     19  N   UNL d   1      28.216 -14.598   4.705  0.00  0.00    -0.183 NA
ATOM     20  C   UNL d   1      28.743 -13.494   5.160  0.00  0.00     0.150 C 
BRANCH  20  21
ATOM     21  C   UNL d   1      28.754 -13.170   6.631  0.00  0.00    -0.014 A 
ATOM     22  C   UNL d   1      28.907 -14.159   7.622  0.00  0.00     0.052 A 
ATOM     23  C   UNL d   1      28.916 -13.827   9.005  0.00  0.00     0.102 A 
ATOM     24  C   UNL d   1      28.803 -12.480   9.368  0.00  0.00     0.099 A 
ATOM     25  C   UNL d   1      28.646 -11.498   8.390  0.00  0.00     0.040 A 
ATOM     26  C   UNL d   1      28.619 -11.840   7.034  0.00  0.00     0.016 A 
BRANCH  23  27
ATOM     27  O   UNL d   1      29.058 -14.909   9.839  0.00  0.00    -0.349 OA
BRANCH  27  28
ATOM     28  C   UNL d   1      30.169 -15.029  10.733  0.00  0.00     0.171 C 
ATOM     29  C   UNL d   1      31.451 -15.261   9.957  0.00  0.00     0.034 C 
ENDBRANCH  27  28
ENDBRANCH  23  27
BRANCH  24  30
ATOM     30  O   UNL d   1      28.870 -12.065  10.667  0.00  0.00    -0.358 OA
ATOM     31  H   UNL d   1      28.828 -11.100  10.739  0.00  0.00     0.217 HD
ENDBRANCH  24  30
ENDBRANCH  20  21
ENDBRANCH   1  19
TORSDOF 8
ENDMDL
MODEL 5
REMARK VINA RESULT:    -8.546      6.811     10.013
REMARK INTER + INTRA:         -12.305
REMARK INTER:                 -10.932
REMARK INTRA:                  -1.373
REMARK CONF_INDEPENDENT:        2.386
REMARK UNBOUND:                -1.373
REMARK  8 active torsions:
REMARK  status: ('A' for Active; 'I' for Inactive)
REMARK    1  A    between atoms: C_2  and  O_3 
REMARK    2  A    between atoms: O_3  and  C_4 
REMARK    3  A    between atoms: C_6  and  C_7 
REMARK    4  A    between atoms: N_8  and  N_9 
REMARK       I    between atoms: N_9  and  C_10 
REMARK    5  A    between atoms: C_10  and  C_12 
REMARK    6  A    between atoms: C_16  and  S_17 
REMARK    7  A    between atoms: S_17  and  N_20 
REMARK    8  A    between atoms: C_28  and  O_29 
ROOT
ATOM      1  N   UNL d   1      28.316 -14.411   3.115  0.00  0.00    -0.243 N 
ATOM      2  C   UNL d   1      27.732 -14.093   1.873  0.00  0.00     0.271 C 
ATOM      3  O   UNL d   1      27.251 -12.990   1.616  0.00  0.00    -0.266 OA
ATOM      4  H   UNL d   1      28.760 -15.303   3.283  0.00  0.00     0.192 HD
ENDROOT
BRANCH   2   5
ATOM      5  C   UNL d   1      27.645 -15.155   0.783  0.00  0.00     0.035 C 
ATOM      6  C   UNL d   1      28.772 -15.584   0.104  0.00  0.00     0.017 C 
ATOM      7  C   UNL d   1      28.644 -16.386  -1.052  0.00  0.00     0.003 C 
ATOM      8  C   UNL d   1      27.389 -16.701  -1.607  0.00  0.00     0.025 C 
ATOM      9  C   UNL d   1      26.255 -16.258  -0.954  0.00  0.00     0.080 C 
ATOM     10  C   UNL d   1      26.441 -15.644   0.289  0.00  0.00     0.042 C 
BRANCH   9  11
ATOM     11  S   UNL d   1      24.626 -16.445  -1.727  0.00  0.00     0.260 S 
ATOM     12  O   UNL d   1      24.169 -15.105  -2.076  0.00  0.00    -0.200 OA
ATOM     13  O   UNL d   1      24.782 -17.461  -2.733  0.00  0.00    -0.200 OA
BRANCH  11  14
ATOM     14  N   UNL d   1      23.523 -17.039  -0.547  0.00  0.00    -0.307 N 
ATOM     15  C   UNL d   1      23.807 -18.327   0.143  0.00  0.00     0.135 C 
ATOM     16  C   UNL d   1      22.973 -19.324  -0.626  0.00  0.00     0.022 C 
ATOM     17  C   UNL d   1      21.681 -18.517  -0.893  0.00  0.00     0.022 C 
ATOM     18  C   UNL d   1      22.086 -17.027  -0.894  0.00  0.00     0.135 C 
ENDBRANCH  11  14
ENDBRANCH   9  11
ENDBRANCH   2   5
BRANCH   1  19
ATOM     19  N   UNL d   1      28.472 -13.414   4.072  0.00  0.00    -0.183 NA
ATOM     20  C   UNL d   1      28.598 -13.742   5.328  0.00  0.00     0.150 C 
BRANCH  20  21
ATOM     21  C   UNL d   1      28.825 -12.708   6.398  0.00  0.00    -0.014 A 
ATOM     22  C   UNL d   1      28.323 -12.851   7.707  0.00  0.00     0.052 A 
ATOM     23  C   UNL d   1      28.552 -11.860   8.701  0.00  0.00     0.102 A 
ATOM     24  C   UNL d   1      29.324 -10.742   8.363  0.00  0.00     0.099 A 
ATOM     25  C   UNL d   1      29.818 -10.594   7.068  0.00  0.00     0.040 A 
ATOM     26  C   UNL d   1      29.569 -11.567   6.093  0.00  0.00     0.016 A 
BRANCH  23  27
ATOM     27  O   UNL d   1      27.982 -12.146   9.916  0.00  0.00    -0.349 OA
BRANCH  27  28
ATOM     28  C   UNL d   1      28.527 -13.141  10.789  0.00  0.00     0.171 C 
ATOM     29  C   UNL d   1      27.780 -14.451  10.629  0.00  0.00     0.034 C 
ENDBRANCH  27  28
ENDBRANCH  23  27
BRANCH  24  30
ATOM     30  O   UNL d   1      29.650  -9.778   9.272  0.00  0.00    -0.358 OA
ATOM     31  H   UNL d   1      29.418 -10.042  10.175  0.00  0.00     0.217 HD
ENDBRANCH  24  30
ENDBRANCH  20  21
ENDBRANCH   1  19
TORSDOF 8
ENDMDL
MODEL 6
REMARK VINA RESULT:    -8.362      6.787     10.223
REMARK INTER + INTRA:         -12.093
REMARK INTER:                 -10.748
REMARK INTRA:                  -1.345
REMARK CONF_INDEPENDENT:        2.386
REMARK UNBOUND:                -1.345
REMARK  8 active torsions:
REMARK  status: ('A' for Active; 'I' for Inactive)
REMARK    1  A    between atoms: C_2  and  O_3 
REMARK    2  A    between atoms: O_3  and  C_4 
REMARK    3  A    between atoms: C_6  and  C_7 
REMARK    4  A    between atoms: N_8  and  N_9 
REMARK       I    between atoms: N_9  and  C_10 
REMARK    5  A    between atoms: C_10  and  C_12 
REMARK    6  A    between atoms: C_16  and  S_17 
REMARK    7  A    between atoms: S_17  and  N_20 
REMARK    8  A    between atoms: C_28  and  O_29 
ROOT
ATOM      1  N   UNL d   1      28.549 -14.775   3.126  0.00  0.00    -0.243 N 
ATOM      2  C   UNL d   1      27.695 -14.409   2.066  0.00  0.00     0.271 C 
ATOM      3  O   UNL d   1      26.937 -13.440   2.116  0.00  0.00    -0.266 OA
ATOM      4  H   UNL d   1      29.208 -15.536   3.040  0.00  0.00     0.192 HD
ENDROOT
BRANCH   2   5
ATOM      5  C   UNL d   1      27.658 -15.250   0.796  0.00  0.00     0.035 C 
ATOM      6  C   UNL d   1      28.782 -15.408   0.005  0.00  0.00     0.017 C 
ATOM      7  C   UNL d   1      28.672 -15.989  -1.279  0.00  0.00     0.003 C 
ATOM      8  C   UNL d   1      27.427 -16.341  -1.834  0.00  0.00     0.025 C 
ATOM      9  C   UNL d   1      26.294 -16.166  -1.065  0.00  0.00     0.080 C 
ATOM     10  C   UNL d   1      26.487 -15.778   0.265  0.00  0.00     0.042 C 
BRANCH   9  11
ATOM     11  S   UNL d   1      24.651 -16.398  -1.794  0.00  0.00     0.260 S 
ATOM     12  O   UNL d   1      24.172 -15.077  -2.183  0.00  0.00    -0.200 OA
ATOM     13  O   UNL d   1      24.796 -17.450  -2.765  0.00  0.00    -0.200 OA
BRANCH  11  14
ATOM     14  N   UNL d   1      23.579 -16.959  -0.570  0.00  0.00    -0.307 N 
ATOM     15  C   UNL d   1      23.904 -18.205   0.177  0.00  0.00     0.135 C 
ATOM     16  C   UNL d   1      23.082 -19.257  -0.529  0.00  0.00     0.022 C 
ATOM     17  C   UNL d   1      21.767 -18.494  -0.815  0.00  0.00     0.022 C 
ATOM     18  C   UNL d   1      22.138 -16.997  -0.895  0.00  0.00     0.135 C 
ENDBRANCH  11  14
ENDBRANCH   9  11
ENDBRANCH   2   5
BRANCH   1  19
ATOM     19  N   UNL d   1      28.643 -13.953   4.243  0.00  0.00    -0.183 NA
ATOM     20  C   UNL d   1      28.760 -14.489   5.426  0.00  0.00     0.150 C 
BRANCH  20  21
ATOM     21  C   UNL d   1      28.921 -13.647   6.665  0.00  0.00    -0.014 A 
ATOM     22  C   UNL d   1      28.839 -12.241   6.638  0.00  0.00     0.052 A 
ATOM     23  C   UNL d   1      28.992 -11.468   7.822  0.00  0.00     0.102 A 
ATOM     24  C   UNL d   1      29.193 -12.137   9.035  0.00  0.00     0.099 A 
ATOM     25  C   UNL d   1      29.280 -13.528   9.064  0.00  0.00     0.040 A 
ATOM     26  C   UNL d   1      29.147 -14.277   7.890  0.00  0.00     0.016 A 
BRANCH  23  27
ATOM     27  O   UNL d   1      28.901 -10.113   7.620  0.00  0.00    -0.349 OA
BRANCH  27  28
ATOM     28  C   UNL d   1      30.039  -9.254   7.748  0.00  0.00     0.171 C 
ATOM     29  C   UNL d   1      30.215  -8.821   9.190  0.00  0.00     0.034 C 
ENDBRANCH  27  28
ENDBRANCH  23  27
BRANCH  24  30
ATOM     30  O   UNL d   1      29.283 -11.478  10.227  0.00  0.00    -0.358 OA
ATOM     31  H   UNL d   1      28.905 -10.588  10.175  0.00  0.00     0.217 HD
ENDBRANCH  24  30
ENDBRANCH  20  21
ENDBRANCH   1  19
TORSDOF 8
ENDMDL
MODEL 7
REMARK VINA RESULT:    -8.234      6.494      8.699
REMARK INTER + INTRA:         -11.983
REMARK INTER:                 -10.621
REMARK INTRA:                  -1.362
REMARK CONF_INDEPENDENT:        2.386
REMARK UNBOUND:                -1.362
REMARK  8 active torsions:
REMARK  status: ('A' for Active; 'I' for Inactive)
REMARK    1  A    between atoms: C_2  and  O_3 
REMARK    2  A    between atoms: O_3  and  C_4 
REMARK    3  A    between atoms: C_6  and  C_7 
REMARK    4  A    between atoms: N_8  and  N_9 
REMARK       I    between atoms: N_9  and  C_10 
REMARK    5  A    between atoms: C_10  and  C_12 
REMARK    6  A    between atoms: C_16  and  S_17 
REMARK    7  A    between atoms: S_17  and  N_20 
REMARK    8  A    between atoms: C_28  and  O_29 
ROOT
ATOM      1  N   UNL d   1      28.169 -14.834   2.252  0.00  0.00    -0.243 N 
ATOM      2  C   UNL d   1      27.381 -14.517   1.127  0.00  0.00     0.271 C 
ATOM      3  O   UNL d   1      26.522 -13.634   1.133  0.00  0.00    -0.266 OA
ATOM      4  H   UNL d   1      28.909 -15.519   2.207  0.00  0.00     0.192 HD
ENDROOT
BRANCH   2   5
ATOM      5  C   UNL d   1      27.550 -15.308  -0.164  0.00  0.00     0.035 C 
ATOM      6  C   UNL d   1      28.621 -16.164  -0.349  0.00  0.00     0.017 C 
ATOM      7  C   UNL d   1      28.888 -16.703  -1.628  0.00  0.00     0.003 C 
ATOM      8  C   UNL d   1      28.148 -16.329  -2.765  0.00  0.00     0.025 C 
ATOM      9  C   UNL d   1      27.091 -15.455  -2.600  0.00  0.00     0.080 C 
ATOM     10  C   UNL d   1      26.751 -15.116  -1.287  0.00  0.00     0.042 C 
BRANCH   9  11
ATOM     11  S   UNL d   1      26.238 -14.772  -4.046  0.00  0.00     0.260 S 
ATOM     12  O   UNL d   1      26.641 -15.576  -5.193  0.00  0.00    -0.200 OA
ATOM     13  O   UNL d   1      24.854 -14.660  -3.669  0.00  0.00    -0.200 OA
BRANCH  11  14
ATOM     14  N   UNL d   1      26.833 -13.184  -4.337  0.00  0.00    -0.307 N 
ATOM     15  C   UNL d   1      27.778 -12.564  -3.368  0.00  0.00     0.135 C 
ATOM     16  C   UNL d   1      26.882 -11.692  -2.520  0.00  0.00     0.022 C 
ATOM     17  C   UNL d   1      25.905 -11.121  -3.574  0.00  0.00     0.022 C 
ATOM     18  C   UNL d   1      25.849 -12.151  -4.724  0.00  0.00     0.135 C 
ENDBRANCH  11  14
ENDBRANCH   9  11
ENDBRANCH   2   5
BRANCH   1  19
ATOM     19  N   UNL d   1      28.072 -14.050   3.396  0.00  0.00    -0.183 NA
ATOM     20  C   UNL d   1      28.687 -14.424   4.484  0.00  0.00     0.150 C 
BRANCH  20  21
ATOM     21  C   UNL d   1      28.662 -13.586   5.735  0.00  0.00    -0.014 A 
ATOM     22  C   UNL d   1      28.997 -14.107   7.001  0.00  0.00     0.052 A 
ATOM     23  C   UNL d   1      28.968 -13.295   8.168  0.00  0.00     0.102 A 
ATOM     24  C   UNL d   1      28.629 -11.943   8.032  0.00  0.00     0.099 A 
ATOM     25  C   UNL d   1      28.292 -11.425   6.782  0.00  0.00     0.040 A 
ATOM     26  C   UNL d   1      28.305 -12.239   5.645  0.00  0.00     0.016 A 
BRANCH  23  27
ATOM     27  O   UNL d   1      29.306 -13.960   9.320  0.00  0.00    -0.349 OA
BRANCH  27  28
ATOM     28  C   UNL d   1      28.311 -14.483  10.207  0.00  0.00     0.171 C 
ATOM     29  C   UNL d   1      27.782 -13.388  11.113  0.00  0.00     0.034 C 
ENDBRANCH  27  28
ENDBRANCH  23  27
BRANCH  24  30
ATOM     30  O   UNL d   1      28.642 -11.077   9.087  0.00  0.00    -0.358 OA
ATOM     31  H   UNL d   1      27.765 -10.699   9.252  0.00  0.00     0.217 HD
ENDBRANCH  24  30
ENDBRANCH  20  21
ENDBRANCH   1  19
TORSDOF 8
ENDMDL
MODEL 8
REMARK VINA RESULT:    -7.811      6.385      9.033
REMARK INTER + INTRA:         -11.803
REMARK INTER:                 -10.197
REMARK INTRA:                  -1.606
REMARK CONF_INDEPENDENT:        2.386
REMARK UNBOUND:                -1.606
REMARK  8 active torsions:
REMARK  status: ('A' for Active; 'I' for Inactive)
REMARK    1  A    between atoms: C_2  and  O_3 
REMARK    2  A    between atoms: O_3  and  C_4 
REMARK    3  A    between atoms: C_6  and  C_7 
REMARK    4  A    between atoms: N_8  and  N_9 
REMARK       I    between atoms: N_9  and  C_10 
REMARK    5  A    between atoms: C_10  and  C_12 
REMARK    6  A    between atoms: C_16  and  S_17 
REMARK    7  A    between atoms: S_17  and  N_20 
REMARK    8  A    between atoms: C_28  and  O_29 
ROOT
ATOM      1  N   UNL d   1      27.920 -14.334   2.510  0.00  0.00    -0.243 N 
ATOM      2  C   UNL d   1      27.046 -14.048   1.443  0.00  0.00     0.271 C 
ATOM      3  O   UNL d   1      26.396 -13.006   1.364  0.00  0.00    -0.266 OA
ATOM      4  H   UNL d   1      28.490 -15.168   2.523  0.00  0.00     0.192 HD
ENDROOT
BRANCH   2   5
ATOM      5  C   UNL d   1      26.847 -15.072   0.331  0.00  0.00     0.035 C 
ATOM      6  C   UNL d   1      27.548 -16.265   0.317  0.00  0.00     0.017 C 
ATOM      7  C   UNL d   1      27.527 -17.089  -0.831  0.00  0.00     0.003 C 
ATOM      8  C   UNL d   1      26.881 -16.697  -2.018  0.00  0.00     0.025 C 
ATOM      9  C   UNL d   1      26.198 -15.497  -2.028  0.00  0.00     0.080 C 
ATOM     10  C   UNL d   1      26.086 -14.825  -0.806  0.00  0.00     0.042 C 
BRANCH   9  11
ATOM     11  S   UNL d   1      25.530 -14.838  -3.579  0.00  0.00     0.260 S 
ATOM     12  O   UNL d   1      25.739 -15.862  -4.596  0.00  0.00    -0.200 OA
ATOM     13  O   UNL d   1      24.210 -14.360  -3.267  0.00  0.00    -0.200 OA
BRANCH  11  14
ATOM     14  N   UNL d   1      26.480 -13.484  -4.055  0.00  0.00    -0.307 N 
ATOM     15  C   UNL d   1      27.595 -13.024  -3.184  0.00  0.00     0.135 C 
ATOM     16  C   UNL d   1      26.983 -11.878  -2.414  0.00  0.00     0.022 C 
ATOM     17  C   UNL d   1      26.123 -11.190  -3.499  0.00  0.00     0.022 C 
ATOM     18  C   UNL d   1      25.759 -12.283  -4.528  0.00  0.00     0.135 C 
ENDBRANCH  11  14
ENDBRANCH   9  11
ENDBRANCH   2   5
BRANCH   1  19
ATOM     19  N   UNL d   1      28.165 -13.360   3.472  0.00  0.00    -0.183 NA
ATOM     20  C   UNL d   1      27.989 -13.644   4.733  0.00  0.00     0.150 C 
BRANCH  20  21
ATOM     21  C   UNL d   1      28.291 -12.646   5.819  0.00  0.00    -0.014 A 
ATOM     22  C   UNL d   1      28.295 -12.993   7.185  0.00  0.00     0.052 A 
ATOM     23  C   UNL d   1      28.587 -12.032   8.192  0.00  0.00     0.102 A 
ATOM     24  C   UNL d   1      28.907 -10.728   7.798  0.00  0.00     0.099 A 
ATOM     25  C   UNL d   1      28.899 -10.379   6.448  0.00  0.00     0.040 A 
ATOM     26  C   UNL d   1      28.591 -11.329   5.467  0.00  0.00     0.016 A 
BRANCH  23  27
ATOM     27  O   UNL d   1      28.532 -12.530   9.471  0.00  0.00    -0.349 OA
BRANCH  27  28
ATOM     28  C   UNL d   1      28.613 -13.934   9.737  0.00  0.00     0.171 C 
ATOM     29  C   UNL d   1      28.163 -14.230  11.154  0.00  0.00     0.034 C 
ENDBRANCH  27  28
ENDBRANCH  23  27
BRANCH  24  30
ATOM     30  O   UNL d   1      29.265  -9.761   8.693  0.00  0.00    -0.358 OA
ATOM     31  H   UNL d   1      29.145 -10.056   9.608  0.00  0.00     0.217 HD
ENDBRANCH  24  30
ENDBRANCH  20  21
ENDBRANCH   1  19
TORSDOF 8
ENDMDL
MODEL 9
REMARK VINA RESULT:    -7.317      6.348      9.224
REMARK INTER + INTRA:         -11.407
REMARK INTER:                  -9.704
REMARK INTRA:                  -1.703
REMARK CONF_INDEPENDENT:        2.386
REMARK UNBOUND:                -1.703
REMARK  8 active torsions:
REMARK  status: ('A' for Active; 'I' for Inactive)
REMARK    1  A    between atoms: C_2  and  O_3 
REMARK    2  A    between atoms: O_3  and  C_4 
REMARK    3  A    between atoms: C_6  and  C_7 
REMARK    4  A    between atoms: N_8  and  N_9 
REMARK       I    between atoms: N_9  and  C_10 
REMARK    5  A    between atoms: C_10  and  C_12 
REMARK    6  A    between atoms: C_16  and  S_17 
REMARK    7  A    between atoms: S_17  and  N_20 
REMARK    8  A    between atoms: C_28  and  O_29 
ROOT
ATOM      1  N   UNL d   1      27.882 -14.729   2.373  0.00  0.00    -0.243 N 
ATOM      2  C   UNL d   1      27.123 -14.260   1.282  0.00  0.00     0.271 C 
ATOM      3  O   UNL d   1      26.396 -13.269   1.343  0.00  0.00    -0.266 OA
ATOM      4  H   UNL d   1      28.519 -15.507   2.283  0.00  0.00     0.192 HD
ENDROOT
BRANCH   2   5
ATOM      5  C   UNL d   1      27.153 -15.014  -0.042  0.00  0.00     0.035 C 
ATOM      6  C   UNL d   1      28.221 -15.824  -0.385  0.00  0.00     0.017 C 
ATOM      7  C   UNL d   1      28.341 -16.323  -1.702  0.00  0.00     0.003 C 
ATOM      8  C   UNL d   1      27.450 -15.951  -2.725  0.00  0.00     0.025 C 
ATOM      9  C   UNL d   1      26.393 -15.122  -2.404  0.00  0.00     0.080 C 
ATOM     10  C   UNL d   1      26.212 -14.826  -1.049  0.00  0.00     0.042 C 
BRANCH   9  11
ATOM     11  S   UNL d   1      25.339 -14.438  -3.710  0.00  0.00     0.260 S 
ATOM     12  O   UNL d   1      25.528 -15.277  -4.887  0.00  0.00    -0.200 OA
ATOM     13  O   UNL d   1      24.038 -14.272  -3.119  0.00  0.00    -0.200 OA
BRANCH  11  14
ATOM     14  N   UNL d   1      25.927 -12.876  -4.131  0.00  0.00    -0.307 N 
ATOM     15  C   UNL d   1      27.366 -12.699  -4.469  0.00  0.00     0.135 C 
ATOM     16  C   UNL d   1      27.965 -12.191  -3.180  0.00  0.00     0.022 C 
ATOM     17  C   UNL d   1      26.861 -11.233  -2.672  0.00  0.00     0.022 C 
ATOM     18  C   UNL d   1      25.531 -11.746  -3.265  0.00  0.00     0.135 C 
ENDBRANCH  11  14
ENDBRANCH   9  11
ENDBRANCH   2   5
BRANCH   1  19
ATOM     19  N   UNL d   1      27.919 -13.987   3.548  0.00  0.00    -0.183 NA
ATOM     20  C   UNL d   1      28.553 -14.458   4.585  0.00  0.00     0.150 C 
BRANCH  20  21
ATOM     21  C   UNL d   1      28.672 -13.673   5.865  0.00  0.00    -0.014 A 
ATOM     22  C   UNL d   1      28.547 -12.270   5.905  0.00  0.00     0.052 A 
ATOM     23  C   UNL d   1      28.661 -11.551   7.127  0.00  0.00     0.102 A 
ATOM     24  C   UNL d   1      28.869 -12.272   8.309  0.00  0.00     0.099 A 
ATOM     25  C   UNL d   1      28.999 -13.660   8.272  0.00  0.00     0.040 A 
ATOM     26  C   UNL d   1      28.904 -14.354   7.061  0.00  0.00     0.016 A 
BRANCH  23  27
ATOM     27  O   UNL d   1      28.530 -10.191   6.990  0.00  0.00    -0.349 OA
BRANCH  27  28
ATOM     28  C   UNL d   1      29.651  -9.352   6.694  0.00  0.00     0.171 C 
ATOM     29  C   UNL d   1      29.827  -8.305   7.776  0.00  0.00     0.034 C 
ENDBRANCH  27  28
ENDBRANCH  23  27
BRANCH  24  30
ATOM     30  O   UNL d   1      28.923 -11.669   9.533  0.00  0.00    -0.358 OA
ATOM     31  H   UNL d   1      28.721 -10.724   9.477  0.00  0.00     0.217 HD
ENDBRANCH  24  30
ENDBRANCH  20  21
ENDBRANCH   1  19
TORSDOF 8
ENDMDL
