MODEL 1
REMARK VINA RESULT:    -9.578      0.000      0.000
REMARK INTER + INTRA:         -12.893
REMARK INTER:                 -11.666
REMARK INTRA:                  -1.227
REMARK CONF_INDEPENDENT:        2.088
REMARK UNBOUND:                -1.227
REMARK  7 active torsions:
REMARK  status: ('A' for Active; 'I' for Inactive)
REMARK    1  A    between atoms: C_8  and  N_9 
REMARK       I    between atoms: N_9  and  C_10 
REMARK    2  A    between atoms: C_10  and  C_12 
REMARK    3  A    between atoms: C_12  and  N_13 
REMARK    4  A    between atoms: N_13  and  C_14 
REMARK    5  A    between atoms: C_17  and  C_18 
REMARK       I    between atoms: C_18  and  N_20 
REMARK    6  A    between atoms: N_20  and  C_21 
REMARK    7  A    between atoms: C_21  and  C_22 
ROOT
ATOM      1  C   UNL d   1      26.304 -17.144   0.086  0.00  0.00     0.028 A 
ATOM      2  C   UNL d   1      25.596 -18.246   0.578  0.00  0.00     0.030 A 
ATOM      3  C   UNL d   1      24.257 -18.455   0.227  0.00  0.00     0.019 A 
ATOM      4  C   UNL d   1      23.595 -17.545  -0.607  0.00  0.00     0.032 A 
ATOM      5  C   UNL d   1      24.330 -16.484  -1.151  0.00  0.00     0.019 A 
ATOM      6  C   UNL d   1      25.668 -16.293  -0.805  0.00  0.00     0.030 A 
ENDROOT
BRANCH   1   7
ATOM      7  N   UNL d   1      27.575 -16.918   0.532  0.00  0.00    -0.381 N 
ATOM      8  H   UNL d   1      28.138 -17.760   0.732  0.00  0.00     0.160 HD
BRANCH   7   9
ATOM      9  C   UNL d   1      28.417 -15.732   0.255  0.00  0.00     0.223 C 
BRANCH   9  10
ATOM     10  C   UNL d   1      27.956 -14.668   1.247  0.00  0.00     0.239 C 
ATOM     11  N   UNL d   1      28.613 -14.499   2.460  0.00  0.00    -0.325 N 
ATOM     12  H   UNL d   1      29.377 -15.135   2.652  0.00  0.00     0.169 HD
ATOM     13  O   UNL d   1      26.971 -14.050   0.828  0.00  0.00    -0.271 OA
BRANCH  11  14
ATOM     14  C   UNL d   1      28.345 -13.519   3.503  0.00  0.00     0.046 A 
ATOM     15  C   UNL d   1      28.253 -12.133   3.163  0.00  0.00    -0.035 A 
ATOM     16  C   UNL d   1      27.970 -11.166   4.165  0.00  0.00     0.009 A 
ATOM     17  C   UNL d   1      28.434 -11.570   1.773  0.00  0.00     0.050 C 
ATOM     18  C   UNL d   1      27.780 -11.522   5.491  0.00  0.00     0.001 A 
ATOM     19  C   UNL d   1      27.874 -12.848   5.835  0.00  0.00     0.009 A 
ATOM     20  C   UNL d   1      28.149 -13.839   4.875  0.00  0.00    -0.035 A 
ATOM     21  C   UNL d   1      28.201 -15.202   5.479  0.00  0.00     0.050 C 
ENDBRANCH  11  14
ENDBRANCH   9  10
ENDBRANCH   7   9
ENDBRANCH   1   7
BRANCH   4  22
ATOM     22  C   UNL d   1      22.120 -17.722  -0.829  0.00  0.00     0.251 C 
ATOM     23  O   UNL d   1      21.378 -16.748  -0.895  0.00  0.00    -0.268 OA
ATOM     24  N   UNL d   1      21.661 -19.010  -0.986  0.00  0.00    -0.351 N 
ATOM     25  H   UNL d   1      22.311 -19.771  -0.970  0.00  0.00     0.163 HD
BRANCH  24  26
ATOM     26  C   UNL d   1      20.268 -19.326  -1.252  0.00  0.00     0.187 C 
BRANCH  26  27
ATOM     27  C   UNL d   1      19.632 -19.868  -0.011  0.00  0.00     0.070 A 
ATOM     28  C   UNL d   1      18.446 -20.534   0.245  0.00  0.00     0.036 A 
ATOM     29  C   UNL d   1      18.423 -20.826   1.625  0.00  0.00     0.027 A 
ATOM     30  C   UNL d   1      19.584 -20.306   2.143  0.00  0.00     0.142 A 
ATOM     31  O   UNL d   1      20.324 -19.719   1.162  0.00  0.00    -0.325 OA
ENDBRANCH  26  27
ENDBRANCH  24  26
ENDBRANCH   4  22
TORSDOF 7
ENDMDL
MODEL 2
REMARK VINA RESULT:    -8.966      0.977      2.107
REMARK INTER + INTRA:         -13.206
REMARK INTER:                 -11.054
REMARK INTRA:                  -2.152
REMARK CONF_INDEPENDENT:        2.088
REMARK UNBOUND:                -2.152
REMARK  7 active torsions:
REMARK  status: ('A' for Active; 'I' for Inactive)
REMARK    1  A    between atoms: C_8  and  N_9 
REMARK       I    between atoms: N_9  and  C_10 
REMARK    2  A    between atoms: C_10  and  C_12 
REMARK    3  A    between atoms: C_12  and  N_13 
REMARK    4  A    between atoms: N_13  and  C_14 
REMARK    5  A    between atoms: C_17  and  C_18 
REMARK       I    between atoms: C_18  and  N_20 
REMARK    6  A    between atoms: N_20  and  C_21 
REMARK    7  A    between atoms: C_21  and  C_22 
ROOT
ATOM      1  C   UNL d   1      26.143 -16.295  -0.302  0.00  0.00     0.028 A 
ATOM      2  C   UNL d   1      25.025 -15.737  -0.931  0.00  0.00     0.030 A 
ATOM      3  C   UNL d   1      23.904 -16.519  -1.230  0.00  0.00     0.019 A 
ATOM      4  C   UNL d   1      23.894 -17.885  -0.924  0.00  0.00     0.032 A 
ATOM      5  C   UNL d   1      24.988 -18.421  -0.232  0.00  0.00     0.019 A 
ATOM      6  C   UNL d   1      26.095 -17.629   0.073  0.00  0.00     0.030 A 
ENDROOT
BRANCH   1   7
ATOM      7  N   UNL d   1      27.257 -15.524  -0.120  0.00  0.00    -0.381 N 
ATOM      8  H   UNL d   1      27.210 -14.569  -0.506  0.00  0.00     0.160 HD
BRANCH   7   9
ATOM      9  C   UNL d   1      28.250 -15.642   0.971  0.00  0.00     0.223 C 
BRANCH   9  10
ATOM     10  C   UNL d   1      27.928 -14.506   1.938  0.00  0.00     0.239 C 
ATOM     11  N   UNL d   1      28.555 -14.431   3.176  0.00  0.00    -0.325 N 
ATOM     12  H   UNL d   1      29.199 -15.180   3.402  0.00  0.00     0.169 HD
ATOM     13  O   UNL d   1      27.072 -13.743   1.476  0.00  0.00    -0.271 OA
BRANCH  11  14
ATOM     14  C   UNL d   1      28.407 -13.409   4.202  0.00  0.00     0.046 A 
ATOM     15  C   UNL d   1      28.406 -13.788   5.581  0.00  0.00    -0.035 A 
ATOM     16  C   UNL d   1      28.284 -12.800   6.596  0.00  0.00     0.009 A 
ATOM     17  C   UNL d   1      28.531 -15.205   6.088  0.00  0.00     0.050 C 
ATOM     18  C   UNL d   1      28.158 -11.454   6.294  0.00  0.00     0.001 A 
ATOM     19  C   UNL d   1      28.148 -11.075   4.974  0.00  0.00     0.009 A 
ATOM     20  C   UNL d   1      28.269 -12.019   3.937  0.00  0.00    -0.035 A 
ATOM     21  C   UNL d   1      28.234 -11.376   2.591  0.00  0.00     0.050 C 
ENDBRANCH  11  14
ENDBRANCH   9  10
ENDBRANCH   7   9
ENDBRANCH   1   7
BRANCH   4  22
ATOM     22  C   UNL d   1      22.738 -18.716  -1.404  0.00  0.00     0.251 C 
ATOM     23  O   UNL d   1      22.852 -19.431  -2.394  0.00  0.00    -0.268 OA
ATOM     24  N   UNL d   1      21.578 -18.660  -0.665  0.00  0.00    -0.351 N 
ATOM     25  H   UNL d   1      21.547 -18.098   0.162  0.00  0.00     0.163 HD
BRANCH  24  26
ATOM     26  C   UNL d   1      20.398 -19.445  -0.987  0.00  0.00     0.187 C 
BRANCH  26  27
ATOM     27  C   UNL d   1      19.742 -19.904   0.277  0.00  0.00     0.070 A 
ATOM     28  C   UNL d   1      18.643 -20.698   0.552  0.00  0.00     0.036 A 
ATOM     29  C   UNL d   1      18.546 -20.803   1.956  0.00  0.00     0.027 A 
ATOM     30  C   UNL d   1      19.578 -20.052   2.465  0.00  0.00     0.142 A 
ATOM     31  O   UNL d   1      20.308 -19.499   1.458  0.00  0.00    -0.325 OA
ENDBRANCH  26  27
ENDBRANCH  24  26
ENDBRANCH   4  22
TORSDOF 7
ENDMDL
MODEL 3
REMARK VINA RESULT:    -8.931      3.803      5.767
REMARK INTER + INTRA:         -12.311
REMARK INTER:                 -11.019
REMARK INTRA:                  -1.291
REMARK CONF_INDEPENDENT:        2.088
REMARK UNBOUND:                -1.291
REMARK  7 active torsions:
REMARK  status: ('A' for Active; 'I' for Inactive)
REMARK    1  A    between atoms: C_8  and  N_9 
REMARK       I    between atoms: N_9  and  C_10 
REMARK    2  A    between atoms: C_10  and  C_12 
REMARK    3  A    between atoms: C_12  and  N_13 
REMARK    4  A    between atoms: N_13  and  C_14 
REMARK    5  A    between atoms: C_17  and  C_18 
REMARK       I    between atoms: C_18  and  N_20 
REMARK    6  A    between atoms: N_20  and  C_21 
REMARK    7  A    between atoms: C_21  and  C_22 
ROOT
ATOM      1  C   UNL d   1      26.465 -17.146  -0.186  0.00  0.00     0.028 A 
ATOM      2  C   UNL d   1      25.746 -18.140   0.486  0.00  0.00     0.030 A 
ATOM      3  C   UNL d   1      24.392 -18.362   0.206  0.00  0.00     0.019 A 
ATOM      4  C   UNL d   1      23.728 -17.571  -0.739  0.00  0.00     0.032 A 
ATOM      5  C   UNL d   1      24.471 -16.625  -1.457  0.00  0.00     0.019 A 
ATOM      6  C   UNL d   1      25.823 -16.422  -1.179  0.00  0.00     0.030 A 
ENDROOT
BRANCH   1   7
ATOM      7  N   UNL d   1      27.754 -16.891   0.188  0.00  0.00    -0.381 N 
ATOM      8  H   UNL d   1      27.928 -16.849   1.204  0.00  0.00     0.160 HD
BRANCH   7   9
ATOM      9  C   UNL d   1      28.980 -17.205  -0.580  0.00  0.00     0.223 C 
BRANCH   9  10
ATOM     10  C   UNL d   1      28.979 -16.238  -1.760  0.00  0.00     0.239 C 
ATOM     11  N   UNL d   1      28.944 -16.714  -3.066  0.00  0.00    -0.325 N 
ATOM     12  H   UNL d   1      28.953 -17.720  -3.179  0.00  0.00     0.169 HD
ATOM     13  O   UNL d   1      29.030 -15.061  -1.386  0.00  0.00    -0.271 OA
BRANCH  11  14
ATOM     14  C   UNL d   1      28.896 -15.950  -4.304  0.00  0.00     0.046 A 
ATOM     15  C   UNL d   1      30.031 -15.944  -5.175  0.00  0.00    -0.035 A 
ATOM     16  C   UNL d   1      29.993 -15.220  -6.397  0.00  0.00     0.009 A 
ATOM     17  C   UNL d   1      31.329 -16.669  -4.907  0.00  0.00     0.050 C 
ATOM     18  C   UNL d   1      28.875 -14.500  -6.786  0.00  0.00     0.001 A 
ATOM     19  C   UNL d   1      27.780 -14.488  -5.957  0.00  0.00     0.009 A 
ATOM     20  C   UNL d   1      27.773 -15.192  -4.739  0.00  0.00    -0.035 A 
ATOM     21  C   UNL d   1      26.480 -15.035  -4.011  0.00  0.00     0.050 C 
ENDBRANCH  11  14
ENDBRANCH   9  10
ENDBRANCH   7   9
ENDBRANCH   1   7
BRANCH   4  22
ATOM     22  C   UNL d   1      22.243 -17.738  -0.893  0.00  0.00     0.251 C 
ATOM     23  O   UNL d   1      21.502 -16.761  -0.895  0.00  0.00    -0.268 OA
ATOM     24  N   UNL d   1      21.772 -19.020  -1.064  0.00  0.00    -0.351 N 
ATOM     25  H   UNL d   1      22.419 -19.783  -1.102  0.00  0.00     0.163 HD
BRANCH  24  26
ATOM     26  C   UNL d   1      20.367 -19.325  -1.270  0.00  0.00     0.187 C 
BRANCH  26  27
ATOM     27  C   UNL d   1      19.783 -19.873  -0.006  0.00  0.00     0.070 A 
ATOM     28  C   UNL d   1      19.996 -19.617   1.337  0.00  0.00     0.036 A 
ATOM     29  C   UNL d   1      19.102 -20.432   2.063  0.00  0.00     0.027 A 
ATOM     30  C   UNL d   1      18.404 -21.157   1.127  0.00  0.00     0.142 A 
ATOM     31  O   UNL d   1      18.810 -20.829  -0.130  0.00  0.00    -0.325 OA
ENDBRANCH  26  27
ENDBRANCH  24  26
ENDBRANCH   4  22
TORSDOF 7
ENDMDL
MODEL 4
REMARK VINA RESULT:    -8.768      3.754      5.748
REMARK INTER + INTRA:         -12.231
REMARK INTER:                 -10.856
REMARK INTRA:                  -1.375
REMARK CONF_INDEPENDENT:        2.088
REMARK UNBOUND:                -1.375
REMARK  7 active torsions:
REMARK  status: ('A' for Active; 'I' for Inactive)
REMARK    1  A    between atoms: C_8  and  N_9 
REMARK       I    between atoms: N_9  and  C_10 
REMARK    2  A    between atoms: C_10  and  C_12 
REMARK    3  A    between atoms: C_12  and  N_13 
REMARK    4  A    between atoms: N_13  and  C_14 
REMARK    5  A    between atoms: C_17  and  C_18 
REMARK       I    between atoms: C_18  and  N_20 
REMARK    6  A    between atoms: N_20  and  C_21 
REMARK    7  A    between atoms: C_21  and  C_22 
ROOT
ATOM      1  C   UNL d   1      26.442 -17.037  -0.230  0.00  0.00     0.028 A 
ATOM      2  C   UNL d   1      25.766 -18.105   0.370  0.00  0.00     0.030 A 
ATOM      3  C   UNL d   1      24.414 -18.344   0.098  0.00  0.00     0.019 A 
ATOM      4  C   UNL d   1      23.707 -17.498  -0.765  0.00  0.00     0.032 A 
ATOM      5  C   UNL d   1      24.407 -16.473  -1.415  0.00  0.00     0.019 A 
ATOM      6  C   UNL d   1      25.758 -16.253  -1.147  0.00  0.00     0.030 A 
ENDROOT
BRANCH   1   7
ATOM      7  N   UNL d   1      27.731 -16.775   0.139  0.00  0.00    -0.381 N 
ATOM      8  H   UNL d   1      27.904 -16.708   1.153  0.00  0.00     0.160 HD
BRANCH   7   9
ATOM      9  C   UNL d   1      28.958 -17.110  -0.619  0.00  0.00     0.223 C 
BRANCH   9  10
ATOM     10  C   UNL d   1      28.959 -16.175  -1.825  0.00  0.00     0.239 C 
ATOM     11  N   UNL d   1      29.006 -16.685  -3.117  0.00  0.00    -0.325 N 
ATOM     12  H   UNL d   1      29.072 -17.692  -3.202  0.00  0.00     0.169 HD
ATOM     13  O   UNL d   1      28.933 -14.988  -1.481  0.00  0.00    -0.271 OA
BRANCH  11  14
ATOM     14  C   UNL d   1      28.975 -15.956  -4.377  0.00  0.00     0.046 A 
ATOM     15  C   UNL d   1      27.819 -15.186  -4.719  0.00  0.00    -0.035 A 
ATOM     16  C   UNL d   1      27.781 -14.452  -5.935  0.00  0.00     0.009 A 
ATOM     17  C   UNL d   1      26.575 -15.072  -3.870  0.00  0.00     0.050 C 
ATOM     18  C   UNL d   1      28.843 -14.456  -6.825  0.00  0.00     0.001 A 
ATOM     19  C   UNL d   1      29.957 -15.197  -6.515  0.00  0.00     0.009 A 
ATOM     20  C   UNL d   1      30.038 -15.937  -5.321  0.00  0.00    -0.035 A 
ATOM     21  C   UNL d   1      31.339 -16.659  -5.200  0.00  0.00     0.050 C 
ENDBRANCH  11  14
ENDBRANCH   9  10
ENDBRANCH   7   9
ENDBRANCH   1   7
BRANCH   4  22
ATOM     22  C   UNL d   1      22.225 -17.697  -0.904  0.00  0.00     0.251 C 
ATOM     23  O   UNL d   1      21.463 -16.736  -0.891  0.00  0.00    -0.268 OA
ATOM     24  N   UNL d   1      21.780 -18.987  -1.078  0.00  0.00    -0.351 N 
ATOM     25  H   UNL d   1      22.444 -19.735  -1.128  0.00  0.00     0.163 HD
BRANCH  24  26
ATOM     26  C   UNL d   1      20.380 -19.322  -1.270  0.00  0.00     0.187 C 
BRANCH  26  27
ATOM     27  C   UNL d   1      19.799 -19.810   0.019  0.00  0.00     0.070 A 
ATOM     28  C   UNL d   1      18.671 -20.542   0.346  0.00  0.00     0.036 A 
ATOM     29  C   UNL d   1      18.684 -20.724   1.745  0.00  0.00     0.027 A 
ATOM     30  C   UNL d   1      19.807 -20.078   2.201  0.00  0.00     0.142 A 
ATOM     31  O   UNL d   1      20.489 -19.517   1.166  0.00  0.00    -0.325 OA
ENDBRANCH  26  27
ENDBRANCH  24  26
ENDBRANCH   4  22
TORSDOF 7
ENDMDL
MODEL 5
REMARK VINA RESULT:    -8.555      3.257      4.513
REMARK INTER + INTRA:         -11.731
REMARK INTER:                 -10.643
REMARK INTRA:                  -1.088
REMARK CONF_INDEPENDENT:        2.088
REMARK UNBOUND:                -1.088
REMARK  7 active torsions:
REMARK  status: ('A' for Active; 'I' for Inactive)
REMARK    1  A    between atoms: C_8  and  N_9 
REMARK       I    between atoms: N_9  and  C_10 
REMARK    2  A    between atoms: C_10  and  C_12 
REMARK    3  A    between atoms: C_12  and  N_13 
REMARK    4  A    between atoms: N_13  and  C_14 
REMARK    5  A    between atoms: C_17  and  C_18 
REMARK       I    between atoms: C_18  and  N_20 
REMARK    6  A    between atoms: N_20  and  C_21 
REMARK    7  A    between atoms: C_21  and  C_22 
ROOT
ATOM      1  C   UNL d   1      26.474 -17.488  -0.299  0.00  0.00     0.028 A 
ATOM      2  C   UNL d   1      25.676 -18.197   0.606  0.00  0.00     0.030 A 
ATOM      3  C   UNL d   1      24.308 -18.375   0.371  0.00  0.00     0.019 A 
ATOM      4  C   UNL d   1      23.709 -17.822  -0.767  0.00  0.00     0.032 A 
ATOM      5  C   UNL d   1      24.526 -17.175  -1.703  0.00  0.00     0.019 A 
ATOM      6  C   UNL d   1      25.892 -17.015  -1.465  0.00  0.00     0.030 A 
ENDROOT
BRANCH   1   7
ATOM      7  N   UNL d   1      27.782 -17.248   0.015  0.00  0.00    -0.381 N 
ATOM      8  H   UNL d   1      28.236 -17.951   0.618  0.00  0.00     0.160 HD
BRANCH   7   9
ATOM      9  C   UNL d   1      28.760 -16.475  -0.783  0.00  0.00     0.223 C 
BRANCH   9  10
ATOM     10  C   UNL d   1      28.074 -15.148  -1.092  0.00  0.00     0.239 C 
ATOM     11  N   UNL d   1      27.840 -14.760  -2.406  0.00  0.00    -0.325 N 
ATOM     12  H   UNL d   1      28.176 -15.386  -3.127  0.00  0.00     0.169 HD
ATOM     13  O   UNL d   1      27.806 -14.523  -0.059  0.00  0.00    -0.271 OA
BRANCH  11  14
ATOM     14  C   UNL d   1      27.169 -13.561  -2.887  0.00  0.00     0.046 A 
ATOM     15  C   UNL d   1      27.564 -12.281  -2.386  0.00  0.00    -0.035 A 
ATOM     16  C   UNL d   1      26.934 -11.099  -2.861  0.00  0.00     0.009 A 
ATOM     17  C   UNL d   1      28.640 -12.053  -1.350  0.00  0.00     0.050 C 
ATOM     18  C   UNL d   1      25.926 -11.140  -3.810  0.00  0.00     0.001 A 
ATOM     19  C   UNL d   1      25.529 -12.362  -4.296  0.00  0.00     0.009 A 
ATOM     20  C   UNL d   1      26.127 -13.557  -3.855  0.00  0.00    -0.035 A 
ATOM     21  C   UNL d   1      25.536 -14.755  -4.521  0.00  0.00     0.050 C 
ENDBRANCH  11  14
ENDBRANCH   9  10
ENDBRANCH   7   9
ENDBRANCH   1   7
BRANCH   4  22
ATOM     22  C   UNL d   1      22.214 -17.902  -0.898  0.00  0.00     0.251 C 
ATOM     23  O   UNL d   1      21.533 -16.882  -0.895  0.00  0.00    -0.268 OA
ATOM     24  N   UNL d   1      21.666 -19.154  -1.054  0.00  0.00    -0.351 N 
ATOM     25  H   UNL d   1      22.267 -19.954  -1.097  0.00  0.00     0.163 HD
BRANCH  24  26
ATOM     26  C   UNL d   1      20.242 -19.377  -1.237  0.00  0.00     0.187 C 
BRANCH  26  27
ATOM     27  C   UNL d   1      19.651 -19.906   0.031  0.00  0.00     0.070 A 
ATOM     28  C   UNL d   1      19.902 -19.680   1.373  0.00  0.00     0.036 A 
ATOM     29  C   UNL d   1      18.977 -20.452   2.106  0.00  0.00     0.027 A 
ATOM     30  C   UNL d   1      18.222 -21.124   1.175  0.00  0.00     0.142 A 
ATOM     31  O   UNL d   1      18.623 -20.805  -0.086  0.00  0.00    -0.325 OA
ENDBRANCH  26  27
ENDBRANCH  24  26
ENDBRANCH   4  22
TORSDOF 7
ENDMDL
MODEL 6
REMARK VINA RESULT:    -8.226      3.568      6.308
REMARK INTER + INTRA:         -11.790
REMARK INTER:                 -10.314
REMARK INTRA:                  -1.476
REMARK CONF_INDEPENDENT:        2.088
REMARK UNBOUND:                -1.476
REMARK  7 active torsions:
REMARK  status: ('A' for Active; 'I' for Inactive)
REMARK    1  A    between atoms: C_8  and  N_9 
REMARK       I    between atoms: N_9  and  C_10 
REMARK    2  A    between atoms: C_10  and  C_12 
REMARK    3  A    between atoms: C_12  and  N_13 
REMARK    4  A    between atoms: N_13  and  C_14 
REMARK    5  A    between atoms: C_17  and  C_18 
REMARK       I    between atoms: C_18  and  N_20 
REMARK    6  A    between atoms: N_20  and  C_21 
REMARK    7  A    between atoms: C_21  and  C_22 
ROOT
ATOM      1  C   UNL d   1      26.670 -16.675   0.082  0.00  0.00     0.028 A 
ATOM      2  C   UNL d   1      25.706 -15.935  -0.610  0.00  0.00     0.030 A 
ATOM      3  C   UNL d   1      24.470 -16.499  -0.945  0.00  0.00     0.019 A 
ATOM      4  C   UNL d   1      24.188 -17.830  -0.611  0.00  0.00     0.032 A 
ATOM      5  C   UNL d   1      25.130 -18.542   0.143  0.00  0.00     0.019 A 
ATOM      6  C   UNL d   1      26.353 -17.964   0.483  0.00  0.00     0.030 A 
ENDROOT
BRANCH   1   7
ATOM      7  N   UNL d   1      27.901 -16.123   0.300  0.00  0.00    -0.381 N 
ATOM      8  H   UNL d   1      27.981 -15.514   1.129  0.00  0.00     0.160 HD
BRANCH   7   9
ATOM      9  C   UNL d   1      29.209 -16.675  -0.120  0.00  0.00     0.223 C 
BRANCH   9  10
ATOM     10  C   UNL d   1      29.166 -16.703  -1.645  0.00  0.00     0.239 C 
ATOM     11  N   UNL d   1      30.190 -17.300  -2.371  0.00  0.00    -0.325 N 
ATOM     12  H   UNL d   1      30.963 -17.677  -1.836  0.00  0.00     0.169 HD
ATOM     13  O   UNL d   1      28.161 -16.134  -2.084  0.00  0.00    -0.271 OA
BRANCH  11  14
ATOM     14  C   UNL d   1      30.300 -17.458  -3.814  0.00  0.00     0.046 A 
ATOM     15  C   UNL d   1      30.775 -18.693  -4.357  0.00  0.00    -0.035 A 
ATOM     16  C   UNL d   1      30.869 -18.870  -5.764  0.00  0.00     0.009 A 
ATOM     17  C   UNL d   1      31.206 -19.887  -3.538  0.00  0.00     0.050 C 
ATOM     18  C   UNL d   1      30.513 -17.867  -6.651  0.00  0.00     0.001 A 
ATOM     19  C   UNL d   1      30.064 -16.671  -6.147  0.00  0.00     0.009 A 
ATOM     20  C   UNL d   1      29.953 -16.454  -4.761  0.00  0.00    -0.035 A 
ATOM     21  C   UNL d   1      29.443 -15.086  -4.450  0.00  0.00     0.050 C 
ENDBRANCH  11  14
ENDBRANCH   9  10
ENDBRANCH   7   9
ENDBRANCH   1   7
BRANCH   4  22
ATOM     22  C   UNL d   1      22.916 -18.441  -1.127  0.00  0.00     0.251 C 
ATOM     23  O   UNL d   1      22.893 -19.007  -2.215  0.00  0.00    -0.268 OA
ATOM     24  N   UNL d   1      21.810 -18.365  -0.312  0.00  0.00    -0.351 N 
ATOM     25  H   UNL d   1      21.889 -17.934   0.588  0.00  0.00     0.163 HD
BRANCH  24  26
ATOM     26  C   UNL d   1      20.528 -18.952  -0.663  0.00  0.00     0.187 C 
BRANCH  26  27
ATOM     27  C   UNL d   1      19.924 -19.596   0.545  0.00  0.00     0.070 A 
ATOM     28  C   UNL d   1      18.820 -20.405   0.748  0.00  0.00     0.036 A 
ATOM     29  C   UNL d   1      18.790 -20.730   2.121  0.00  0.00     0.027 A 
ATOM     30  C   UNL d   1      19.864 -20.087   2.687  0.00  0.00     0.142 A 
ATOM     31  O   UNL d   1      20.557 -19.393   1.743  0.00  0.00    -0.325 OA
ENDBRANCH  26  27
ENDBRANCH  24  26
ENDBRANCH   4  22
TORSDOF 7
ENDMDL
MODEL 7
REMARK VINA RESULT:    -8.162      3.320      4.791
REMARK INTER + INTRA:         -12.298
REMARK INTER:                 -10.250
REMARK INTRA:                  -2.048
REMARK CONF_INDEPENDENT:        2.088
REMARK UNBOUND:                -2.048
REMARK  7 active torsions:
REMARK  status: ('A' for Active; 'I' for Inactive)
REMARK    1  A    between atoms: C_8  and  N_9 
REMARK       I    between atoms: N_9  and  C_10 
REMARK    2  A    between atoms: C_10  and  C_12 
REMARK    3  A    between atoms: C_12  and  N_13 
REMARK    4  A    between atoms: N_13  and  C_14 
REMARK    5  A    between atoms: C_17  and  C_18 
REMARK       I    between atoms: C_18  and  N_20 
REMARK    6  A    between atoms: N_20  and  C_21 
REMARK    7  A    between atoms: C_21  and  C_22 
ROOT
ATOM      1  C   UNL d   1      26.455 -16.657   0.129  0.00  0.00     0.028 A 
ATOM      2  C   UNL d   1      25.407 -15.929  -0.445  0.00  0.00     0.030 A 
ATOM      3  C   UNL d   1      24.219 -16.561  -0.830  0.00  0.00     0.019 A 
ATOM      4  C   UNL d   1      24.071 -17.944  -0.668  0.00  0.00     0.032 A 
ATOM      5  C   UNL d   1      25.095 -18.654  -0.028  0.00  0.00     0.019 A 
ATOM      6  C   UNL d   1      26.270 -18.011   0.363  0.00  0.00     0.030 A 
ENDROOT
BRANCH   1   7
ATOM      7  N   UNL d   1      27.636 -16.024   0.396  0.00  0.00    -0.381 N 
ATOM      8  H   UNL d   1      27.874 -15.918   1.394  0.00  0.00     0.160 HD
BRANCH   7   9
ATOM      9  C   UNL d   1      28.831 -15.968  -0.476  0.00  0.00     0.223 C 
BRANCH   9  10
ATOM     10  C   UNL d   1      28.416 -15.129  -1.680  0.00  0.00     0.239 C 
ATOM     11  N   UNL d   1      27.408 -14.178  -1.568  0.00  0.00    -0.325 N 
ATOM     12  H   UNL d   1      26.956 -14.105  -0.665  0.00  0.00     0.169 HD
ATOM     13  O   UNL d   1      29.063 -15.430  -2.690  0.00  0.00    -0.271 OA
BRANCH  11  14
ATOM     14  C   UNL d   1      26.911 -13.266  -2.588  0.00  0.00     0.046 A 
ATOM     15  C   UNL d   1      26.073 -13.764  -3.634  0.00  0.00    -0.035 A 
ATOM     16  C   UNL d   1      25.562 -12.883  -4.625  0.00  0.00     0.009 A 
ATOM     17  C   UNL d   1      25.658 -15.208  -3.795  0.00  0.00     0.050 C 
ATOM     18  C   UNL d   1      25.853 -11.528  -4.618  0.00  0.00     0.001 A 
ATOM     19  C   UNL d   1      26.664 -11.035  -3.625  0.00  0.00     0.009 A 
ATOM     20  C   UNL d   1      27.190 -11.871  -2.623  0.00  0.00    -0.035 A 
ATOM     21  C   UNL d   1      28.037 -11.116  -1.654  0.00  0.00     0.050 C 
ENDBRANCH  11  14
ENDBRANCH   9  10
ENDBRANCH   7   9
ENDBRANCH   1   7
BRANCH   4  22
ATOM     22  C   UNL d   1      22.846 -18.602  -1.237  0.00  0.00     0.251 C 
ATOM     23  O   UNL d   1      22.895 -19.180  -2.319  0.00  0.00    -0.268 OA
ATOM     24  N   UNL d   1      21.700 -18.554  -0.478  0.00  0.00    -0.351 N 
ATOM     25  H   UNL d   1      21.720 -18.112   0.419  0.00  0.00     0.163 HD
BRANCH  24  26
ATOM     26  C   UNL d   1      20.456 -19.187  -0.884  0.00  0.00     0.187 C 
BRANCH  26  27
ATOM     27  C   UNL d   1      19.772 -19.763   0.315  0.00  0.00     0.070 A 
ATOM     28  C   UNL d   1      18.686 -20.603   0.486  0.00  0.00     0.036 A 
ATOM     29  C   UNL d   1      18.547 -20.825   1.873  0.00  0.00     0.027 A 
ATOM     30  C   UNL d   1      19.541 -20.094   2.476  0.00  0.00     0.142 A 
ATOM     31  O   UNL d   1      20.288 -19.443   1.543  0.00  0.00    -0.325 OA
ENDBRANCH  26  27
ENDBRANCH  24  26
ENDBRANCH   4  22
TORSDOF 7
ENDMDL
MODEL 8
REMARK VINA RESULT:    -7.543      3.667      9.921
REMARK INTER + INTRA:         -11.474
REMARK INTER:                  -9.631
REMARK INTRA:                  -1.843
REMARK CONF_INDEPENDENT:        2.088
REMARK UNBOUND:                -1.843
REMARK  7 active torsions:
REMARK  status: ('A' for Active; 'I' for Inactive)
REMARK    1  A    between atoms: C_8  and  N_9 
REMARK       I    between atoms: N_9  and  C_10 
REMARK    2  A    between atoms: C_10  and  C_12 
REMARK    3  A    between atoms: C_12  and  N_13 
REMARK    4  A    between atoms: N_13  and  C_14 
REMARK    5  A    between atoms: C_17  and  C_18 
REMARK       I    between atoms: C_18  and  N_20 
REMARK    6  A    between atoms: N_20  and  C_21 
REMARK    7  A    between atoms: C_21  and  C_22 
ROOT
ATOM      1  C   UNL d   1      28.908 -14.417   3.139  0.00  0.00     0.028 A 
ATOM      2  C   UNL d   1      29.980 -14.463   4.036  0.00  0.00     0.030 A 
ATOM      3  C   UNL d   1      29.811 -14.101   5.378  0.00  0.00     0.019 A 
ATOM      4  C   UNL d   1      28.564 -13.660   5.838  0.00  0.00     0.032 A 
ATOM      5  C   UNL d   1      27.480 -13.683   4.950  0.00  0.00     0.019 A 
ATOM      6  C   UNL d   1      27.658 -14.060   3.619  0.00  0.00     0.030 A 
ENDROOT
BRANCH   1   7
ATOM      7  N   UNL d   1      29.137 -14.679   1.817  0.00  0.00    -0.381 N 
ATOM      8  H   UNL d   1      29.309 -15.668   1.578  0.00  0.00     0.160 HD
BRANCH   7   9
ATOM      9  C   UNL d   1      28.648 -13.898   0.659  0.00  0.00     0.223 C 
BRANCH   9  10
ATOM     10  C   UNL d   1      27.296 -14.506   0.300  0.00  0.00     0.239 C 
ATOM     11  N   UNL d   1      27.199 -15.838  -0.088  0.00  0.00    -0.325 N 
ATOM     12  H   UNL d   1      28.068 -16.355  -0.147  0.00  0.00     0.169 HD
ATOM     13  O   UNL d   1      26.385 -13.676   0.386  0.00  0.00    -0.271 OA
BRANCH  11  14
ATOM     14  C   UNL d   1      26.002 -16.595  -0.425  0.00  0.00     0.046 A 
ATOM     15  C   UNL d   1      25.745 -17.839   0.231  0.00  0.00    -0.035 A 
ATOM     16  C   UNL d   1      24.570 -18.580  -0.071  0.00  0.00     0.009 A 
ATOM     17  C   UNL d   1      26.644 -18.471   1.267  0.00  0.00     0.050 C 
ATOM     18  C   UNL d   1      23.646 -18.135  -1.002  0.00  0.00     0.001 A 
ATOM     19  C   UNL d   1      23.882 -16.946  -1.648  0.00  0.00     0.009 A 
ATOM     20  C   UNL d   1      25.031 -16.179  -1.378  0.00  0.00    -0.035 A 
ATOM     21  C   UNL d   1      25.073 -14.932  -2.196  0.00  0.00     0.050 C 
ENDBRANCH  11  14
ENDBRANCH   9  10
ENDBRANCH   7   9
ENDBRANCH   1   7
BRANCH   4  22
ATOM     22  C   UNL d   1      28.466 -13.132   7.241  0.00  0.00     0.251 C 
ATOM     23  O   UNL d   1      27.953 -12.040   7.462  0.00  0.00    -0.268 OA
ATOM     24  N   UNL d   1      28.941 -13.941   8.248  0.00  0.00    -0.351 N 
ATOM     25  H   UNL d   1      29.309 -14.844   8.023  0.00  0.00     0.163 HD
BRANCH  24  26
ATOM     26  C   UNL d   1      28.870 -13.578   9.653  0.00  0.00     0.187 C 
BRANCH  26  27
ATOM     27  C   UNL d   1      29.702 -14.525  10.458  0.00  0.00     0.070 A 
ATOM     28  C   UNL d   1      29.853 -14.752  11.815  0.00  0.00     0.036 A 
ATOM     29  C   UNL d   1      30.765 -15.819  11.959  0.00  0.00     0.027 A 
ATOM     30  C   UNL d   1      31.139 -16.174  10.685  0.00  0.00     0.142 A 
ATOM     31  O   UNL d   1      30.504 -15.395   9.767  0.00  0.00    -0.325 OA
ENDBRANCH  26  27
ENDBRANCH  24  26
ENDBRANCH   4  22
TORSDOF 7
ENDMDL
MODEL 9
REMARK VINA RESULT:    -7.455      3.708      9.826
REMARK INTER + INTRA:         -11.333
REMARK INTER:                  -9.544
REMARK INTRA:                  -1.789
REMARK CONF_INDEPENDENT:        2.088
REMARK UNBOUND:                -1.789
REMARK  7 active torsions:
REMARK  status: ('A' for Active; 'I' for Inactive)
REMARK    1  A    between atoms: C_8  and  N_9 
REMARK       I    between atoms: N_9  and  C_10 
REMARK    2  A    between atoms: C_10  and  C_12 
REMARK    3  A    between atoms: C_12  and  N_13 
REMARK    4  A    between atoms: N_13  and  C_14 
REMARK    5  A    between atoms: C_17  and  C_18 
REMARK       I    between atoms: C_18  and  N_20 
REMARK    6  A    between atoms: N_20  and  C_21 
REMARK    7  A    between atoms: C_21  and  C_22 
ROOT
ATOM      1  C   UNL d   1      29.246 -14.122   3.313  0.00  0.00     0.028 A 
ATOM      2  C   UNL d   1      27.952 -13.892   3.793  0.00  0.00     0.030 A 
ATOM      3  C   UNL d   1      27.737 -13.487   5.115  0.00  0.00     0.019 A 
ATOM      4  C   UNL d   1      28.818 -13.329   5.990  0.00  0.00     0.032 A 
ATOM      5  C   UNL d   1      30.115 -13.493   5.484  0.00  0.00     0.019 A 
ATOM      6  C   UNL d   1      30.318 -13.884   4.160  0.00  0.00     0.030 A 
ENDROOT
BRANCH   1   7
ATOM      7  N   UNL d   1      29.409 -14.615   2.050  0.00  0.00    -0.381 N 
ATOM      8  H   UNL d   1      29.517 -15.639   1.977  0.00  0.00     0.160 HD
BRANCH   7   9
ATOM      9  C   UNL d   1      28.919 -14.011   0.790  0.00  0.00     0.223 C 
BRANCH   9  10
ATOM     10  C   UNL d   1      27.545 -14.630   0.551  0.00  0.00     0.239 C 
ATOM     11  N   UNL d   1      27.423 -15.857  -0.090  0.00  0.00    -0.325 N 
ATOM     12  H   UNL d   1      28.282 -16.287  -0.409  0.00  0.00     0.169 HD
ATOM     13  O   UNL d   1      26.637 -13.902   0.971  0.00  0.00    -0.271 OA
BRANCH  11  14
ATOM     14  C   UNL d   1      26.210 -16.614  -0.368  0.00  0.00     0.046 A 
ATOM     15  C   UNL d   1      25.284 -16.131  -1.344  0.00  0.00    -0.035 A 
ATOM     16  C   UNL d   1      24.106 -16.869  -1.642  0.00  0.00     0.009 A 
ATOM     17  C   UNL d   1      25.445 -14.851  -2.130  0.00  0.00     0.050 C 
ATOM     18  C   UNL d   1      23.812 -18.064  -1.005  0.00  0.00     0.001 A 
ATOM     19  C   UNL d   1      24.687 -18.536  -0.058  0.00  0.00     0.009 A 
ATOM     20  C   UNL d   1      25.866 -17.840   0.266  0.00  0.00    -0.035 A 
ATOM     21  C   UNL d   1      26.659 -18.543   1.318  0.00  0.00     0.050 C 
ENDBRANCH  11  14
ENDBRANCH   9  10
ENDBRANCH   7   9
ENDBRANCH   1   7
BRANCH   4  22
ATOM     22  C   UNL d   1      28.531 -13.048   7.437  0.00  0.00     0.251 C 
ATOM     23  O   UNL d   1      27.954 -12.018   7.770  0.00  0.00    -0.268 OA
ATOM     24  N   UNL d   1      28.911 -14.007   8.348  0.00  0.00    -0.351 N 
ATOM     25  H   UNL d   1      29.338 -14.853   8.025  0.00  0.00     0.163 HD
BRANCH  24  26
ATOM     26  C   UNL d   1      28.656 -13.888   9.774  0.00  0.00     0.187 C 
BRANCH  26  27
ATOM     27  C   UNL d   1      29.582 -14.791  10.525  0.00  0.00     0.070 A 
ATOM     28  C   UNL d   1      29.784 -15.052  11.869  0.00  0.00     0.036 A 
ATOM     29  C   UNL d   1      30.783 -16.045  11.955  0.00  0.00     0.027 A 
ATOM     30  C   UNL d   1      31.153 -16.323  10.661  0.00  0.00     0.142 A 
ATOM     31  O   UNL d   1      30.435 -15.568   9.786  0.00  0.00    -0.325 OA
ENDBRANCH  26  27
ENDBRANCH  24  26
ENDBRANCH   4  22
TORSDOF 7
ENDMDL
