MODEL 1
REMARK VINA RESULT:    -7.167      0.000      0.000
REMARK INTER + INTRA:          -9.459
REMARK INTER:                  -8.658
REMARK INTRA:                  -0.801
REMARK CONF_INDEPENDENT:        1.492
REMARK UNBOUND:                -0.801
REMARK  5 active torsions:
REMARK  status: ('A' for Active; 'I' for Inactive)
REMARK    1  A    between atoms: C_2  and  O_3 
REMARK    2  A    between atoms: C_2  and  C_4 
REMARK    3  A    between atoms: C_2  and  C_11 
REMARK    4  A    between atoms: C_4  and  N_5 
REMARK       I    between atoms: N_5  and  C_6 
REMARK    5  A    between atoms: C_6  and  C_8 
ROOT
ATOM      1  C   UNL d   1      22.653 -16.408  -0.248  0.00  0.00     0.053 C 
ATOM      2  C   UNL d   1      23.487 -17.697  -0.356  0.00  0.00     0.097 C 
ENDROOT
BRANCH   2   3
ATOM      3  O   UNL d   1      23.732 -18.192   0.967  0.00  0.00    -0.384 OA
ATOM      4  H   UNL d   1      23.283 -19.047   1.052  0.00  0.00     0.211 HD
ENDBRANCH   2   3
BRANCH   2   5
ATOM      5  C   UNL d   1      22.711 -18.762  -1.170  0.00  0.00     0.165 C 
BRANCH   5   6
ATOM      6  N   UNL d   1      21.924 -19.693  -0.377  0.00  0.00    -0.358 N 
ATOM      7  C   UNL d   1      20.564 -19.516  -0.289  0.00  0.00     0.221 C 
ATOM      8  O   UNL d   1      19.949 -18.645  -0.897  0.00  0.00    -0.273 OA
ATOM      9  H   UNL d   1      22.374 -20.367   0.224  0.00  0.00     0.162 HD
BRANCH   7  10
ATOM     10  C   UNL d   1      19.862 -20.474   0.608  0.00  0.00     0.078 A 
ATOM     11  C   UNL d   1      18.768 -19.974   1.527  0.00  0.00     0.015 A 
ATOM     12  C   UNL d   1      18.415 -20.824   0.342  0.00  0.00     0.015 A 
ENDBRANCH   7  10
ENDBRANCH   5   6
ENDBRANCH   2   5
BRANCH   2  13
ATOM     13  C   UNL d   1      24.822 -17.319  -0.998  0.00  0.00    -0.023 A 
ATOM     14  C   UNL d   1      26.028 -17.755  -0.422  0.00  0.00     0.010 A 
ATOM     15  C   UNL d   1      27.241 -17.179  -0.799  0.00  0.00     0.001 A 
ATOM     16  C   UNL d   1      27.281 -16.242  -1.830  0.00  0.00     0.000 A 
ATOM     17  C   UNL d   1      26.107 -15.860  -2.467  0.00  0.00     0.001 A 
ATOM     18  C   UNL d   1      24.891 -16.395  -2.055  0.00  0.00     0.010 A 
ENDBRANCH   2  13
TORSDOF 5
ENDMDL
MODEL 2
REMARK VINA RESULT:    -5.729      3.208      6.770
REMARK INTER + INTRA:          -8.355
REMARK INTER:                  -7.220
REMARK INTRA:                  -1.135
REMARK CONF_INDEPENDENT:        1.492
REMARK UNBOUND:                -1.135
REMARK  5 active torsions:
REMARK  status: ('A' for Active; 'I' for Inactive)
REMARK    1  A    between atoms: C_2  and  O_3 
REMARK    2  A    between atoms: C_2  and  C_4 
REMARK    3  A    between atoms: C_2  and  C_11 
REMARK    4  A    between atoms: C_4  and  N_5 
REMARK       I    between atoms: N_5  and  C_6 
REMARK    5  A    between atoms: C_6  and  C_8 
ROOT
ATOM      1  C   UNL d   1      26.663 -17.495  -0.361  0.00  0.00     0.053 C 
ATOM      2  C   UNL d   1      25.566 -16.533  -0.849  0.00  0.00     0.097 C 
ENDROOT
BRANCH   2   3
ATOM      3  O   UNL d   1      25.605 -15.350  -0.040  0.00  0.00    -0.384 OA
ATOM      4  H   UNL d   1      26.529 -15.190   0.206  0.00  0.00     0.211 HD
ENDBRANCH   2   3
BRANCH   2   5
ATOM      5  C   UNL d   1      25.817 -16.154  -2.330  0.00  0.00     0.165 C 
BRANCH   5   6
ATOM      6  N   UNL d   1      25.559 -14.762  -2.664  0.00  0.00    -0.358 N 
ATOM      7  C   UNL d   1      25.434 -14.402  -3.984  0.00  0.00     0.221 C 
ATOM      8  O   UNL d   1      25.464 -15.201  -4.915  0.00  0.00    -0.273 OA
ATOM      9  H   UNL d   1      25.621 -14.043  -1.959  0.00  0.00     0.162 HD
BRANCH   7  10
ATOM     10  C   UNL d   1      25.250 -12.944  -4.222  0.00  0.00     0.078 A 
ATOM     11  C   UNL d   1      26.324 -11.972  -3.783  0.00  0.00     0.015 A 
ATOM     12  C   UNL d   1      26.113 -12.239  -5.245  0.00  0.00     0.015 A 
ENDBRANCH   7  10
ENDBRANCH   5   6
ENDBRANCH   2   5
BRANCH   2  13
ATOM     13  C   UNL d   1      24.223 -17.234  -0.638  0.00  0.00    -0.023 A 
ATOM     14  C   UNL d   1      24.182 -18.620  -0.414  0.00  0.00     0.010 A 
ATOM     15  C   UNL d   1      22.981 -19.320  -0.526  0.00  0.00     0.001 A 
ATOM     16  C   UNL d   1      21.789 -18.634  -0.754  0.00  0.00     0.000 A 
ATOM     17  C   UNL d   1      21.800 -17.252  -0.895  0.00  0.00     0.001 A 
ATOM     18  C   UNL d   1      23.006 -16.560  -0.836  0.00  0.00     0.010 A 
ENDBRANCH   2  13
TORSDOF 5
ENDMDL
MODEL 3
REMARK VINA RESULT:    -5.621      4.083      7.108
REMARK INTER + INTRA:          -8.251
REMARK INTER:                  -7.112
REMARK INTRA:                  -1.139
REMARK CONF_INDEPENDENT:        1.492
REMARK UNBOUND:                -1.139
REMARK  5 active torsions:
REMARK  status: ('A' for Active; 'I' for Inactive)
REMARK    1  A    between atoms: C_2  and  O_3 
REMARK    2  A    between atoms: C_2  and  C_4 
REMARK    3  A    between atoms: C_2  and  C_11 
REMARK    4  A    between atoms: C_4  and  N_5 
REMARK       I    between atoms: N_5  and  C_6 
REMARK    5  A    between atoms: C_6  and  C_8 
ROOT
ATOM      1  C   UNL d   1      27.843 -16.460  -1.572  0.00  0.00     0.053 C 
ATOM      2  C   UNL d   1      27.117 -16.517  -0.216  0.00  0.00     0.097 C 
ENDROOT
BRANCH   2   3
ATOM      3  O   UNL d   1      27.770 -17.491   0.609  0.00  0.00    -0.384 OA
ATOM      4  H   UNL d   1      28.557 -17.076   0.992  0.00  0.00     0.211 HD
ENDBRANCH   2   3
BRANCH   2   5
ATOM      5  C   UNL d   1      27.180 -15.132   0.475  0.00  0.00     0.165 C 
BRANCH   5   6
ATOM      6  N   UNL d   1      27.818 -15.121   1.782  0.00  0.00    -0.358 N 
ATOM      7  C   UNL d   1      27.671 -14.020   2.590  0.00  0.00     0.221 C 
ATOM      8  O   UNL d   1      26.972 -13.052   2.304  0.00  0.00    -0.273 OA
ATOM      9  H   UNL d   1      28.482 -15.836   2.037  0.00  0.00     0.162 HD
BRANCH   7  10
ATOM     10  C   UNL d   1      28.426 -14.076   3.871  0.00  0.00     0.078 A 
ATOM     11  C   UNL d   1      27.707 -13.806   5.176  0.00  0.00     0.015 A 
ATOM     12  C   UNL d   1      28.159 -15.199   4.848  0.00  0.00     0.015 A 
ENDBRANCH   7  10
ENDBRANCH   5   6
ENDBRANCH   2   5
BRANCH   2  13
ATOM     13  C   UNL d   1      25.685 -16.978  -0.489  0.00  0.00    -0.023 A 
ATOM     14  C   UNL d   1      24.723 -16.056  -0.933  0.00  0.00     0.010 A 
ATOM     15  C   UNL d   1      23.365 -16.374  -0.892  0.00  0.00     0.001 A 
ATOM     16  C   UNL d   1      22.957 -17.651  -0.512  0.00  0.00     0.000 A 
ATOM     17  C   UNL d   1      23.901 -18.603  -0.149  0.00  0.00     0.001 A 
ATOM     18  C   UNL d   1      25.251 -18.268  -0.138  0.00  0.00     0.010 A 
ENDBRANCH   2  13
TORSDOF 5
ENDMDL
MODEL 4
REMARK VINA RESULT:    -5.318      3.909      5.867
REMARK INTER + INTRA:          -7.997
REMARK INTER:                  -6.809
REMARK INTRA:                  -1.188
REMARK CONF_INDEPENDENT:        1.492
REMARK UNBOUND:                -1.188
REMARK  5 active torsions:
REMARK  status: ('A' for Active; 'I' for Inactive)
REMARK    1  A    between atoms: C_2  and  O_3 
REMARK    2  A    between atoms: C_2  and  C_4 
REMARK    3  A    between atoms: C_2  and  C_11 
REMARK    4  A    between atoms: C_4  and  N_5 
REMARK       I    between atoms: N_5  and  C_6 
REMARK    5  A    between atoms: C_6  and  C_8 
ROOT
ATOM      1  C   UNL d   1      26.711 -14.946  -5.000  0.00  0.00     0.053 C 
ATOM      2  C   UNL d   1      25.743 -14.261  -4.019  0.00  0.00     0.097 C 
ENDROOT
BRANCH   2   3
ATOM      3  O   UNL d   1      24.404 -14.444  -4.499  0.00  0.00    -0.384 OA
ATOM      4  H   UNL d   1      24.168 -13.663  -5.023  0.00  0.00     0.211 HD
ENDBRANCH   2   3
BRANCH   2   5
ATOM      5  C   UNL d   1      25.878 -14.895  -2.613  0.00  0.00     0.165 C 
BRANCH   5   6
ATOM      6  N   UNL d   1      24.669 -15.515  -2.095  0.00  0.00    -0.358 N 
ATOM      7  C   UNL d   1      24.772 -16.465  -1.109  0.00  0.00     0.221 C 
ATOM      8  O   UNL d   1      25.833 -16.788  -0.580  0.00  0.00    -0.273 OA
ATOM      9  H   UNL d   1      23.780 -15.369  -2.550  0.00  0.00     0.162 HD
BRANCH   7  10
ATOM     10  C   UNL d   1      23.486 -17.093  -0.704  0.00  0.00     0.078 A 
ATOM     11  C   UNL d   1      23.119 -18.461  -1.240  0.00  0.00     0.015 A 
ATOM     12  C   UNL d   1      23.497 -18.304   0.203  0.00  0.00     0.015 A 
ENDBRANCH   7  10
ENDBRANCH   5   6
ENDBRANCH   2   5
BRANCH   2  13
ATOM     13  C   UNL d   1      26.072 -12.767  -4.029  0.00  0.00    -0.023 A 
ATOM     14  C   UNL d   1      26.299 -12.090  -2.820  0.00  0.00     0.010 A 
ATOM     15  C   UNL d   1      26.293 -10.695  -2.777  0.00  0.00     0.001 A 
ATOM     16  C   UNL d   1      26.172  -9.960  -3.955  0.00  0.00     0.000 A 
ATOM     17  C   UNL d   1      26.030 -10.615  -5.171  0.00  0.00     0.001 A 
ATOM     18  C   UNL d   1      25.981 -12.005  -5.207  0.00  0.00     0.010 A 
ENDBRANCH   2  13
TORSDOF 5
ENDMDL
MODEL 5
REMARK VINA RESULT:    -5.282      4.837      7.760
REMARK INTER + INTRA:          -7.916
REMARK INTER:                  -6.774
REMARK INTRA:                  -1.143
REMARK CONF_INDEPENDENT:        1.492
REMARK UNBOUND:                -1.143
REMARK  5 active torsions:
REMARK  status: ('A' for Active; 'I' for Inactive)
REMARK    1  A    between atoms: C_2  and  O_3 
REMARK    2  A    between atoms: C_2  and  C_4 
REMARK    3  A    between atoms: C_2  and  C_11 
REMARK    4  A    between atoms: C_4  and  N_5 
REMARK       I    between atoms: N_5  and  C_6 
REMARK    5  A    between atoms: C_6  and  C_8 
ROOT
ATOM      1  C   UNL d   1      28.074 -13.994  -0.689  0.00  0.00     0.053 C 
ATOM      2  C   UNL d   1      27.878 -15.047   0.417  0.00  0.00     0.097 C 
ENDROOT
BRANCH   2   3
ATOM      3  O   UNL d   1      29.120 -15.735   0.615  0.00  0.00    -0.384 OA
ATOM      4  H   UNL d   1      29.036 -16.274   1.416  0.00  0.00     0.211 HD
ENDBRANCH   2   3
BRANCH   2   5
ATOM      5  C   UNL d   1      27.456 -14.354   1.736  0.00  0.00     0.165 C 
BRANCH   5   6
ATOM      6  N   UNL d   1      28.142 -14.826   2.929  0.00  0.00    -0.358 N 
ATOM      7  C   UNL d   1      27.705 -14.409   4.163  0.00  0.00     0.221 C 
ATOM      8  O   UNL d   1      26.717 -13.700   4.333  0.00  0.00    -0.273 OA
ATOM      9  H   UNL d   1      29.015 -15.326   2.857  0.00  0.00     0.162 HD
BRANCH   7  10
ATOM     10  C   UNL d   1      28.520 -14.885   5.313  0.00  0.00     0.078 A 
ATOM     11  C   UNL d   1      30.031 -14.825   5.235  0.00  0.00     0.015 A 
ATOM     12  C   UNL d   1      29.293 -13.887   6.146  0.00  0.00     0.015 A 
ENDBRANCH   7  10
ENDBRANCH   5   6
ENDBRANCH   2   5
BRANCH   2  13
ATOM     13  C   UNL d   1      26.834 -16.043  -0.088  0.00  0.00    -0.023 A 
ATOM     14  C   UNL d   1      25.767 -15.599  -0.886  0.00  0.00     0.010 A 
ATOM     15  C   UNL d   1      24.654 -16.413  -1.096  0.00  0.00     0.001 A 
ATOM     16  C   UNL d   1      24.638 -17.718  -0.608  0.00  0.00     0.000 A 
ATOM     17  C   UNL d   1      25.722 -18.202   0.114  0.00  0.00     0.001 A 
ATOM     18  C   UNL d   1      26.809 -17.372   0.370  0.00  0.00     0.010 A 
ENDBRANCH   2  13
TORSDOF 5
ENDMDL
MODEL 6
REMARK VINA RESULT:    -5.277      4.053      7.761
REMARK INTER + INTRA:          -8.063
REMARK INTER:                  -6.768
REMARK INTRA:                  -1.295
REMARK CONF_INDEPENDENT:        1.492
REMARK UNBOUND:                -1.295
REMARK  5 active torsions:
REMARK  status: ('A' for Active; 'I' for Inactive)
REMARK    1  A    between atoms: C_2  and  O_3 
REMARK    2  A    between atoms: C_2  and  C_4 
REMARK    3  A    between atoms: C_2  and  C_11 
REMARK    4  A    between atoms: C_4  and  N_5 
REMARK       I    between atoms: N_5  and  C_6 
REMARK    5  A    between atoms: C_6  and  C_8 
ROOT
ATOM      1  C   UNL d   1      26.252 -14.034  -1.393  0.00  0.00     0.053 C 
ATOM      2  C   UNL d   1      25.886 -15.298  -2.191  0.00  0.00     0.097 C 
ENDROOT
BRANCH   2   3
ATOM      3  O   UNL d   1      25.013 -14.921  -3.264  0.00  0.00    -0.384 OA
ATOM      4  H   UNL d   1      25.525 -14.948  -4.087  0.00  0.00     0.211 HD
ENDBRANCH   2   3
BRANCH   2   5
ATOM      5  C   UNL d   1      27.168 -15.945  -2.772  0.00  0.00     0.165 C 
BRANCH   5   6
ATOM      6  N   UNL d   1      28.006 -15.055  -3.560  0.00  0.00    -0.358 N 
ATOM      7  C   UNL d   1      27.810 -14.979  -4.918  0.00  0.00     0.221 C 
ATOM      8  O   UNL d   1      26.917 -15.575  -5.513  0.00  0.00    -0.273 OA
ATOM      9  H   UNL d   1      28.816 -14.615  -3.152  0.00  0.00     0.162 HD
BRANCH   7  10
ATOM     10  C   UNL d   1      28.769 -14.101  -5.642  0.00  0.00     0.078 A 
ATOM     11  C   UNL d   1      29.659 -14.690  -6.716  0.00  0.00     0.015 A 
ATOM     12  C   UNL d   1      28.531 -13.778  -7.101  0.00  0.00     0.015 A 
ENDBRANCH   7  10
ENDBRANCH   5   6
ENDBRANCH   2   5
BRANCH   2  13
ATOM     13  C   UNL d   1      25.131 -16.229  -1.242  0.00  0.00    -0.023 A 
ATOM     14  C   UNL d   1      25.839 -17.144  -0.444  0.00  0.00     0.010 A 
ATOM     15  C   UNL d   1      25.175 -18.196   0.186  0.00  0.00     0.001 A 
ATOM     16  C   UNL d   1      23.786 -18.287   0.120  0.00  0.00     0.000 A 
ATOM     17  C   UNL d   1      23.062 -17.342  -0.596  0.00  0.00     0.001 A 
ATOM     18  C   UNL d   1      23.729 -16.324  -1.269  0.00  0.00     0.010 A 
ENDBRANCH   2  13
TORSDOF 5
ENDMDL
MODEL 7
REMARK VINA RESULT:    -4.860      4.409      8.025
REMARK INTER + INTRA:          -7.591
REMARK INTER:                  -6.351
REMARK INTRA:                  -1.240
REMARK CONF_INDEPENDENT:        1.492
REMARK UNBOUND:                -1.240
REMARK  5 active torsions:
REMARK  status: ('A' for Active; 'I' for Inactive)
REMARK    1  A    between atoms: C_2  and  O_3 
REMARK    2  A    between atoms: C_2  and  C_4 
REMARK    3  A    between atoms: C_2  and  C_11 
REMARK    4  A    between atoms: C_4  and  N_5 
REMARK       I    between atoms: N_5  and  C_6 
REMARK    5  A    between atoms: C_6  and  C_8 
ROOT
ATOM      1  C   UNL d   1      24.780 -14.263  -2.834  0.00  0.00     0.053 C 
ATOM      2  C   UNL d   1      25.825 -15.354  -3.130  0.00  0.00     0.097 C 
ENDROOT
BRANCH   2   3
ATOM      3  O   UNL d   1      25.529 -15.932  -4.408  0.00  0.00    -0.384 OA
ATOM      4  H   UNL d   1      25.670 -15.249  -5.082  0.00  0.00     0.211 HD
ENDBRANCH   2   3
BRANCH   2   5
ATOM      5  C   UNL d   1      27.243 -14.733  -3.161  0.00  0.00     0.165 C 
BRANCH   5   6
ATOM      6  N   UNL d   1      27.439 -13.689  -4.155  0.00  0.00    -0.358 N 
ATOM      7  C   UNL d   1      27.637 -14.043  -5.468  0.00  0.00     0.221 C 
ATOM      8  O   UNL d   1      27.596 -15.200  -5.876  0.00  0.00    -0.273 OA
ATOM      9  H   UNL d   1      27.582 -12.731  -3.875  0.00  0.00     0.162 HD
BRANCH   7  10
ATOM     10  C   UNL d   1      27.905 -12.908  -6.391  0.00  0.00     0.078 A 
ATOM     11  C   UNL d   1      27.027 -11.676  -6.338  0.00  0.00     0.015 A 
ATOM     12  C   UNL d   1      28.440 -11.605  -5.839  0.00  0.00     0.015 A 
ENDBRANCH   7  10
ENDBRANCH   5   6
ENDBRANCH   2   5
BRANCH   2  13
ATOM     13  C   UNL d   1      25.673 -16.429  -2.053  0.00  0.00    -0.023 A 
ATOM     14  C   UNL d   1      24.398 -16.925  -1.731  0.00  0.00     0.010 A 
ATOM     15  C   UNL d   1      24.200 -17.662  -0.563  0.00  0.00     0.001 A 
ATOM     16  C   UNL d   1      25.285 -18.006   0.240  0.00  0.00     0.000 A 
ATOM     17  C   UNL d   1      26.566 -17.593  -0.108  0.00  0.00     0.001 A 
ATOM     18  C   UNL d   1      26.756 -16.813  -1.244  0.00  0.00     0.010 A 
ENDBRANCH   2  13
TORSDOF 5
ENDMDL
MODEL 8
REMARK VINA RESULT:    -4.800      4.508      7.769
REMARK INTER + INTRA:          -7.723
REMARK INTER:                  -6.291
REMARK INTRA:                  -1.432
REMARK CONF_INDEPENDENT:        1.492
REMARK UNBOUND:                -1.432
REMARK  5 active torsions:
REMARK  status: ('A' for Active; 'I' for Inactive)
REMARK    1  A    between atoms: C_2  and  O_3 
REMARK    2  A    between atoms: C_2  and  C_4 
REMARK    3  A    between atoms: C_2  and  C_11 
REMARK    4  A    between atoms: C_4  and  N_5 
REMARK       I    between atoms: N_5  and  C_6 
REMARK    5  A    between atoms: C_6  and  C_8 
ROOT
ATOM      1  C   UNL d   1      24.684 -13.817  -3.397  0.00  0.00     0.053 C 
ATOM      2  C   UNL d   1      25.780 -14.894  -3.480  0.00  0.00     0.097 C 
ENDROOT
BRANCH   2   3
ATOM      3  O   UNL d   1      25.533 -15.706  -4.635  0.00  0.00    -0.384 OA
ATOM      4  H   UNL d   1      25.947 -15.272  -5.397  0.00  0.00     0.211 HD
ENDBRANCH   2   3
BRANCH   2   5
ATOM      5  C   UNL d   1      27.170 -14.223  -3.608  0.00  0.00     0.165 C 
BRANCH   5   6
ATOM      6  N   UNL d   1      28.272 -15.132  -3.883  0.00  0.00    -0.358 N 
ATOM      7  C   UNL d   1      28.470 -15.575  -5.169  0.00  0.00     0.221 C 
ATOM      8  O   UNL d   1      27.806 -15.199  -6.130  0.00  0.00    -0.273 OA
ATOM      9  H   UNL d   1      28.791 -15.555  -3.129  0.00  0.00     0.162 HD
BRANCH   7  10
ATOM     10  C   UNL d   1      29.573 -16.561  -5.330  0.00  0.00     0.078 A 
ATOM     11  C   UNL d   1      31.010 -16.105  -5.195  0.00  0.00     0.015 A 
ATOM     12  C   UNL d   1      30.398 -16.964  -4.128  0.00  0.00     0.015 A 
ENDBRANCH   7  10
ENDBRANCH   5   6
ENDBRANCH   2   5
BRANCH   2  13
ATOM     13  C   UNL d   1      25.656 -15.762  -2.228  0.00  0.00    -0.023 A 
ATOM     14  C   UNL d   1      26.808 -16.141  -1.518  0.00  0.00     0.010 A 
ATOM     15  C   UNL d   1      26.753 -17.167  -0.575  0.00  0.00     0.001 A 
ATOM     16  C   UNL d   1      25.531 -17.752  -0.246  0.00  0.00     0.000 A 
ATOM     17  C   UNL d   1      24.368 -17.331  -0.879  0.00  0.00     0.001 A 
ATOM     18  C   UNL d   1      24.432 -16.346  -1.859  0.00  0.00     0.010 A 
ENDBRANCH   2  13
TORSDOF 5
ENDMDL
MODEL 9
REMARK VINA RESULT:    -4.636      4.126      7.685
REMARK INTER + INTRA:          -7.391
REMARK INTER:                  -6.128
REMARK INTRA:                  -1.263
REMARK CONF_INDEPENDENT:        1.492
REMARK UNBOUND:                -1.263
REMARK  5 active torsions:
REMARK  status: ('A' for Active; 'I' for Inactive)
REMARK    1  A    between atoms: C_2  and  O_3 
REMARK    2  A    between atoms: C_2  and  C_4 
REMARK    3  A    between atoms: C_2  and  C_11 
REMARK    4  A    between atoms: C_4  and  N_5 
REMARK       I    between atoms: N_5  and  C_6 
REMARK    5  A    between atoms: C_6  and  C_8 
ROOT
ATOM      1  C   UNL d   1      26.607 -15.495  -3.376  0.00  0.00     0.053 C 
ATOM      2  C   UNL d   1      25.559 -15.017  -2.355  0.00  0.00     0.097 C 
ENDROOT
BRANCH   2   3
ATOM      3  O   UNL d   1      26.196 -14.118  -1.437  0.00  0.00    -0.384 OA
ATOM      4  H   UNL d   1      26.074 -13.217  -1.772  0.00  0.00     0.211 HD
ENDBRANCH   2   3
BRANCH   2   5
ATOM      5  C   UNL d   1      24.409 -14.280  -3.085  0.00  0.00     0.165 C 
BRANCH   5   6
ATOM      6  N   UNL d   1      24.807 -13.536  -4.270  0.00  0.00    -0.358 N 
ATOM      7  C   UNL d   1      25.612 -12.431  -4.129  0.00  0.00     0.221 C 
ATOM      8  O   UNL d   1      26.079 -12.060  -3.056  0.00  0.00    -0.273 OA
ATOM      9  H   UNL d   1      24.382 -13.726  -5.165  0.00  0.00     0.162 HD
BRANCH   7  10
ATOM     10  C   UNL d   1      25.897 -11.696  -5.391  0.00  0.00     0.078 A 
ATOM     11  C   UNL d   1      26.649 -10.384  -5.339  0.00  0.00     0.015 A 
ATOM     12  C   UNL d   1      27.319 -11.604  -5.898  0.00  0.00     0.015 A 
ENDBRANCH   7  10
ENDBRANCH   5   6
ENDBRANCH   2   5
BRANCH   2  13
ATOM     13  C   UNL d   1      25.079 -16.250  -1.589  0.00  0.00    -0.023 A 
ATOM     14  C   UNL d   1      23.710 -16.427  -1.329  0.00  0.00     0.010 A 
ATOM     15  C   UNL d   1      23.283 -17.360  -0.384  0.00  0.00     0.001 A 
ATOM     16  C   UNL d   1      24.205 -18.204   0.232  0.00  0.00     0.000 A 
ATOM     17  C   UNL d   1      25.556 -18.099  -0.076  0.00  0.00     0.001 A 
ATOM     18  C   UNL d   1      25.987 -17.132  -0.978  0.00  0.00     0.010 A 
ENDBRANCH   2  13
TORSDOF 5
ENDMDL
