MODEL 1
REMARK VINA RESULT:    -8.270      0.000      0.000
REMARK INTER + INTRA:         -13.758
REMARK INTER:                 -11.253
REMARK INTRA:                  -2.505
REMARK CONF_INDEPENDENT:        2.983
REMARK UNBOUND:                -2.505
REMARK  10 active torsions:
REMARK  status: ('A' for Active; 'I' for Inactive)
REMARK    1  A    between atoms: C_2  and  O_3 
REMARK    2  A    between atoms: O_3  and  C_4 
REMARK    3  A    between atoms: C_10  and  C_11 
REMARK       I    between atoms: C_11  and  N_13 
REMARK    4  A    between atoms: N_13  and  C_14 
REMARK    5  A    between atoms: C_14  and  N_16 
REMARK    6  A    between atoms: N_16  and  N_17 
REMARK       I    between atoms: N_17  and  C_18 
REMARK    7  A    between atoms: C_18  and  C_20 
REMARK    8  A    between atoms: C_20  and  O_21 
REMARK    9  A    between atoms: O_21  and  C_22 
REMARK   10  A    between atoms: C_25  and  C_26 
ROOT
ATOM      1  N   UNL d   1      27.100 -14.368  -5.530  0.00  0.00    -0.273 N 
ATOM      2  H   UNL d   1      26.154 -14.050  -5.740  0.00  0.00     0.189 HD
ENDROOT
BRANCH   1   3
ATOM      3  C   UNL d   1      28.243 -14.155  -6.324  0.00  0.00     0.193 C 
ATOM      4  S   UNL d   1      28.593 -12.591  -6.858  0.00  0.00    -0.039 SA
BRANCH   3   5
ATOM      5  N   UNL d   1      29.022 -15.303  -6.606  0.00  0.00    -0.298 N 
ATOM      6  C   UNL d   1      29.693 -16.132  -5.672  0.00  0.00     0.260 C 
ATOM      7  O   UNL d   1      29.668 -15.937  -4.452  0.00  0.00    -0.267 OA
ATOM      8  H   UNL d   1      29.147 -15.569  -7.577  0.00  0.00     0.171 HD
BRANCH   6   9
ATOM      9  C   UNL d   1      30.487 -17.342  -6.097  0.00  0.00     0.067 A 
ATOM     10  C   UNL d   1      30.415 -18.487  -5.260  0.00  0.00     0.039 A 
ATOM     11  C   UNL d   1      31.098 -19.665  -5.572  0.00  0.00     0.012 A 
ATOM     12  C   UNL d   1      31.867 -19.733  -6.723  0.00  0.00     0.022 A 
ATOM     13 BR   UNL d   1      30.996 -21.168  -4.426  0.00  0.00    -0.051 Br
ATOM     14  C   UNL d   1      31.954 -18.615  -7.559  0.00  0.00     0.039 A 
ATOM     15  C   UNL d   1      31.264 -17.423  -7.259  0.00  0.00     0.084 A 
BRANCH  15  16
ATOM     16  O   UNL d   1      31.404 -16.293  -8.017  0.00  0.00    -0.350 OA
BRANCH  16  17
ATOM     17  C   UNL d   1      32.251 -15.290  -7.452  0.00  0.00     0.171 C 
ATOM     18  C   UNL d   1      33.613 -15.458  -8.099  0.00  0.00     0.034 C 
ENDBRANCH  16  17
ENDBRANCH  15  16
ENDBRANCH   6   9
ENDBRANCH   3   5
ENDBRANCH   1   3
BRANCH   1  19
ATOM     19  N   UNL d   1      27.235 -15.096  -4.273  0.00  0.00    -0.266 N 
ATOM     20  C   UNL d   1      26.153 -15.274  -3.419  0.00  0.00     0.260 C 
ATOM     21  O   UNL d   1      25.048 -14.806  -3.693  0.00  0.00    -0.269 OA
ATOM     22  H   UNL d   1      28.169 -15.462  -4.083  0.00  0.00     0.190 HD
BRANCH  20  23
ATOM     23  C   UNL d   1      26.447 -16.082  -2.115  0.00  0.00     0.280 C 
BRANCH  23  24
ATOM     24  O   UNL d   1      25.443 -15.810  -1.128  0.00  0.00    -0.342 OA
BRANCH  24  25
ATOM     25  C   UNL d   1      24.484 -16.758  -0.894  0.00  0.00     0.069 A 
ATOM     26  C   UNL d   1      23.157 -16.315  -0.902  0.00  0.00     0.037 A 
ATOM     27  C   UNL d   1      22.103 -17.177  -0.566  0.00  0.00     0.010 A 
ATOM     28  C   UNL d   1      22.348 -18.529  -0.296  0.00  0.00    -0.055 A 
ATOM     29  C   UNL d   1      23.687 -18.947  -0.249  0.00  0.00     0.010 A 
ATOM     30  C   UNL d   1      24.743 -18.076  -0.541  0.00  0.00     0.037 A 
BRANCH  28  31
ATOM     31  C   UNL d   1      21.184 -19.502  -0.121  0.00  0.00     0.010 C 
ATOM     32  C   UNL d   1      20.553 -19.328   1.269  0.00  0.00     0.015 C 
ATOM     33  C   UNL d   1      20.083 -19.316  -1.174  0.00  0.00     0.015 C 
ENDBRANCH  28  31
ENDBRANCH  24  25
ENDBRANCH  23  24
ENDBRANCH  20  23
ENDBRANCH   1  19
TORSDOF 10
ENDMDL
MODEL 2
REMARK VINA RESULT:    -8.057      6.312      8.540
REMARK INTER + INTRA:         -13.768
REMARK INTER:                 -11.040
REMARK INTRA:                  -2.728
REMARK CONF_INDEPENDENT:        2.983
REMARK UNBOUND:                -2.728
REMARK  10 active torsions:
REMARK  status: ('A' for Active; 'I' for Inactive)
REMARK    1  A    between atoms: C_2  and  O_3 
REMARK    2  A    between atoms: O_3  and  C_4 
REMARK    3  A    between atoms: C_10  and  C_11 
REMARK       I    between atoms: C_11  and  N_13 
REMARK    4  A    between atoms: N_13  and  C_14 
REMARK    5  A    between atoms: C_14  and  N_16 
REMARK    6  A    between atoms: N_16  and  N_17 
REMARK       I    between atoms: N_17  and  C_18 
REMARK    7  A    between atoms: C_18  and  C_20 
REMARK    8  A    between atoms: C_20  and  O_21 
REMARK    9  A    between atoms: O_21  and  C_22 
REMARK   10  A    between atoms: C_25  and  C_26 
ROOT
ATOM      1  N   UNL d   1      27.378 -17.147   0.325  0.00  0.00    -0.273 N 
ATOM      2  H   UNL d   1      27.381 -18.129   0.600  0.00  0.00     0.189 HD
ENDROOT
BRANCH   1   3
ATOM      3  C   UNL d   1      28.475 -16.267   0.372  0.00  0.00     0.193 C 
ATOM      4  S   UNL d   1      29.760 -16.496  -0.702  0.00  0.00    -0.039 SA
BRANCH   3   5
ATOM      5  N   UNL d   1      28.398 -15.235   1.337  0.00  0.00    -0.298 N 
ATOM      6  C   UNL d   1      27.573 -14.083   1.295  0.00  0.00     0.260 C 
ATOM      7  O   UNL d   1      26.791 -13.843   0.369  0.00  0.00    -0.267 OA
ATOM      8  H   UNL d   1      29.007 -15.292   2.147  0.00  0.00     0.171 HD
BRANCH   6   9
ATOM      9  C   UNL d   1      27.573 -13.054   2.398  0.00  0.00     0.067 A 
ATOM     10  C   UNL d   1      27.211 -11.727   2.042  0.00  0.00     0.039 A 
ATOM     11  C   UNL d   1      27.161 -10.704   2.991  0.00  0.00     0.012 A 
ATOM     12  C   UNL d   1      27.469 -10.974   4.315  0.00  0.00     0.022 A 
ATOM     13 BR   UNL d   1      26.693  -8.942   2.481  0.00  0.00    -0.051 Br
ATOM     14  C   UNL d   1      27.831 -12.273   4.685  0.00  0.00     0.039 A 
ATOM     15  C   UNL d   1      27.879 -13.317   3.739  0.00  0.00     0.084 A 
BRANCH  15  16
ATOM     16  O   UNL d   1      28.311 -14.572   4.064  0.00  0.00    -0.350 OA
BRANCH  16  17
ATOM     17  C   UNL d   1      28.597 -14.770   5.450  0.00  0.00     0.171 C 
ATOM     18  C   UNL d   1      30.044 -14.363   5.658  0.00  0.00     0.034 C 
ENDBRANCH  16  17
ENDBRANCH  15  16
ENDBRANCH   6   9
ENDBRANCH   3   5
ENDBRANCH   1   3
BRANCH   1  19
ATOM     19  N   UNL d   1      26.096 -16.657  -0.170  0.00  0.00    -0.266 N 
ATOM     20  C   UNL d   1      24.991 -17.494  -0.275  0.00  0.00     0.260 C 
ATOM     21  O   UNL d   1      25.068 -18.684   0.034  0.00  0.00    -0.269 OA
ATOM     22  H   UNL d   1      26.078 -15.668  -0.420  0.00  0.00     0.190 HD
BRANCH  20  23
ATOM     23  C   UNL d   1      23.685 -16.826  -0.811  0.00  0.00     0.280 C 
BRANCH  23  24
ATOM     24  O   UNL d   1      22.886 -17.792  -1.507  0.00  0.00    -0.342 OA
BRANCH  24  25
ATOM     25  C   UNL d   1      21.965 -18.512  -0.795  0.00  0.00     0.069 A 
ATOM     26  C   UNL d   1      20.912 -19.071  -1.529  0.00  0.00     0.037 A 
ATOM     27  C   UNL d   1      19.854 -19.734  -0.889  0.00  0.00     0.010 A 
ATOM     28  C   UNL d   1      19.872 -19.927   0.499  0.00  0.00    -0.055 A 
ATOM     29  C   UNL d   1      20.911 -19.324   1.223  0.00  0.00     0.010 A 
ATOM     30  C   UNL d   1      21.944 -18.624   0.588  0.00  0.00     0.037 A 
BRANCH  28  31
ATOM     31  C   UNL d   1      18.822 -20.813   1.165  0.00  0.00     0.010 C 
ATOM     32  C   UNL d   1      18.215 -20.093   2.380  0.00  0.00     0.015 C 
ATOM     33  C   UNL d   1      17.677 -21.204   0.219  0.00  0.00     0.015 C 
ENDBRANCH  28  31
ENDBRANCH  24  25
ENDBRANCH  23  24
ENDBRANCH  20  23
ENDBRANCH   1  19
TORSDOF 10
ENDMDL
MODEL 3
REMARK VINA RESULT:    -8.005      2.812      7.938
REMARK INTER + INTRA:         -13.675
REMARK INTER:                 -10.988
REMARK INTRA:                  -2.687
REMARK CONF_INDEPENDENT:        2.983
REMARK UNBOUND:                -2.687
REMARK  10 active torsions:
REMARK  status: ('A' for Active; 'I' for Inactive)
REMARK    1  A    between atoms: C_2  and  O_3 
REMARK    2  A    between atoms: O_3  and  C_4 
REMARK    3  A    between atoms: C_10  and  C_11 
REMARK       I    between atoms: C_11  and  N_13 
REMARK    4  A    between atoms: N_13  and  C_14 
REMARK    5  A    between atoms: C_14  and  N_16 
REMARK    6  A    between atoms: N_16  and  N_17 
REMARK       I    between atoms: N_17  and  C_18 
REMARK    7  A    between atoms: C_18  and  C_20 
REMARK    8  A    between atoms: C_20  and  O_21 
REMARK    9  A    between atoms: O_21  and  C_22 
REMARK   10  A    between atoms: C_25  and  C_26 
ROOT
ATOM      1  N   UNL d   1      26.139 -12.770  -4.688  0.00  0.00    -0.273 N 
ATOM      2  H   UNL d   1      25.243 -12.770  -5.175  0.00  0.00     0.189 HD
ENDROOT
BRANCH   1   3
ATOM      3  C   UNL d   1      26.335 -12.561  -3.309  0.00  0.00     0.193 C 
ATOM      4  S   UNL d   1      26.682 -11.003  -2.755  0.00  0.00    -0.039 SA
BRANCH   3   5
ATOM      5  N   UNL d   1      26.213 -13.707  -2.488  0.00  0.00    -0.298 N 
ATOM      6  C   UNL d   1      25.277 -14.762  -2.625  0.00  0.00     0.260 C 
ATOM      7  O   UNL d   1      24.425 -14.802  -3.520  0.00  0.00    -0.267 OA
ATOM      8  H   UNL d   1      26.840 -13.795  -1.695  0.00  0.00     0.171 HD
BRANCH   6   9
ATOM      9  C   UNL d   1      25.255 -15.943  -1.687  0.00  0.00     0.067 A 
ATOM     10  C   UNL d   1      24.014 -16.616  -1.525  0.00  0.00     0.039 A 
ATOM     11  C   UNL d   1      23.889 -17.731  -0.694  0.00  0.00     0.012 A 
ATOM     12  C   UNL d   1      24.994 -18.206  -0.006  0.00  0.00     0.022 A 
ATOM     13 BR   UNL d   1      22.217 -18.593  -0.486  0.00  0.00    -0.051 Br
ATOM     14  C   UNL d   1      26.224 -17.557  -0.148  0.00  0.00     0.039 A 
ATOM     15  C   UNL d   1      26.365 -16.433  -0.989  0.00  0.00     0.084 A 
BRANCH  15  16
ATOM     16  O   UNL d   1      27.537 -15.734  -1.076  0.00  0.00    -0.350 OA
BRANCH  16  17
ATOM     17  C   UNL d   1      28.373 -16.096  -2.177  0.00  0.00     0.171 C 
ATOM     18  C   UNL d   1      29.422 -15.007  -2.302  0.00  0.00     0.034 C 
ENDBRANCH  16  17
ENDBRANCH  15  16
ENDBRANCH   6   9
ENDBRANCH   3   5
ENDBRANCH   1   3
BRANCH   1  19
ATOM     19  N   UNL d   1      27.296 -13.027  -5.538  0.00  0.00    -0.266 N 
ATOM     20  C   UNL d   1      27.663 -14.321  -5.891  0.00  0.00     0.260 C 
ATOM     21  O   UNL d   1      27.026 -15.292  -5.482  0.00  0.00    -0.269 OA
ATOM     22  H   UNL d   1      27.798 -12.195  -5.850  0.00  0.00     0.190 HD
BRANCH  20  23
ATOM     23  C   UNL d   1      28.917 -14.440  -6.814  0.00  0.00     0.280 C 
BRANCH  23  24
ATOM     24  O   UNL d   1      30.023 -14.978  -6.076  0.00  0.00    -0.342 OA
BRANCH  24  25
ATOM     25  C   UNL d   1      30.258 -16.325  -6.141  0.00  0.00     0.069 A 
ATOM     26  C   UNL d   1      30.081 -17.044  -4.954  0.00  0.00     0.037 A 
ATOM     27  C   UNL d   1      30.399 -18.408  -4.879  0.00  0.00     0.010 A 
ATOM     28  C   UNL d   1      30.822 -19.104  -6.019  0.00  0.00    -0.055 A 
ATOM     29  C   UNL d   1      31.035 -18.360  -7.189  0.00  0.00     0.010 A 
ATOM     30  C   UNL d   1      30.760 -16.989  -7.253  0.00  0.00     0.037 A 
BRANCH  28  31
ATOM     31  C   UNL d   1      30.980 -20.622  -5.979  0.00  0.00     0.010 C 
ATOM     32  C   UNL d   1      32.384 -21.021  -6.461  0.00  0.00     0.015 C 
ATOM     33  C   UNL d   1      30.770 -21.211  -4.577  0.00  0.00     0.015 C 
ENDBRANCH  28  31
ENDBRANCH  24  25
ENDBRANCH  23  24
ENDBRANCH  20  23
ENDBRANCH   1  19
TORSDOF 10
ENDMDL
MODEL 4
REMARK VINA RESULT:    -7.842      6.002      8.488
REMARK INTER + INTRA:         -13.659
REMARK INTER:                 -10.825
REMARK INTRA:                  -2.833
REMARK CONF_INDEPENDENT:        2.983
REMARK UNBOUND:                -2.833
REMARK  10 active torsions:
REMARK  status: ('A' for Active; 'I' for Inactive)
REMARK    1  A    between atoms: C_2  and  O_3 
REMARK    2  A    between atoms: O_3  and  C_4 
REMARK    3  A    between atoms: C_10  and  C_11 
REMARK       I    between atoms: C_11  and  N_13 
REMARK    4  A    between atoms: N_13  and  C_14 
REMARK    5  A    between atoms: C_14  and  N_16 
REMARK    6  A    between atoms: N_16  and  N_17 
REMARK       I    between atoms: N_17  and  C_18 
REMARK    7  A    between atoms: C_18  and  C_20 
REMARK    8  A    between atoms: C_20  and  O_21 
REMARK    9  A    between atoms: O_21  and  C_22 
REMARK   10  A    between atoms: C_25  and  C_26 
ROOT
ATOM      1  N   UNL d   1      27.642 -12.210  -1.708  0.00  0.00    -0.273 N 
ATOM      2  H   UNL d   1      27.900 -11.261  -1.980  0.00  0.00     0.189 HD
ENDROOT
BRANCH   1   3
ATOM      3  C   UNL d   1      26.707 -13.036  -2.359  0.00  0.00     0.193 C 
ATOM      4  S   UNL d   1      26.186 -12.623  -3.912  0.00  0.00    -0.039 SA
BRANCH   3   5
ATOM      5  N   UNL d   1      26.280 -14.175  -1.635  0.00  0.00    -0.298 N 
ATOM      6  C   UNL d   1      25.336 -15.148  -2.049  0.00  0.00     0.260 C 
ATOM      7  O   UNL d   1      24.758 -15.110  -3.141  0.00  0.00    -0.267 OA
ATOM      8  H   UNL d   1      26.660 -14.320  -0.706  0.00  0.00     0.171 HD
BRANCH   6   9
ATOM      9  C   UNL d   1      24.970 -16.330  -1.187  0.00  0.00     0.067 A 
ATOM     10  C   UNL d   1      23.677 -16.888  -1.372  0.00  0.00     0.039 A 
ATOM     11  C   UNL d   1      23.245 -17.994  -0.638  0.00  0.00     0.012 A 
ATOM     12  C   UNL d   1      24.089 -18.575   0.296  0.00  0.00     0.022 A 
ATOM     13 BR   UNL d   1      21.509 -18.702  -0.894  0.00  0.00    -0.051 Br
ATOM     14  C   UNL d   1      25.365 -18.039   0.496  0.00  0.00     0.039 A 
ATOM     15  C   UNL d   1      25.815 -16.926  -0.243  0.00  0.00     0.084 A 
BRANCH  15  16
ATOM     16  O   UNL d   1      27.026 -16.336  -0.003  0.00  0.00    -0.350 OA
BRANCH  16  17
ATOM     17  C   UNL d   1      28.161 -17.109  -0.401  0.00  0.00     0.171 C 
ATOM     18  C   UNL d   1      29.320 -16.140  -0.533  0.00  0.00     0.034 C 
ENDBRANCH  16  17
ENDBRANCH  15  16
ENDBRANCH   6   9
ENDBRANCH   3   5
ENDBRANCH   1   3
BRANCH   1  19
ATOM     19  N   UNL d   1      28.345 -12.721  -0.535  0.00  0.00    -0.266 N 
ATOM     20  C   UNL d   1      27.679 -12.965   0.660  0.00  0.00     0.260 C 
ATOM     21  O   UNL d   1      26.472 -12.741   0.768  0.00  0.00    -0.269 OA
ATOM     22  H   UNL d   1      29.343 -12.887  -0.668  0.00  0.00     0.190 HD
BRANCH  20  23
ATOM     23  C   UNL d   1      28.560 -13.519   1.824  0.00  0.00     0.280 C 
BRANCH  23  24
ATOM     24  O   UNL d   1      27.728 -14.070   2.854  0.00  0.00    -0.342 OA
BRANCH  24  25
ATOM     25  C   UNL d   1      28.126 -13.935   4.156  0.00  0.00     0.069 A 
ATOM     26  C   UNL d   1      27.753 -12.750   4.801  0.00  0.00     0.037 A 
ATOM     27  C   UNL d   1      28.199 -12.459   6.098  0.00  0.00     0.010 A 
ATOM     28  C   UNL d   1      28.962 -13.392   6.814  0.00  0.00    -0.055 A 
ATOM     29  C   UNL d   1      29.363 -14.555   6.139  0.00  0.00     0.010 A 
ATOM     30  C   UNL d   1      28.954 -14.825   4.828  0.00  0.00     0.037 A 
BRANCH  28  31
ATOM     31  C   UNL d   1      29.280 -13.154   8.288  0.00  0.00     0.010 C 
ATOM     32  C   UNL d   1      28.529 -11.915   8.799  0.00  0.00     0.015 C 
ATOM     33  C   UNL d   1      28.905 -14.344   9.183  0.00  0.00     0.015 C 
ENDBRANCH  28  31
ENDBRANCH  24  25
ENDBRANCH  23  24
ENDBRANCH  20  23
ENDBRANCH   1  19
TORSDOF 10
ENDMDL
MODEL 5
REMARK VINA RESULT:    -7.715      6.797      9.595
REMARK INTER + INTRA:         -13.879
REMARK INTER:                 -10.698
REMARK INTRA:                  -3.180
REMARK CONF_INDEPENDENT:        2.983
REMARK UNBOUND:                -3.180
REMARK  10 active torsions:
REMARK  status: ('A' for Active; 'I' for Inactive)
REMARK    1  A    between atoms: C_2  and  O_3 
REMARK    2  A    between atoms: O_3  and  C_4 
REMARK    3  A    between atoms: C_10  and  C_11 
REMARK       I    between atoms: C_11  and  N_13 
REMARK    4  A    between atoms: N_13  and  C_14 
REMARK    5  A    between atoms: C_14  and  N_16 
REMARK    6  A    between atoms: N_16  and  N_17 
REMARK       I    between atoms: N_17  and  C_18 
REMARK    7  A    between atoms: C_18  and  C_20 
REMARK    8  A    between atoms: C_20  and  O_21 
REMARK    9  A    between atoms: O_21  and  C_22 
REMARK   10  A    between atoms: C_25  and  C_26 
ROOT
ATOM      1  N   UNL d   1      27.843 -14.821   1.649  0.00  0.00    -0.273 N 
ATOM      2  H   UNL d   1      28.559 -15.377   2.117  0.00  0.00     0.189 HD
ENDROOT
BRANCH   1   3
ATOM      3  C   UNL d   1      27.628 -13.439   1.809  0.00  0.00     0.193 C 
ATOM      4  S   UNL d   1      27.073 -12.536   0.494  0.00  0.00    -0.039 SA
BRANCH   3   5
ATOM      5  N   UNL d   1      27.898 -12.917   3.097  0.00  0.00    -0.298 N 
ATOM      6  C   UNL d   1      28.204 -13.651   4.270  0.00  0.00     0.260 C 
ATOM      7  O   UNL d   1      28.277 -14.884   4.299  0.00  0.00    -0.267 OA
ATOM      8  H   UNL d   1      27.851 -11.912   3.224  0.00  0.00     0.171 HD
BRANCH   6   9
ATOM      9  C   UNL d   1      28.486 -12.976   5.589  0.00  0.00     0.067 A 
ATOM     10  C   UNL d   1      28.562 -13.809   6.737  0.00  0.00     0.039 A 
ATOM     11  C   UNL d   1      28.835 -13.287   8.003  0.00  0.00     0.012 A 
ATOM     12  C   UNL d   1      29.041 -11.925   8.159  0.00  0.00     0.022 A 
ATOM     13 BR   UNL d   1      28.910 -14.421   9.516  0.00  0.00    -0.051 Br
ATOM     14  C   UNL d   1      28.968 -11.087   7.042  0.00  0.00     0.039 A 
ATOM     15  C   UNL d   1      28.699 -11.602   5.757  0.00  0.00     0.084 A 
BRANCH  15  16
ATOM     16  O   UNL d   1      28.540 -10.790   4.668  0.00  0.00    -0.350 OA
BRANCH  16  17
ATOM     17  C   UNL d   1      27.409  -9.918   4.728  0.00  0.00     0.171 C 
ATOM     18  C   UNL d   1      27.213  -9.364   3.329  0.00  0.00     0.034 C 
ENDBRANCH  16  17
ENDBRANCH  15  16
ENDBRANCH   6   9
ENDBRANCH   3   5
ENDBRANCH   1   3
BRANCH   1  19
ATOM     19  N   UNL d   1      26.994 -15.569   0.727  0.00  0.00    -0.266 N 
ATOM     20  C   UNL d   1      27.462 -16.699   0.066  0.00  0.00     0.260 C 
ATOM     21  O   UNL d   1      28.617 -17.093   0.228  0.00  0.00    -0.269 OA
ATOM     22  H   UNL d   1      26.047 -15.204   0.619  0.00  0.00     0.190 HD
BRANCH  20  23
ATOM     23  C   UNL d   1      26.437 -17.400  -0.881  0.00  0.00     0.280 C 
BRANCH  23  24
ATOM     24  O   UNL d   1      25.211 -16.657  -0.918  0.00  0.00    -0.342 OA
BRANCH  24  25
ATOM     25  C   UNL d   1      24.031 -17.336  -0.779  0.00  0.00     0.069 A 
ATOM     26  C   UNL d   1      24.130 -18.708  -0.521  0.00  0.00     0.037 A 
ATOM     27  C   UNL d   1      22.988 -19.521  -0.469  0.00  0.00     0.010 A 
ATOM     28  C   UNL d   1      21.710 -18.960  -0.589  0.00  0.00    -0.055 A 
ATOM     29  C   UNL d   1      21.629 -17.591  -0.889  0.00  0.00     0.010 A 
ATOM     30  C   UNL d   1      22.772 -16.788  -0.985  0.00  0.00     0.037 A 
BRANCH  28  31
ATOM     31  C   UNL d   1      20.469 -19.814  -0.339  0.00  0.00     0.010 C 
ATOM     32  C   UNL d   1      20.277 -20.039   1.169  0.00  0.00     0.015 C 
ATOM     33  C   UNL d   1      19.185 -19.185  -0.897  0.00  0.00     0.015 C 
ENDBRANCH  28  31
ENDBRANCH  24  25
ENDBRANCH  23  24
ENDBRANCH  20  23
ENDBRANCH   1  19
TORSDOF 10
ENDMDL
MODEL 6
REMARK VINA RESULT:    -7.440      2.405      3.804
REMARK INTER + INTRA:         -13.588
REMARK INTER:                 -10.423
REMARK INTRA:                  -3.165
REMARK CONF_INDEPENDENT:        2.983
REMARK UNBOUND:                -3.165
REMARK  10 active torsions:
REMARK  status: ('A' for Active; 'I' for Inactive)
REMARK    1  A    between atoms: C_2  and  O_3 
REMARK    2  A    between atoms: O_3  and  C_4 
REMARK    3  A    between atoms: C_10  and  C_11 
REMARK       I    between atoms: C_11  and  N_13 
REMARK    4  A    between atoms: N_13  and  C_14 
REMARK    5  A    between atoms: C_14  and  N_16 
REMARK    6  A    between atoms: N_16  and  N_17 
REMARK       I    between atoms: N_17  and  C_18 
REMARK    7  A    between atoms: C_18  and  C_20 
REMARK    8  A    between atoms: C_20  and  O_21 
REMARK    9  A    between atoms: O_21  and  C_22 
REMARK   10  A    between atoms: C_25  and  C_26 
ROOT
ATOM      1  N   UNL d   1      24.763 -14.450  -3.101  0.00  0.00    -0.273 N 
ATOM      2  H   UNL d   1      23.807 -14.120  -3.230  0.00  0.00     0.189 HD
ENDROOT
BRANCH   1   3
ATOM      3  C   UNL d   1      25.935 -13.778  -3.495  0.00  0.00     0.193 C 
ATOM      4  S   UNL d   1      25.842 -12.146  -3.924  0.00  0.00    -0.039 SA
BRANCH   3   5
ATOM      5  N   UNL d   1      27.121 -14.550  -3.490  0.00  0.00    -0.298 N 
ATOM      6  C   UNL d   1      27.711 -15.220  -4.591  0.00  0.00     0.260 C 
ATOM      7  O   UNL d   1      27.234 -15.199  -5.732  0.00  0.00    -0.267 OA
ATOM      8  H   UNL d   1      27.609 -14.670  -2.609  0.00  0.00     0.171 HD
BRANCH   6   9
ATOM      9  C   UNL d   1      28.991 -16.006  -4.461  0.00  0.00     0.067 A 
ATOM     10  C   UNL d   1      29.593 -16.463  -5.665  0.00  0.00     0.039 A 
ATOM     11  C   UNL d   1      30.788 -17.185  -5.657  0.00  0.00     0.012 A 
ATOM     12  C   UNL d   1      31.416 -17.468  -4.454  0.00  0.00     0.022 A 
ATOM     13 BR   UNL d   1      31.554 -17.796  -7.276  0.00  0.00    -0.051 Br
ATOM     14  C   UNL d   1      30.838 -17.031  -3.258  0.00  0.00     0.039 A 
ATOM     15  C   UNL d   1      29.635 -16.296  -3.252  0.00  0.00     0.084 A 
BRANCH  15  16
ATOM     16  O   UNL d   1      29.011 -15.932  -2.091  0.00  0.00    -0.350 OA
BRANCH  16  17
ATOM     17  C   UNL d   1      29.008 -16.934  -1.071  0.00  0.00     0.171 C 
ATOM     18  C   UNL d   1      28.585 -16.244   0.213  0.00  0.00     0.034 C 
ENDBRANCH  16  17
ENDBRANCH  15  16
ENDBRANCH   6   9
ENDBRANCH   3   5
ENDBRANCH   1   3
BRANCH   1  19
ATOM     19  N   UNL d   1      24.878 -15.740  -2.428  0.00  0.00    -0.266 N 
ATOM     20  C   UNL d   1      25.577 -15.876  -1.234  0.00  0.00     0.260 C 
ATOM     21  O   UNL d   1      26.136 -14.908  -0.716  0.00  0.00    -0.269 OA
ATOM     22  H   UNL d   1      24.405 -16.515  -2.895  0.00  0.00     0.190 HD
BRANCH  20  23
ATOM     23  C   UNL d   1      25.605 -17.314  -0.628  0.00  0.00     0.280 C 
BRANCH  23  24
ATOM     24  O   UNL d   1      24.723 -18.176  -1.359  0.00  0.00    -0.342 OA
BRANCH  24  25
ATOM     25  C   UNL d   1      23.509 -18.487  -0.809  0.00  0.00     0.069 A 
ATOM     26  C   UNL d   1      22.519 -18.927  -1.696  0.00  0.00     0.037 A 
ATOM     27  C   UNL d   1      21.209 -19.167  -1.259  0.00  0.00     0.010 A 
ATOM     28  C   UNL d   1      20.880 -19.055   0.099  0.00  0.00    -0.055 A 
ATOM     29  C   UNL d   1      21.871 -18.573   0.967  0.00  0.00     0.010 A 
ATOM     30  C   UNL d   1      23.168 -18.290   0.522  0.00  0.00     0.037 A 
BRANCH  28  31
ATOM     31  C   UNL d   1      19.509 -19.504   0.597  0.00  0.00     0.010 C 
ATOM     32  C   UNL d   1      18.756 -20.244  -0.520  0.00  0.00     0.015 C 
ATOM     33  C   UNL d   1      19.586 -20.431   1.818  0.00  0.00     0.015 C 
ENDBRANCH  28  31
ENDBRANCH  24  25
ENDBRANCH  23  24
ENDBRANCH  20  23
ENDBRANCH   1  19
TORSDOF 10
ENDMDL
MODEL 7
REMARK VINA RESULT:    -7.410      3.266      7.528
REMARK INTER + INTRA:         -14.691
REMARK INTER:                 -10.393
REMARK INTRA:                  -4.298
REMARK CONF_INDEPENDENT:        2.983
REMARK UNBOUND:                -4.298
REMARK  10 active torsions:
REMARK  status: ('A' for Active; 'I' for Inactive)
REMARK    1  A    between atoms: C_2  and  O_3 
REMARK    2  A    between atoms: O_3  and  C_4 
REMARK    3  A    between atoms: C_10  and  C_11 
REMARK       I    between atoms: C_11  and  N_13 
REMARK    4  A    between atoms: N_13  and  C_14 
REMARK    5  A    between atoms: C_14  and  N_16 
REMARK    6  A    between atoms: N_16  and  N_17 
REMARK       I    between atoms: N_17  and  C_18 
REMARK    7  A    between atoms: C_18  and  C_20 
REMARK    8  A    between atoms: C_20  and  O_21 
REMARK    9  A    between atoms: O_21  and  C_22 
REMARK   10  A    between atoms: C_25  and  C_26 
ROOT
ATOM      1  N   UNL d   1      25.659 -12.309  -4.599  0.00  0.00    -0.273 N 
ATOM      2  H   UNL d   1      24.888 -11.917  -5.141  0.00  0.00     0.189 HD
ENDROOT
BRANCH   1   3
ATOM      3  C   UNL d   1      25.938 -12.051  -3.244  0.00  0.00     0.193 C 
ATOM      4  S   UNL d   1      26.276 -10.468  -2.761  0.00  0.00    -0.039 SA
BRANCH   3   5
ATOM      5  N   UNL d   1      25.902 -13.173  -2.382  0.00  0.00    -0.298 N 
ATOM      6  C   UNL d   1      25.335 -14.444  -2.654  0.00  0.00     0.260 C 
ATOM      7  O   UNL d   1      24.786 -14.726  -3.725  0.00  0.00    -0.267 OA
ATOM      8  H   UNL d   1      26.300 -13.075  -1.454  0.00  0.00     0.171 HD
BRANCH   6   9
ATOM      9  C   UNL d   1      25.370 -15.570  -1.652  0.00  0.00     0.067 A 
ATOM     10  C   UNL d   1      24.334 -16.538  -1.733  0.00  0.00     0.039 A 
ATOM     11  C   UNL d   1      24.283 -17.630  -0.864  0.00  0.00     0.012 A 
ATOM     12  C   UNL d   1      25.263 -17.788   0.104  0.00  0.00     0.022 A 
ATOM     13 BR   UNL d   1      22.878 -18.892  -0.986  0.00  0.00    -0.051 Br
ATOM     14  C   UNL d   1      26.290 -16.845   0.203  0.00  0.00     0.039 A 
ATOM     15  C   UNL d   1      26.356 -15.741  -0.672  0.00  0.00     0.084 A 
BRANCH  15  16
ATOM     16  O   UNL d   1      27.303 -14.763  -0.538  0.00  0.00    -0.350 OA
BRANCH  16  17
ATOM     17  C   UNL d   1      27.623 -14.418   0.811  0.00  0.00     0.171 C 
ATOM     18  C   UNL d   1      26.711 -13.268   1.194  0.00  0.00     0.034 C 
ENDBRANCH  16  17
ENDBRANCH  15  16
ENDBRANCH   6   9
ENDBRANCH   3   5
ENDBRANCH   1   3
BRANCH   1  19
ATOM     19  N   UNL d   1      26.518 -13.228  -5.338  0.00  0.00    -0.266 N 
ATOM     20  C   UNL d   1      27.554 -12.764  -6.141  0.00  0.00     0.260 C 
ATOM     21  O   UNL d   1      27.766 -11.557  -6.264  0.00  0.00    -0.269 OA
ATOM     22  H   UNL d   1      26.304 -14.217  -5.212  0.00  0.00     0.190 HD
BRANCH  20  23
ATOM     23  C   UNL d   1      28.395 -13.865  -6.862  0.00  0.00     0.280 C 
BRANCH  23  24
ATOM     24  O   UNL d   1      28.023 -15.164  -6.383  0.00  0.00    -0.342 OA
BRANCH  24  25
ATOM     25  C   UNL d   1      28.583 -15.615  -5.218  0.00  0.00     0.069 A 
ATOM     26  C   UNL d   1      29.649 -16.513  -5.349  0.00  0.00     0.037 A 
ATOM     27  C   UNL d   1      30.225 -17.123  -4.225  0.00  0.00     0.010 A 
ATOM     28  C   UNL d   1      29.802 -16.779  -2.934  0.00  0.00    -0.055 A 
ATOM     29  C   UNL d   1      28.705 -15.911  -2.822  0.00  0.00     0.010 A 
ATOM     30  C   UNL d   1      28.101 -15.336  -3.946  0.00  0.00     0.037 A 
BRANCH  28  31
ATOM     31  C   UNL d   1      30.559 -17.297  -1.714  0.00  0.00     0.010 C 
ATOM     32  C   UNL d   1      29.600 -17.455  -0.523  0.00  0.00     0.015 C 
ATOM     33  C   UNL d   1      31.244 -18.649  -1.960  0.00  0.00     0.015 C 
ENDBRANCH  28  31
ENDBRANCH  24  25
ENDBRANCH  23  24
ENDBRANCH  20  23
ENDBRANCH   1  19
TORSDOF 10
ENDMDL
MODEL 8
REMARK VINA RESULT:    -7.335      6.195      8.795
REMARK INTER + INTRA:         -13.553
REMARK INTER:                 -10.318
REMARK INTRA:                  -3.235
REMARK CONF_INDEPENDENT:        2.983
REMARK UNBOUND:                -3.235
REMARK  10 active torsions:
REMARK  status: ('A' for Active; 'I' for Inactive)
REMARK    1  A    between atoms: C_2  and  O_3 
REMARK    2  A    between atoms: O_3  and  C_4 
REMARK    3  A    between atoms: C_10  and  C_11 
REMARK       I    between atoms: C_11  and  N_13 
REMARK    4  A    between atoms: N_13  and  C_14 
REMARK    5  A    between atoms: C_14  and  N_16 
REMARK    6  A    between atoms: N_16  and  N_17 
REMARK       I    between atoms: N_17  and  C_18 
REMARK    7  A    between atoms: C_18  and  C_20 
REMARK    8  A    between atoms: C_20  and  O_21 
REMARK    9  A    between atoms: O_21  and  C_22 
REMARK   10  A    between atoms: C_25  and  C_26 
ROOT
ATOM      1  N   UNL d   1      32.781 -16.418   1.598  0.00  0.00    -0.273 N 
ATOM      2  H   UNL d   1      33.507 -17.112   1.422  0.00  0.00     0.189 HD
ENDROOT
BRANCH   1   3
ATOM      3  C   UNL d   1      32.906 -15.270   2.404  0.00  0.00     0.193 C 
ATOM      4  S   UNL d   1      34.338 -14.375   2.342  0.00  0.00    -0.039 SA
BRANCH   3   5
ATOM      5  N   UNL d   1      31.787 -14.957   3.210  0.00  0.00    -0.298 N 
ATOM      6  C   UNL d   1      30.536 -14.448   2.778  0.00  0.00     0.260 C 
ATOM      7  O   UNL d   1      30.272 -14.214   1.594  0.00  0.00    -0.267 OA
ATOM      8  H   UNL d   1      31.871 -15.080   4.214  0.00  0.00     0.171 HD
BRANCH   6   9
ATOM      9  C   UNL d   1      29.409 -14.163   3.739  0.00  0.00     0.067 A 
ATOM     10  C   UNL d   1      29.756 -13.981   5.105  0.00  0.00     0.039 A 
ATOM     11  C   UNL d   1      28.791 -13.695   6.073  0.00  0.00     0.012 A 
ATOM     12  C   UNL d   1      27.459 -13.581   5.707  0.00  0.00     0.022 A 
ATOM     13 BR   UNL d   1      29.284 -13.476   7.887  0.00  0.00    -0.051 Br
ATOM     14  C   UNL d   1      27.096 -13.760   4.369  0.00  0.00     0.039 A 
ATOM     15  C   UNL d   1      28.061 -14.043   3.381  0.00  0.00     0.084 A 
BRANCH  15  16
ATOM     16  O   UNL d   1      27.717 -14.305   2.083  0.00  0.00    -0.350 OA
BRANCH  16  17
ATOM     17  C   UNL d   1      27.402 -13.151   1.300  0.00  0.00     0.171 C 
ATOM     18  C   UNL d   1      26.652 -13.648   0.079  0.00  0.00     0.034 C 
ENDBRANCH  16  17
ENDBRANCH  15  16
ENDBRANCH   6   9
ENDBRANCH   3   5
ENDBRANCH   1   3
BRANCH   1  19
ATOM     19  N   UNL d   1      31.514 -16.675   0.921  0.00  0.00    -0.266 N 
ATOM     20  C   UNL d   1      31.464 -17.364  -0.285  0.00  0.00     0.260 C 
ATOM     21  O   UNL d   1      32.494 -17.765  -0.827  0.00  0.00    -0.269 OA
ATOM     22  H   UNL d   1      30.687 -16.320   1.402  0.00  0.00     0.190 HD
BRANCH  20  23
ATOM     23  C   UNL d   1      30.037 -17.571  -0.886  0.00  0.00     0.280 C 
BRANCH  23  24
ATOM     24  O   UNL d   1      29.074 -16.810  -0.144  0.00  0.00    -0.342 OA
BRANCH  24  25
ATOM     25  C   UNL d   1      27.746 -17.094  -0.315  0.00  0.00     0.069 A 
ATOM     26  C   UNL d   1      27.139 -16.561  -1.458  0.00  0.00     0.037 A 
ATOM     27  C   UNL d   1      25.760 -16.696  -1.677  0.00  0.00     0.010 A 
ATOM     28  C   UNL d   1      24.970 -17.445  -0.795  0.00  0.00    -0.055 A 
ATOM     29  C   UNL d   1      25.585 -17.935   0.368  0.00  0.00     0.010 A 
ATOM     30  C   UNL d   1      26.953 -17.762   0.608  0.00  0.00     0.037 A 
BRANCH  28  31
ATOM     31  C   UNL d   1      23.514 -17.751  -1.137  0.00  0.00     0.010 C 
ATOM     32  C   UNL d   1      23.132 -19.149  -0.625  0.00  0.00     0.015 C 
ATOM     33  C   UNL d   1      22.530 -16.736  -0.538  0.00  0.00     0.015 C 
ENDBRANCH  28  31
ENDBRANCH  24  25
ENDBRANCH  23  24
ENDBRANCH  20  23
ENDBRANCH   1  19
TORSDOF 10
ENDMDL
MODEL 9
REMARK VINA RESULT:    -7.041      4.430      7.077
REMARK INTER + INTRA:         -14.082
REMARK INTER:                 -10.024
REMARK INTRA:                  -4.058
REMARK CONF_INDEPENDENT:        2.983
REMARK UNBOUND:                -4.058
REMARK  10 active torsions:
REMARK  status: ('A' for Active; 'I' for Inactive)
REMARK    1  A    between atoms: C_2  and  O_3 
REMARK    2  A    between atoms: O_3  and  C_4 
REMARK    3  A    between atoms: C_10  and  C_11 
REMARK       I    between atoms: C_11  and  N_13 
REMARK    4  A    between atoms: N_13  and  C_14 
REMARK    5  A    between atoms: C_14  and  N_16 
REMARK    6  A    between atoms: N_16  and  N_17 
REMARK       I    between atoms: N_17  and  C_18 
REMARK    7  A    between atoms: C_18  and  C_20 
REMARK    8  A    between atoms: C_20  and  O_21 
REMARK    9  A    between atoms: O_21  and  C_22 
REMARK   10  A    between atoms: C_25  and  C_26 
ROOT
ATOM      1  N   UNL d   1      27.840 -13.261  -4.299  0.00  0.00    -0.273 N 
ATOM      2  H   UNL d   1      28.145 -12.529  -4.941  0.00  0.00     0.189 HD
ENDROOT
BRANCH   1   3
ATOM      3  C   UNL d   1      27.799 -14.641  -4.572  0.00  0.00     0.193 C 
ATOM      4  S   UNL d   1      28.251 -15.190  -6.104  0.00  0.00    -0.039 SA
BRANCH   3   5
ATOM      5  N   UNL d   1      27.377 -15.469  -3.504  0.00  0.00    -0.298 N 
ATOM      6  C   UNL d   1      26.090 -15.512  -2.912  0.00  0.00     0.260 C 
ATOM      7  O   UNL d   1      25.149 -14.800  -3.281  0.00  0.00    -0.267 OA
ATOM      8  H   UNL d   1      28.058 -16.093  -3.085  0.00  0.00     0.171 HD
BRANCH   6   9
ATOM      9  C   UNL d   1      25.757 -16.452  -1.780  0.00  0.00     0.067 A 
ATOM     10  C   UNL d   1      24.404 -16.867  -1.663  0.00  0.00     0.039 A 
ATOM     11  C   UNL d   1      23.994 -17.749  -0.661  0.00  0.00     0.012 A 
ATOM     12  C   UNL d   1      24.918 -18.241   0.247  0.00  0.00     0.022 A 
ATOM     13 BR   UNL d   1      22.179 -18.269  -0.521  0.00  0.00    -0.051 Br
ATOM     14  C   UNL d   1      26.255 -17.841   0.152  0.00  0.00     0.039 A 
ATOM     15  C   UNL d   1      26.683 -16.956  -0.859  0.00  0.00     0.084 A 
BRANCH  15  16
ATOM     16  O   UNL d   1      27.967 -16.488  -0.918  0.00  0.00    -0.350 OA
BRANCH  16  17
ATOM     17  C   UNL d   1      28.977 -17.470  -0.674  0.00  0.00     0.171 C 
ATOM     18  C   UNL d   1      30.188 -16.725  -0.146  0.00  0.00     0.034 C 
ENDBRANCH  16  17
ENDBRANCH  15  16
ENDBRANCH   6   9
ENDBRANCH   3   5
ENDBRANCH   1   3
BRANCH   1  19
ATOM     19  N   UNL d   1      27.428 -12.785  -2.982  0.00  0.00    -0.266 N 
ATOM     20  C   UNL d   1      28.047 -11.696  -2.379  0.00  0.00     0.260 C 
ATOM     21  O   UNL d   1      28.975 -11.109  -2.935  0.00  0.00    -0.269 OA
ATOM     22  H   UNL d   1      26.660 -13.304  -2.556  0.00  0.00     0.190 HD
BRANCH  20  23
ATOM     23  C   UNL d   1      27.492 -11.297  -0.975  0.00  0.00     0.280 C 
BRANCH  23  24
ATOM     24  O   UNL d   1      26.655 -12.341  -0.459  0.00  0.00    -0.342 OA
BRANCH  24  25
ATOM     25  C   UNL d   1      26.982 -12.907   0.743  0.00  0.00     0.069 A 
ATOM     26  C   UNL d   1      27.004 -12.049   1.849  0.00  0.00     0.037 A 
ATOM     27  C   UNL d   1      27.431 -12.498   3.107  0.00  0.00     0.010 A 
ATOM     28  C   UNL d   1      27.766 -13.844   3.306  0.00  0.00    -0.055 A 
ATOM     29  C   UNL d   1      27.781 -14.680   2.179  0.00  0.00     0.010 A 
ATOM     30  C   UNL d   1      27.397 -14.221   0.914  0.00  0.00     0.037 A 
BRANCH  28  31
ATOM     31  C   UNL d   1      28.043 -14.367   4.713  0.00  0.00     0.010 C 
ATOM     32  C   UNL d   1      29.506 -14.824   4.829  0.00  0.00     0.015 C 
ATOM     33  C   UNL d   1      27.780 -13.321   5.806  0.00  0.00     0.015 C 
ENDBRANCH  28  31
ENDBRANCH  24  25
ENDBRANCH  23  24
ENDBRANCH  20  23
ENDBRANCH   1  19
TORSDOF 10
ENDMDL
