MODEL 1
REMARK VINA RESULT:    -9.369      0.000      0.000
REMARK INTER + INTRA:         -12.578
REMARK INTER:                 -11.458
REMARK INTRA:                  -1.120
REMARK CONF_INDEPENDENT:        2.088
REMARK UNBOUND:                -1.120
REMARK  7 active torsions:
REMARK  status: ('A' for Active; 'I' for Inactive)
REMARK       I    between atoms: N_1  and  C_2 
REMARK       I    between atoms: C_2  and  N_4 
REMARK    1  A    between atoms: N_4  and  C_5 
REMARK    2  A    between atoms: C_8  and  N_9 
REMARK       I    between atoms: N_9  and  C_10 
REMARK    3  A    between atoms: C_10  and  C_12 
REMARK    4  A    between atoms: C_17  and  C_18 
REMARK    5  A    between atoms: C_18  and  O_19 
REMARK    6  A    between atoms: O_19  and  C_20 
REMARK    7  A    between atoms: C_24  and  C_25 
ROOT
ATOM      1  N   UNL d   1      28.478 -14.557   2.269  0.00  0.00    -0.323 N 
ATOM      2  C   UNL d   1      27.485 -14.394   1.299  0.00  0.00     0.256 C 
ATOM      3  O   UNL d   1      26.457 -13.721   1.410  0.00  0.00    -0.267 OA
ATOM      4  H   UNL d   1      29.176 -15.263   2.073  0.00  0.00     0.169 HD
ENDROOT
BRANCH   2   5
ATOM      5  C   UNL d   1      27.631 -15.081  -0.023  0.00  0.00     0.040 A 
ATOM      6  C   UNL d   1      28.158 -14.266  -1.049  0.00  0.00     0.017 A 
ATOM      7  C   UNL d   1      28.174 -14.688  -2.379  0.00  0.00     0.001 A 
ATOM      8  C   UNL d   1      27.721 -15.959  -2.702  0.00  0.00     0.001 A 
ATOM      9  C   UNL d   1      27.195 -16.779  -1.704  0.00  0.00     0.010 A 
ATOM     10  C   UNL d   1      27.113 -16.351  -0.358  0.00  0.00    -0.018 A 
BRANCH  10  11
ATOM     11  C   UNL d   1      26.446 -17.315   0.599  0.00  0.00     0.215 C 
BRANCH  11  12
ATOM     12  O   UNL d   1      25.686 -18.260  -0.114  0.00  0.00    -0.347 OA
BRANCH  12  13
ATOM     13  C   UNL d   1      24.383 -18.028  -0.400  0.00  0.00     0.070 A 
ATOM     14  C   UNL d   1      24.110 -16.682  -0.663  0.00  0.00     0.037 A 
ATOM     15  C   UNL d   1      22.807 -16.246  -0.869  0.00  0.00     0.004 A 
ATOM     16  C   UNL d   1      21.775 -17.177  -0.895  0.00  0.00     0.014 A 
ATOM     17  C   UNL d   1      22.049 -18.517  -0.595  0.00  0.00     0.004 A 
ATOM     18  C   UNL d   1      23.348 -18.942  -0.305  0.00  0.00     0.051 A 
BRANCH  17  19
ATOM     19  C   UNL d   1      20.953 -19.499  -0.561  0.00  0.00     0.270 C 
ATOM     20  O   UNL d   1      20.259 -19.721  -1.547  0.00  0.00    -0.301 OA
ENDBRANCH  17  19
ENDBRANCH  12  13
ENDBRANCH  11  12
ENDBRANCH  10  11
ENDBRANCH   2   5
BRANCH   1  21
ATOM     21  C   UNL d   1      28.347 -14.188   3.648  0.00  0.00     0.035 A 
ATOM     22  C   UNL d   1      28.028 -12.866   4.021  0.00  0.00     0.032 A 
ATOM     23  C   UNL d   1      28.054 -12.467   5.383  0.00  0.00     0.032 A 
ATOM     24  C   UNL d   1      28.358 -13.395   6.382  0.00  0.00     0.036 A 
ATOM     25  C   UNL d   1      28.673 -14.693   6.004  0.00  0.00     0.032 A 
ATOM     26  C   UNL d   1      28.660 -15.080   4.667  0.00  0.00     0.032 A 
BRANCH  24  27
ATOM     27  N   UNL d   1      28.288 -13.062   7.753  0.00  0.00    -0.309 N 
ATOM     28  C   UNL d   1      28.510 -11.799   8.238  0.00  0.00     0.318 C 
ATOM     29  N   UNL d   1      28.531 -11.698   9.586  0.00  0.00    -0.352 N 
ATOM     30  O   UNL d   1      28.641 -10.769   7.570  0.00  0.00    -0.247 OA
ATOM     31  H   UNL d   1      28.695 -10.766   9.947  0.00  0.00     0.160 HD
ATOM     32  H   UNL d   1      28.512 -12.470  10.231  0.00  0.00     0.160 HD
ATOM     33  H   UNL d   1      28.029 -13.790   8.401  0.00  0.00     0.170 HD
ENDBRANCH  24  27
ENDBRANCH   1  21
TORSDOF 7
ENDMDL
MODEL 2
REMARK VINA RESULT:    -8.946      3.624      8.235
REMARK INTER + INTRA:         -12.793
REMARK INTER:                 -11.035
REMARK INTRA:                  -1.758
REMARK CONF_INDEPENDENT:        2.088
REMARK UNBOUND:                -1.758
REMARK  7 active torsions:
REMARK  status: ('A' for Active; 'I' for Inactive)
REMARK       I    between atoms: N_1  and  C_2 
REMARK       I    between atoms: C_2  and  N_4 
REMARK    1  A    between atoms: N_4  and  C_5 
REMARK    2  A    between atoms: C_8  and  N_9 
REMARK       I    between atoms: N_9  and  C_10 
REMARK    3  A    between atoms: C_10  and  C_12 
REMARK    4  A    between atoms: C_17  and  C_18 
REMARK    5  A    between atoms: C_18  and  O_19 
REMARK    6  A    between atoms: O_19  and  C_20 
REMARK    7  A    between atoms: C_24  and  C_25 
ROOT
ATOM      1  N   UNL d   1      25.552 -15.942  -1.448  0.00  0.00    -0.323 N 
ATOM      2  C   UNL d   1      25.424 -15.127  -2.577  0.00  0.00     0.256 C 
ATOM      3  O   UNL d   1      24.372 -14.826  -3.146  0.00  0.00    -0.267 OA
ATOM      4  H   UNL d   1      26.496 -16.210  -1.201  0.00  0.00     0.169 HD
ENDROOT
BRANCH   2   5
ATOM      5  C   UNL d   1      26.652 -14.536  -3.197  0.00  0.00     0.040 A 
ATOM      6  C   UNL d   1      26.557 -14.324  -4.590  0.00  0.00     0.017 A 
ATOM      7  C   UNL d   1      27.672 -13.967  -5.350  0.00  0.00     0.001 A 
ATOM      8  C   UNL d   1      28.891 -13.754  -4.723  0.00  0.00     0.001 A 
ATOM      9  C   UNL d   1      29.006 -13.960  -3.349  0.00  0.00     0.010 A 
ATOM     10  C   UNL d   1      27.905 -14.379  -2.565  0.00  0.00    -0.018 A 
BRANCH  10  11
ATOM     11  C   UNL d   1      28.199 -14.640  -1.104  0.00  0.00     0.215 C 
BRANCH  11  12
ATOM     12  O   UNL d   1      27.075 -14.324  -0.319  0.00  0.00    -0.347 OA
BRANCH  12  13
ATOM     13  C   UNL d   1      27.218 -13.918   0.965  0.00  0.00     0.070 A 
ATOM     14  C   UNL d   1      26.851 -12.583   1.161  0.00  0.00     0.037 A 
ATOM     15  C   UNL d   1      27.034 -11.968   2.393  0.00  0.00     0.004 A 
ATOM     16  C   UNL d   1      27.514 -12.716   3.463  0.00  0.00     0.014 A 
ATOM     17  C   UNL d   1      27.915 -14.041   3.250  0.00  0.00     0.004 A 
ATOM     18  C   UNL d   1      27.808 -14.636   1.990  0.00  0.00     0.051 A 
BRANCH  17  19
ATOM     19  C   UNL d   1      28.479 -14.823   4.362  0.00  0.00     0.270 C 
ATOM     20  O   UNL d   1      27.777 -15.234   5.280  0.00  0.00    -0.301 OA
ENDBRANCH  17  19
ENDBRANCH  12  13
ENDBRANCH  11  12
ENDBRANCH  10  11
ENDBRANCH   2   5
BRANCH   1  21
ATOM     21  C   UNL d   1      24.516 -16.778  -0.918  0.00  0.00     0.035 A 
ATOM     22  C   UNL d   1      24.781 -18.106  -0.524  0.00  0.00     0.032 A 
ATOM     23  C   UNL d   1      23.727 -18.980  -0.150  0.00  0.00     0.032 A 
ATOM     24  C   UNL d   1      22.408 -18.522  -0.128  0.00  0.00     0.036 A 
ATOM     25  C   UNL d   1      22.157 -17.213  -0.521  0.00  0.00     0.032 A 
ATOM     26  C   UNL d   1      23.190 -16.362  -0.900  0.00  0.00     0.032 A 
BRANCH  24  27
ATOM     27  N   UNL d   1      21.347 -19.328   0.341  0.00  0.00    -0.309 N 
ATOM     28  C   UNL d   1      20.331 -19.783  -0.458  0.00  0.00     0.318 C 
ATOM     29  N   UNL d   1      19.336 -20.429   0.191  0.00  0.00    -0.352 N 
ATOM     30  O   UNL d   1      20.271 -19.699  -1.688  0.00  0.00    -0.247 OA
ATOM     31  H   UNL d   1      18.584 -20.766  -0.397  0.00  0.00     0.160 HD
ATOM     32  H   UNL d   1      19.235 -20.494   1.190  0.00  0.00     0.160 HD
ATOM     33  H   UNL d   1      21.361 -19.606   1.311  0.00  0.00     0.170 HD
ENDBRANCH  24  27
ENDBRANCH   1  21
TORSDOF 7
ENDMDL
MODEL 3
REMARK VINA RESULT:    -8.568      5.158      8.254
REMARK INTER + INTRA:         -13.061
REMARK INTER:                 -10.657
REMARK INTRA:                  -2.405
REMARK CONF_INDEPENDENT:        2.088
REMARK UNBOUND:                -2.405
REMARK  7 active torsions:
REMARK  status: ('A' for Active; 'I' for Inactive)
REMARK       I    between atoms: N_1  and  C_2 
REMARK       I    between atoms: C_2  and  N_4 
REMARK    1  A    between atoms: N_4  and  C_5 
REMARK    2  A    between atoms: C_8  and  N_9 
REMARK       I    between atoms: N_9  and  C_10 
REMARK    3  A    between atoms: C_10  and  C_12 
REMARK    4  A    between atoms: C_17  and  C_18 
REMARK    5  A    between atoms: C_18  and  O_19 
REMARK    6  A    between atoms: O_19  and  C_20 
REMARK    7  A    between atoms: C_24  and  C_25 
ROOT
ATOM      1  N   UNL d   1      25.370 -14.996  -2.081  0.00  0.00    -0.323 N 
ATOM      2  C   UNL d   1      24.904 -14.198  -3.130  0.00  0.00     0.256 C 
ATOM      3  O   UNL d   1      23.738 -14.117  -3.525  0.00  0.00    -0.267 OA
ATOM      4  H   UNL d   1      26.376 -15.061  -1.987  0.00  0.00     0.169 HD
ENDROOT
BRANCH   2   5
ATOM      5  C   UNL d   1      25.872 -13.339  -3.883  0.00  0.00     0.040 A 
ATOM      6  C   UNL d   1      25.796 -11.964  -3.571  0.00  0.00     0.017 A 
ATOM      7  C   UNL d   1      26.484 -11.007  -4.319  0.00  0.00     0.001 A 
ATOM      8  C   UNL d   1      27.312 -11.412  -5.356  0.00  0.00     0.001 A 
ATOM      9  C   UNL d   1      27.399 -12.765  -5.682  0.00  0.00     0.010 A 
ATOM     10  C   UNL d   1      26.665 -13.748  -4.977  0.00  0.00    -0.018 A 
BRANCH  10  11
ATOM     11  C   UNL d   1      26.797 -15.164  -5.494  0.00  0.00     0.215 C 
BRANCH  11  12
ATOM     12  O   UNL d   1      28.152 -15.540  -5.541  0.00  0.00    -0.347 OA
BRANCH  12  13
ATOM     13  C   UNL d   1      28.798 -15.948  -4.423  0.00  0.00     0.070 A 
ATOM     14  C   UNL d   1      29.891 -16.777  -4.694  0.00  0.00     0.037 A 
ATOM     15  C   UNL d   1      30.603 -17.376  -3.662  0.00  0.00     0.004 A 
ATOM     16  C   UNL d   1      30.272 -17.078  -2.345  0.00  0.00     0.014 A 
ATOM     17  C   UNL d   1      29.154 -16.276  -2.081  0.00  0.00     0.004 A 
ATOM     18  C   UNL d   1      28.386 -15.741  -3.118  0.00  0.00     0.051 A 
BRANCH  17  19
ATOM     19  C   UNL d   1      28.760 -16.004  -0.689  0.00  0.00     0.270 C 
ATOM     20  O   UNL d   1      27.618 -15.664  -0.399  0.00  0.00    -0.301 OA
ENDBRANCH  17  19
ENDBRANCH  12  13
ENDBRANCH  11  12
ENDBRANCH  10  11
ENDBRANCH   2   5
BRANCH   1  21
ATOM     21  C   UNL d   1      24.625 -16.051  -1.459  0.00  0.00     0.035 A 
ATOM     22  C   UNL d   1      25.232 -17.284  -1.144  0.00  0.00     0.032 A 
ATOM     23  C   UNL d   1      24.460 -18.379  -0.675  0.00  0.00     0.032 A 
ATOM     24  C   UNL d   1      23.084 -18.236  -0.481  0.00  0.00     0.036 A 
ATOM     25  C   UNL d   1      22.495 -17.018  -0.797  0.00  0.00     0.032 A 
ATOM     26  C   UNL d   1      23.252 -15.950  -1.269  0.00  0.00     0.032 A 
BRANCH  24  27
ATOM     27  N   UNL d   1      22.301 -19.266   0.085  0.00  0.00    -0.309 N 
ATOM     28  C   UNL d   1      20.942 -19.358  -0.070  0.00  0.00     0.318 C 
ATOM     29  N   UNL d   1      20.347 -20.333   0.652  0.00  0.00    -0.352 N 
ATOM     30  O   UNL d   1      20.243 -18.678  -0.827  0.00  0.00    -0.247 OA
ATOM     31  H   UNL d   1      19.343 -20.403   0.539  0.00  0.00     0.160 HD
ATOM     32  H   UNL d   1      20.795 -20.897   1.355  0.00  0.00     0.160 HD
ATOM     33  H   UNL d   1      22.778 -19.988   0.604  0.00  0.00     0.170 HD
ENDBRANCH  24  27
ENDBRANCH   1  21
TORSDOF 7
ENDMDL
MODEL 4
REMARK VINA RESULT:    -8.434      4.645      8.073
REMARK INTER + INTRA:         -12.902
REMARK INTER:                 -10.522
REMARK INTRA:                  -2.380
REMARK CONF_INDEPENDENT:        2.088
REMARK UNBOUND:                -2.380
REMARK  7 active torsions:
REMARK  status: ('A' for Active; 'I' for Inactive)
REMARK       I    between atoms: N_1  and  C_2 
REMARK       I    between atoms: C_2  and  N_4 
REMARK    1  A    between atoms: N_4  and  C_5 
REMARK    2  A    between atoms: C_8  and  N_9 
REMARK       I    between atoms: N_9  and  C_10 
REMARK    3  A    between atoms: C_10  and  C_12 
REMARK    4  A    between atoms: C_17  and  C_18 
REMARK    5  A    between atoms: C_18  and  O_19 
REMARK    6  A    between atoms: O_19  and  C_20 
REMARK    7  A    between atoms: C_24  and  C_25 
ROOT
ATOM      1  N   UNL d   1      25.967 -16.964  -1.058  0.00  0.00    -0.323 N 
ATOM      2  C   UNL d   1      27.023 -17.122  -0.155  0.00  0.00     0.256 C 
ATOM      3  O   UNL d   1      27.049 -17.884   0.814  0.00  0.00    -0.267 OA
ATOM      4  H   UNL d   1      26.049 -16.189  -1.703  0.00  0.00     0.169 HD
ENDROOT
BRANCH   2   5
ATOM      5  C   UNL d   1      28.268 -16.310  -0.335  0.00  0.00     0.040 A 
ATOM      6  C   UNL d   1      29.450 -17.074  -0.448  0.00  0.00     0.017 A 
ATOM      7  C   UNL d   1      30.711 -16.474  -0.421  0.00  0.00     0.001 A 
ATOM      8  C   UNL d   1      30.812 -15.092  -0.345  0.00  0.00     0.001 A 
ATOM      9  C   UNL d   1      29.656 -14.320  -0.231  0.00  0.00     0.010 A 
ATOM     10  C   UNL d   1      28.370 -14.909  -0.195  0.00  0.00    -0.018 A 
BRANCH  10  11
ATOM     11  C   UNL d   1      27.215 -13.953   0.013  0.00  0.00     0.215 C 
BRANCH  11  12
ATOM     12  O   UNL d   1      26.204 -14.200  -0.934  0.00  0.00    -0.347 OA
BRANCH  12  13
ATOM     13  C   UNL d   1      26.400 -13.926  -2.245  0.00  0.00     0.070 A 
ATOM     14  C   UNL d   1      25.530 -12.949  -2.737  0.00  0.00     0.037 A 
ATOM     15  C   UNL d   1      25.517 -12.621  -4.087  0.00  0.00     0.004 A 
ATOM     16  C   UNL d   1      26.440 -13.216  -4.941  0.00  0.00     0.014 A 
ATOM     17  C   UNL d   1      27.283 -14.220  -4.449  0.00  0.00     0.004 A 
ATOM     18  C   UNL d   1      27.239 -14.610  -3.108  0.00  0.00     0.051 A 
BRANCH  17  19
ATOM     19  C   UNL d   1      28.222 -14.898  -5.358  0.00  0.00     0.270 C 
ATOM     20  O   UNL d   1      27.827 -15.575  -6.301  0.00  0.00    -0.301 OA
ENDBRANCH  17  19
ENDBRANCH  12  13
ENDBRANCH  11  12
ENDBRANCH  10  11
ENDBRANCH   2   5
BRANCH   1  21
ATOM     21  C   UNL d   1      24.638 -17.464  -0.861  0.00  0.00     0.035 A 
ATOM     22  C   UNL d   1      23.525 -16.598  -0.870  0.00  0.00     0.032 A 
ATOM     23  C   UNL d   1      22.232 -17.067  -0.519  0.00  0.00     0.032 A 
ATOM     24  C   UNL d   1      22.037 -18.412  -0.197  0.00  0.00     0.036 A 
ATOM     25  C   UNL d   1      23.139 -19.257  -0.188  0.00  0.00     0.032 A 
ATOM     26  C   UNL d   1      24.409 -18.791  -0.519  0.00  0.00     0.032 A 
BRANCH  24  27
ATOM     27  N   UNL d   1      20.750 -18.938   0.052  0.00  0.00    -0.309 N 
ATOM     28  C   UNL d   1      19.951 -19.477  -0.923  0.00  0.00     0.318 C 
ATOM     29  N   UNL d   1      18.702 -19.808  -0.523  0.00  0.00    -0.352 N 
ATOM     30  O   UNL d   1      20.278 -19.724  -2.087  0.00  0.00    -0.247 OA
ATOM     31  H   UNL d   1      18.109 -20.206  -1.241  0.00  0.00     0.160 HD
ATOM     32  H   UNL d   1      18.297 -19.588   0.372  0.00  0.00     0.160 HD
ATOM     33  H   UNL d   1      20.419 -18.942   1.005  0.00  0.00     0.170 HD
ENDBRANCH  24  27
ENDBRANCH   1  21
TORSDOF 7
ENDMDL
MODEL 5
REMARK VINA RESULT:    -8.387      4.752      7.951
REMARK INTER + INTRA:         -12.739
REMARK INTER:                 -10.475
REMARK INTRA:                  -2.264
REMARK CONF_INDEPENDENT:        2.088
REMARK UNBOUND:                -2.264
REMARK  7 active torsions:
REMARK  status: ('A' for Active; 'I' for Inactive)
REMARK       I    between atoms: N_1  and  C_2 
REMARK       I    between atoms: C_2  and  N_4 
REMARK    1  A    between atoms: N_4  and  C_5 
REMARK    2  A    between atoms: C_8  and  N_9 
REMARK       I    between atoms: N_9  and  C_10 
REMARK    3  A    between atoms: C_10  and  C_12 
REMARK    4  A    between atoms: C_17  and  C_18 
REMARK    5  A    between atoms: C_18  and  O_19 
REMARK    6  A    between atoms: O_19  and  C_20 
REMARK    7  A    between atoms: C_24  and  C_25 
ROOT
ATOM      1  N   UNL d   1      25.166 -15.360  -2.179  0.00  0.00    -0.323 N 
ATOM      2  C   UNL d   1      24.777 -14.454  -3.170  0.00  0.00     0.256 C 
ATOM      3  O   UNL d   1      23.620 -14.186  -3.504  0.00  0.00    -0.267 OA
ATOM      4  H   UNL d   1      26.154 -15.573  -2.138  0.00  0.00     0.169 HD
ENDROOT
BRANCH   2   5
ATOM      5  C   UNL d   1      25.827 -13.707  -3.934  0.00  0.00     0.040 A 
ATOM      6  C   UNL d   1      25.405 -12.456  -4.435  0.00  0.00     0.017 A 
ATOM      7  C   UNL d   1      26.190 -11.727  -5.330  0.00  0.00     0.001 A 
ATOM      8  C   UNL d   1      27.442 -12.204  -5.692  0.00  0.00     0.001 A 
ATOM      9  C   UNL d   1      27.876 -13.439  -5.210  0.00  0.00     0.010 A 
ATOM     10  C   UNL d   1      27.074 -14.225  -4.349  0.00  0.00    -0.018 A 
BRANCH  10  11
ATOM     11  C   UNL d   1      27.641 -15.575  -3.972  0.00  0.00     0.215 C 
BRANCH  11  12
ATOM     12  O   UNL d   1      28.538 -15.442  -2.896  0.00  0.00    -0.347 OA
BRANCH  12  13
ATOM     13  C   UNL d   1      28.125 -15.639  -1.621  0.00  0.00     0.070 A 
ATOM     14  C   UNL d   1      28.203 -14.485  -0.836  0.00  0.00     0.037 A 
ATOM     15  C   UNL d   1      27.922 -14.528   0.524  0.00  0.00     0.004 A 
ATOM     16  C   UNL d   1      27.480 -15.719   1.089  0.00  0.00     0.014 A 
ATOM     17  C   UNL d   1      27.439 -16.879   0.306  0.00  0.00     0.004 A 
ATOM     18  C   UNL d   1      27.802 -16.854  -1.043  0.00  0.00     0.051 A 
BRANCH  17  19
ATOM     19  C   UNL d   1      27.030 -18.158   0.910  0.00  0.00     0.270 C 
ATOM     20  O   UNL d   1      25.880 -18.575   0.812  0.00  0.00    -0.301 OA
ENDBRANCH  17  19
ENDBRANCH  12  13
ENDBRANCH  11  12
ENDBRANCH  10  11
ENDBRANCH   2   5
BRANCH   1  21
ATOM     21  C   UNL d   1      24.302 -16.325  -1.566  0.00  0.00     0.035 A 
ATOM     22  C   UNL d   1      24.580 -17.706  -1.644  0.00  0.00     0.032 A 
ATOM     23  C   UNL d   1      23.645 -18.665  -1.175  0.00  0.00     0.032 A 
ATOM     24  C   UNL d   1      22.446 -18.251  -0.589  0.00  0.00     0.036 A 
ATOM     25  C   UNL d   1      22.181 -16.890  -0.520  0.00  0.00     0.032 A 
ATOM     26  C   UNL d   1      23.093 -15.950  -0.993  0.00  0.00     0.032 A 
BRANCH  24  27
ATOM     27  N   UNL d   1      21.542 -19.171  -0.015  0.00  0.00    -0.309 N 
ATOM     28  C   UNL d   1      20.493 -19.730  -0.698  0.00  0.00     0.318 C 
ATOM     29  N   UNL d   1      19.657 -20.484   0.051  0.00  0.00    -0.352 N 
ATOM     30  O   UNL d   1      20.280 -19.646  -1.911  0.00  0.00    -0.247 OA
ATOM     31  H   UNL d   1      18.881 -20.898  -0.452  0.00  0.00     0.160 HD
ATOM     32  H   UNL d   1      19.683 -20.566   1.053  0.00  0.00     0.160 HD
ATOM     33  H   UNL d   1      21.700 -19.452   0.941  0.00  0.00     0.170 HD
ENDBRANCH  24  27
ENDBRANCH   1  21
TORSDOF 7
ENDMDL
MODEL 6
REMARK VINA RESULT:    -8.366      4.441      8.059
REMARK INTER + INTRA:         -13.246
REMARK INTER:                 -10.454
REMARK INTRA:                  -2.792
REMARK CONF_INDEPENDENT:        2.088
REMARK UNBOUND:                -2.792
REMARK  7 active torsions:
REMARK  status: ('A' for Active; 'I' for Inactive)
REMARK       I    between atoms: N_1  and  C_2 
REMARK       I    between atoms: C_2  and  N_4 
REMARK    1  A    between atoms: N_4  and  C_5 
REMARK    2  A    between atoms: C_8  and  N_9 
REMARK       I    between atoms: N_9  and  C_10 
REMARK    3  A    between atoms: C_10  and  C_12 
REMARK    4  A    between atoms: C_17  and  C_18 
REMARK    5  A    between atoms: C_18  and  O_19 
REMARK    6  A    between atoms: O_19  and  C_20 
REMARK    7  A    between atoms: C_24  and  C_25 
ROOT
ATOM      1  N   UNL d   1      25.447 -15.782  -2.097  0.00  0.00    -0.323 N 
ATOM      2  C   UNL d   1      25.136 -14.860  -3.101  0.00  0.00     0.256 C 
ATOM      3  O   UNL d   1      24.010 -14.445  -3.390  0.00  0.00    -0.267 OA
ATOM      4  H   UNL d   1      26.398 -16.128  -2.094  0.00  0.00     0.169 HD
ENDROOT
BRANCH   2   5
ATOM      5  C   UNL d   1      26.237 -14.288  -3.938  0.00  0.00     0.040 A 
ATOM      6  C   UNL d   1      26.764 -15.180  -4.897  0.00  0.00     0.017 A 
ATOM      7  C   UNL d   1      27.919 -14.875  -5.619  0.00  0.00     0.001 A 
ATOM      8  C   UNL d   1      28.535 -13.644  -5.441  0.00  0.00     0.001 A 
ATOM      9  C   UNL d   1      28.032 -12.750  -4.496  0.00  0.00     0.010 A 
ATOM     10  C   UNL d   1      26.898 -13.061  -3.710  0.00  0.00    -0.018 A 
BRANCH  10  11
ATOM     11  C   UNL d   1      26.516 -12.029  -2.671  0.00  0.00     0.215 C 
BRANCH  11  12
ATOM     12  O   UNL d   1      27.414 -12.072  -1.589  0.00  0.00    -0.347 OA
BRANCH  12  13
ATOM     13  C   UNL d   1      27.407 -13.114  -0.724  0.00  0.00     0.070 A 
ATOM     14  C   UNL d   1      27.006 -12.752   0.566  0.00  0.00     0.037 A 
ATOM     15  C   UNL d   1      27.044 -13.671   1.607  0.00  0.00     0.004 A 
ATOM     16  C   UNL d   1      27.408 -14.986   1.341  0.00  0.00     0.014 A 
ATOM     17  C   UNL d   1      27.844 -15.333   0.056  0.00  0.00     0.004 A 
ATOM     18  C   UNL d   1      27.885 -14.388  -0.973  0.00  0.00     0.051 A 
BRANCH  17  19
ATOM     19  C   UNL d   1      28.288 -16.709  -0.221  0.00  0.00     0.270 C 
ATOM     20  O   UNL d   1      27.871 -17.336  -1.189  0.00  0.00    -0.301 OA
ENDBRANCH  17  19
ENDBRANCH  12  13
ENDBRANCH  11  12
ENDBRANCH  10  11
ENDBRANCH   2   5
BRANCH   1  21
ATOM     21  C   UNL d   1      24.492 -16.601  -1.410  0.00  0.00     0.035 A 
ATOM     22  C   UNL d   1      24.825 -17.900  -0.975  0.00  0.00     0.032 A 
ATOM     23  C   UNL d   1      23.836 -18.766  -0.439  0.00  0.00     0.032 A 
ATOM     24  C   UNL d   1      22.518 -18.325  -0.297  0.00  0.00     0.036 A 
ATOM     25  C   UNL d   1      22.199 -17.045  -0.732  0.00  0.00     0.032 A 
ATOM     26  C   UNL d   1      23.168 -16.202  -1.270  0.00  0.00     0.032 A 
BRANCH  24  27
ATOM     27  N   UNL d   1      21.532 -19.118   0.330  0.00  0.00    -0.309 N 
ATOM     28  C   UNL d   1      20.460 -19.658  -0.332  0.00  0.00     0.318 C 
ATOM     29  N   UNL d   1      19.551 -20.275   0.456  0.00  0.00    -0.352 N 
ATOM     30  O   UNL d   1      20.284 -19.672  -1.553  0.00  0.00    -0.247 OA
ATOM     31  H   UNL d   1      18.758 -20.675  -0.031  0.00  0.00     0.160 HD
ATOM     32  H   UNL d   1      19.545 -20.264   1.462  0.00  0.00     0.160 HD
ATOM     33  H   UNL d   1      21.644 -19.318   1.313  0.00  0.00     0.170 HD
ENDBRANCH  24  27
ENDBRANCH   1  21
TORSDOF 7
ENDMDL
MODEL 7
REMARK VINA RESULT:    -8.325      5.023      8.008
REMARK INTER + INTRA:         -12.956
REMARK INTER:                 -10.413
REMARK INTRA:                  -2.544
REMARK CONF_INDEPENDENT:        2.088
REMARK UNBOUND:                -2.544
REMARK  7 active torsions:
REMARK  status: ('A' for Active; 'I' for Inactive)
REMARK       I    between atoms: N_1  and  C_2 
REMARK       I    between atoms: C_2  and  N_4 
REMARK    1  A    between atoms: N_4  and  C_5 
REMARK    2  A    between atoms: C_8  and  N_9 
REMARK       I    between atoms: N_9  and  C_10 
REMARK    3  A    between atoms: C_10  and  C_12 
REMARK    4  A    between atoms: C_17  and  C_18 
REMARK    5  A    between atoms: C_18  and  O_19 
REMARK    6  A    between atoms: O_19  and  C_20 
REMARK    7  A    between atoms: C_24  and  C_25 
ROOT
ATOM      1  N   UNL d   1      25.601 -16.023  -1.377  0.00  0.00    -0.323 N 
ATOM      2  C   UNL d   1      26.963 -16.325  -1.285  0.00  0.00     0.256 C 
ATOM      3  O   UNL d   1      27.452 -17.419  -0.994  0.00  0.00    -0.267 OA
ATOM      4  H   UNL d   1      25.371 -15.043  -1.476  0.00  0.00     0.169 HD
ENDROOT
BRANCH   2   5
ATOM      5  C   UNL d   1      27.972 -15.251  -1.554  0.00  0.00     0.040 A 
ATOM      6  C   UNL d   1      27.829 -14.101  -0.749  0.00  0.00     0.017 A 
ATOM      7  C   UNL d   1      28.556 -12.937  -1.004  0.00  0.00     0.001 A 
ATOM      8  C   UNL d   1      29.487 -12.921  -2.032  0.00  0.00     0.001 A 
ATOM      9  C   UNL d   1      29.642 -14.046  -2.841  0.00  0.00     0.010 A 
ATOM     10  C   UNL d   1      28.875 -15.217  -2.640  0.00  0.00    -0.018 A 
BRANCH  10  11
ATOM     11  C   UNL d   1      29.094 -16.328  -3.644  0.00  0.00     0.215 C 
BRANCH  11  12
ATOM     12  O   UNL d   1      28.481 -16.004  -4.868  0.00  0.00    -0.347 OA
BRANCH  12  13
ATOM     13  C   UNL d   1      27.599 -14.980  -4.953  0.00  0.00     0.070 A 
ATOM     14  C   UNL d   1      28.117 -13.864  -5.616  0.00  0.00     0.037 A 
ATOM     15  C   UNL d   1      27.389 -12.684  -5.700  0.00  0.00     0.004 A 
ATOM     16  C   UNL d   1      26.096 -12.644  -5.189  0.00  0.00     0.014 A 
ATOM     17  C   UNL d   1      25.598 -13.753  -4.494  0.00  0.00     0.004 A 
ATOM     18  C   UNL d   1      26.362 -14.912  -4.336  0.00  0.00     0.051 A 
BRANCH  17  19
ATOM     19  C   UNL d   1      24.253 -13.699  -3.897  0.00  0.00     0.270 C 
ATOM     20  O   UNL d   1      23.925 -14.449  -2.983  0.00  0.00    -0.301 OA
ENDBRANCH  17  19
ENDBRANCH  12  13
ENDBRANCH  11  12
ENDBRANCH  10  11
ENDBRANCH   2   5
BRANCH   1  21
ATOM     21  C   UNL d   1      24.542 -16.858  -0.894  0.00  0.00     0.035 A 
ATOM     22  C   UNL d   1      24.771 -18.211  -0.569  0.00  0.00     0.032 A 
ATOM     23  C   UNL d   1      23.694 -19.076  -0.243  0.00  0.00     0.032 A 
ATOM     24  C   UNL d   1      22.387 -18.585  -0.201  0.00  0.00     0.036 A 
ATOM     25  C   UNL d   1      22.171 -17.252  -0.525  0.00  0.00     0.032 A 
ATOM     26  C   UNL d   1      23.227 -16.409  -0.858  0.00  0.00     0.032 A 
BRANCH  24  27
ATOM     27  N   UNL d   1      21.304 -19.387   0.224  0.00  0.00    -0.309 N 
ATOM     28  C   UNL d   1      20.302 -19.809  -0.610  0.00  0.00     0.318 C 
ATOM     29  N   UNL d   1      19.282 -20.455  -0.000  0.00  0.00    -0.352 N 
ATOM     30  O   UNL d   1      20.274 -19.697  -1.839  0.00  0.00    -0.247 OA
ATOM     31  H   UNL d   1      18.540 -20.768  -0.615  0.00  0.00     0.160 HD
ATOM     32  H   UNL d   1      19.156 -20.541   0.994  0.00  0.00     0.160 HD
ATOM     33  H   UNL d   1      21.290 -19.686   1.187  0.00  0.00     0.170 HD
ENDBRANCH  24  27
ENDBRANCH   1  21
TORSDOF 7
ENDMDL
MODEL 8
REMARK VINA RESULT:    -8.251      4.308      7.949
REMARK INTER + INTRA:         -12.684
REMARK INTER:                 -10.339
REMARK INTRA:                  -2.346
REMARK CONF_INDEPENDENT:        2.088
REMARK UNBOUND:                -2.346
REMARK  7 active torsions:
REMARK  status: ('A' for Active; 'I' for Inactive)
REMARK       I    between atoms: N_1  and  C_2 
REMARK       I    between atoms: C_2  and  N_4 
REMARK    1  A    between atoms: N_4  and  C_5 
REMARK    2  A    between atoms: C_8  and  N_9 
REMARK       I    between atoms: N_9  and  C_10 
REMARK    3  A    between atoms: C_10  and  C_12 
REMARK    4  A    between atoms: C_17  and  C_18 
REMARK    5  A    between atoms: C_18  and  O_19 
REMARK    6  A    between atoms: O_19  and  C_20 
REMARK    7  A    between atoms: C_24  and  C_25 
ROOT
ATOM      1  N   UNL d   1      26.132 -16.933  -0.876  0.00  0.00    -0.323 N 
ATOM      2  C   UNL d   1      27.320 -17.465  -0.363  0.00  0.00     0.256 C 
ATOM      3  O   UNL d   1      27.444 -18.539   0.230  0.00  0.00    -0.267 OA
ATOM      4  H   UNL d   1      26.180 -15.975  -1.197  0.00  0.00     0.169 HD
ENDROOT
BRANCH   2   5
ATOM      5  C   UNL d   1      28.596 -16.697  -0.522  0.00  0.00     0.040 A 
ATOM      6  C   UNL d   1      29.620 -17.401  -1.193  0.00  0.00     0.017 A 
ATOM      7  C   UNL d   1      30.925 -16.910  -1.250  0.00  0.00     0.001 A 
ATOM      8  C   UNL d   1      31.218 -15.674  -0.692  0.00  0.00     0.001 A 
ATOM      9  C   UNL d   1      30.222 -14.964  -0.022  0.00  0.00     0.010 A 
ATOM     10  C   UNL d   1      28.905 -15.469   0.101  0.00  0.00    -0.018 A 
BRANCH  10  11
ATOM     11  C   UNL d   1      27.953 -14.627   0.922  0.00  0.00     0.215 C 
BRANCH  11  12
ATOM     12  O   UNL d   1      26.742 -14.449   0.229  0.00  0.00    -0.347 OA
BRANCH  12  13
ATOM     13  C   UNL d   1      26.694 -13.713  -0.907  0.00  0.00     0.070 A 
ATOM     14  C   UNL d   1      27.402 -12.511  -0.812  0.00  0.00     0.037 A 
ATOM     15  C   UNL d   1      27.371 -11.583  -1.845  0.00  0.00     0.004 A 
ATOM     16  C   UNL d   1      26.694 -11.894  -3.019  0.00  0.00     0.014 A 
ATOM     17  C   UNL d   1      25.958 -13.083  -3.094  0.00  0.00     0.004 A 
ATOM     18  C   UNL d   1      25.920 -13.979  -2.023  0.00  0.00     0.051 A 
BRANCH  17  19
ATOM     19  C   UNL d   1      25.189 -13.393  -4.311  0.00  0.00     0.270 C 
ATOM     20  O   UNL d   1      24.170 -14.075  -4.270  0.00  0.00    -0.301 OA
ENDBRANCH  17  19
ENDBRANCH  12  13
ENDBRANCH  11  12
ENDBRANCH  10  11
ENDBRANCH   2   5
BRANCH   1  21
ATOM     21  C   UNL d   1      24.818 -17.416  -0.569  0.00  0.00     0.035 A 
ATOM     22  C   UNL d   1      24.589 -18.780  -0.292  0.00  0.00     0.032 A 
ATOM     23  C   UNL d   1      23.269 -19.282  -0.145  0.00  0.00     0.032 A 
ATOM     24  C   UNL d   1      22.175 -18.418  -0.232  0.00  0.00     0.036 A 
ATOM     25  C   UNL d   1      22.411 -17.078  -0.507  0.00  0.00     0.032 A 
ATOM     26  C   UNL d   1      23.705 -16.589  -0.665  0.00  0.00     0.032 A 
BRANCH  24  27
ATOM     27  N   UNL d   1      20.857 -18.861   0.016  0.00  0.00    -0.309 N 
ATOM     28  C   UNL d   1      20.041 -19.390  -0.950  0.00  0.00     0.318 C 
ATOM     29  N   UNL d   1      18.771 -19.634  -0.558  0.00  0.00    -0.352 N 
ATOM     30  O   UNL d   1      20.370 -19.700  -2.099  0.00  0.00    -0.247 OA
ATOM     31  H   UNL d   1      18.166 -20.026  -1.270  0.00  0.00     0.160 HD
ATOM     32  H   UNL d   1      18.367 -19.358   0.321  0.00  0.00     0.160 HD
ATOM     33  H   UNL d   1      20.513 -18.809   0.963  0.00  0.00     0.170 HD
ENDBRANCH  24  27
ENDBRANCH   1  21
TORSDOF 7
ENDMDL
MODEL 9
REMARK VINA RESULT:    -8.114      4.328      8.036
REMARK INTER + INTRA:         -12.606
REMARK INTER:                 -10.202
REMARK INTRA:                  -2.404
REMARK CONF_INDEPENDENT:        2.088
REMARK UNBOUND:                -2.404
REMARK  7 active torsions:
REMARK  status: ('A' for Active; 'I' for Inactive)
REMARK       I    between atoms: N_1  and  C_2 
REMARK       I    between atoms: C_2  and  N_4 
REMARK    1  A    between atoms: N_4  and  C_5 
REMARK    2  A    between atoms: C_8  and  N_9 
REMARK       I    between atoms: N_9  and  C_10 
REMARK    3  A    between atoms: C_10  and  C_12 
REMARK    4  A    between atoms: C_17  and  C_18 
REMARK    5  A    between atoms: C_18  and  O_19 
REMARK    6  A    between atoms: O_19  and  C_20 
REMARK    7  A    between atoms: C_24  and  C_25 
ROOT
ATOM      1  N   UNL d   1      25.568 -16.628  -0.656  0.00  0.00    -0.323 N 
ATOM      2  C   UNL d   1      26.592 -17.031   0.206  0.00  0.00     0.256 C 
ATOM      3  O   UNL d   1      26.592 -18.035   0.922  0.00  0.00    -0.267 OA
ATOM      4  H   UNL d   1      25.664 -15.703  -1.054  0.00  0.00     0.169 HD
ENDROOT
BRANCH   2   5
ATOM      5  C   UNL d   1      27.833 -16.200   0.309  0.00  0.00     0.040 A 
ATOM      6  C   UNL d   1      27.763 -15.165   1.267  0.00  0.00     0.017 A 
ATOM      7  C   UNL d   1      28.751 -14.182   1.351  0.00  0.00     0.001 A 
ATOM      8  C   UNL d   1      29.861 -14.250   0.521  0.00  0.00     0.001 A 
ATOM      9  C   UNL d   1      29.947 -15.263  -0.434  0.00  0.00     0.010 A 
ATOM     10  C   UNL d   1      28.931 -16.237  -0.579  0.00  0.00    -0.018 A 
BRANCH  10  11
ATOM     11  C   UNL d   1      29.123 -17.225  -1.708  0.00  0.00     0.215 C 
BRANCH  11  12
ATOM     12  O   UNL d   1      29.474 -16.549  -2.891  0.00  0.00    -0.347 OA
BRANCH  12  13
ATOM     13  C   UNL d   1      28.540 -15.888  -3.615  0.00  0.00     0.070 A 
ATOM     14  C   UNL d   1      28.957 -15.604  -4.919  0.00  0.00     0.037 A 
ATOM     15  C   UNL d   1      28.169 -14.837  -5.768  0.00  0.00     0.004 A 
ATOM     16  C   UNL d   1      26.915 -14.418  -5.338  0.00  0.00     0.014 A 
ATOM     17  C   UNL d   1      26.519 -14.674  -4.020  0.00  0.00     0.004 A 
ATOM     18  C   UNL d   1      27.346 -15.374  -3.138  0.00  0.00     0.051 A 
BRANCH  17  19
ATOM     19  C   UNL d   1      25.217 -14.183  -3.537  0.00  0.00     0.270 C 
ATOM     20  O   UNL d   1      24.541 -14.829  -2.744  0.00  0.00    -0.301 OA
ENDBRANCH  17  19
ENDBRANCH  12  13
ENDBRANCH  11  12
ENDBRANCH  10  11
ENDBRANCH   2   5
BRANCH   1  21
ATOM     21  C   UNL d   1      24.239 -17.164  -0.659  0.00  0.00     0.035 A 
ATOM     22  C   UNL d   1      24.015 -18.556  -0.708  0.00  0.00     0.032 A 
ATOM     23  C   UNL d   1      22.705 -19.078  -0.870  0.00  0.00     0.032 A 
ATOM     24  C   UNL d   1      21.608 -18.216  -0.941  0.00  0.00     0.036 A 
ATOM     25  C   UNL d   1      21.840 -16.848  -0.894  0.00  0.00     0.032 A 
ATOM     26  C   UNL d   1      23.126 -16.337  -0.750  0.00  0.00     0.032 A 
BRANCH  24  27
ATOM     27  N   UNL d   1      20.283 -18.701  -0.993  0.00  0.00    -0.309 N 
ATOM     28  C   UNL d   1      19.811 -19.703  -0.185  0.00  0.00     0.318 C 
ATOM     29  N   UNL d   1      18.558 -20.125  -0.468  0.00  0.00    -0.352 N 
ATOM     30  O   UNL d   1      20.395 -20.203   0.780  0.00  0.00    -0.247 OA
ATOM     31  H   UNL d   1      18.207 -20.865   0.128  0.00  0.00     0.160 HD
ATOM     32  H   UNL d   1      18.015 -19.850  -1.268  0.00  0.00     0.160 HD
ATOM     33  H   UNL d   1      19.646 -18.262  -1.640  0.00  0.00     0.170 HD
ENDBRANCH  24  27
ENDBRANCH   1  21
TORSDOF 7
ENDMDL
