MODEL 1
REMARK VINA RESULT:   -11.790      0.000      0.000
REMARK INTER + INTRA:         -15.821
REMARK INTER:                 -13.281
REMARK INTRA:                  -2.540
REMARK CONF_INDEPENDENT:        1.492
REMARK UNBOUND:                -2.540
REMARK  5 active torsions:
REMARK  status: ('A' for Active; 'I' for Inactive)
REMARK       I    between atoms: C_2  and  N_3 
REMARK       I    between atoms: C_2  and  N_11 
REMARK    1  A    between atoms: N_3  and  C_4 
REMARK    2  A    between atoms: N_11  and  C_12 
REMARK    3  A    between atoms: C_14  and  N_15 
REMARK       I    between atoms: N_15  and  C_16 
REMARK    4  A    between atoms: C_16  and  C_18 
REMARK    5  A    between atoms: C_26  and  N_27 
ROOT
ATOM      1  C   UNL d   1      24.613 -16.278  -1.514  0.00  0.00     0.065 C 
ATOM      2  C   UNL d   1      23.437 -17.004  -1.154  0.00  0.00     0.061 C 
ATOM      3  C   UNL d   1      23.498 -18.097  -0.262  0.00  0.00     0.037 C 
ATOM      4  C   UNL d   1      24.756 -18.505   0.167  0.00  0.00     0.032 C 
ATOM      5  C   UNL d   1      25.898 -17.778  -0.130  0.00  0.00     0.034 C 
ATOM      6  C   UNL d   1      25.857 -16.642  -0.935  0.00  0.00     0.057 C 
ENDROOT
BRANCH   1   7
ATOM      7  N   UNL d   1      24.452 -15.162  -2.393  0.00  0.00    -0.306 N 
ATOM      8  C   UNL d   1      25.337 -14.606  -3.303  0.00  0.00     0.325 C 
ATOM      9  O   UNL d   1      25.227 -13.427  -3.626  0.00  0.00    -0.247 OA
ATOM     10  N   UNL d   1      26.222 -15.483  -3.862  0.00  0.00    -0.309 N 
ATOM     11  H   UNL d   1      26.082 -16.438  -3.569  0.00  0.00     0.170 HD
ATOM     12  H   UNL d   1      23.695 -14.529  -2.161  0.00  0.00     0.170 HD
BRANCH  10  13
ATOM     13  C   UNL d   1      27.329 -15.200  -4.694  0.00  0.00     0.036 C 
ATOM     14  C   UNL d   1      28.528 -15.928  -4.661  0.00  0.00     0.031 C 
ATOM     15  C   UNL d   1      29.591 -15.579  -5.498  0.00  0.00     0.026 C 
ATOM     16  C   UNL d   1      29.460 -14.484  -6.345  0.00  0.00     0.034 C 
ATOM     17 CL   UNL d   1      30.833 -13.882  -7.186  0.00  0.00    -0.084 Cl
ATOM     18  C   UNL d   1      28.227 -13.851  -6.487  0.00  0.00     0.026 C 
ATOM     19  C   UNL d   1      27.145 -14.254  -5.705  0.00  0.00     0.031 C 
ENDBRANCH  10  13
ENDBRANCH   1   7
BRANCH   6  20
ATOM     20  N   UNL d   1      27.064 -15.930  -0.993  0.00  0.00    -0.379 N 
ATOM     21  C   UNL d   1      27.074 -14.671  -0.257  0.00  0.00     0.123 C 
ATOM     22  C   UNL d   1      27.512 -13.448  -1.010  0.00  0.00     0.020 C 
ATOM     23  C   UNL d   1      29.024 -13.444  -1.221  0.00  0.00     0.002 C 
ATOM     24  C   UNL d   1      29.558 -14.699  -1.915  0.00  0.00     0.002 C 
ATOM     25  C   UNL d   1      29.567 -15.953  -1.045  0.00  0.00     0.020 C 
ATOM     26  C   UNL d   1      28.272 -16.748  -1.117  0.00  0.00     0.123 C 
ENDBRANCH   6  20
BRANCH   3  27
ATOM     27  N   UNL d   1      22.322 -18.745   0.232  0.00  0.00    -0.323 N 
ATOM     28  C   UNL d   1      21.050 -18.593  -0.327  0.00  0.00     0.256 C 
ATOM     29  O   UNL d   1      20.738 -17.854  -1.270  0.00  0.00    -0.267 OA
ATOM     30  H   UNL d   1      22.447 -19.471   0.929  0.00  0.00     0.169 HD
BRANCH  28  31
ATOM     31  C   UNL d   1      19.921 -19.368   0.224  0.00  0.00     0.032 A 
ATOM     32  C   UNL d   1      19.947 -19.705   1.591  0.00  0.00     0.017 A 
ATOM     33  C   UNL d   1      19.040 -20.630   2.107  0.00  0.00     0.001 A 
ATOM     34  C   UNL d   1      18.065 -21.171   1.273  0.00  0.00     0.000 A 
ATOM     35  C   UNL d   1      18.029 -20.829  -0.082  0.00  0.00     0.001 A 
ATOM     36  C   UNL d   1      18.963 -19.936  -0.615  0.00  0.00     0.017 A 
ENDBRANCH  28  31
ENDBRANCH   3  27
TORSDOF 5
ENDMDL
MODEL 2
REMARK VINA RESULT:   -11.468      2.252      2.831
REMARK INTER + INTRA:         -15.248
REMARK INTER:                 -12.959
REMARK INTRA:                  -2.289
REMARK CONF_INDEPENDENT:        1.492
REMARK UNBOUND:                -2.289
REMARK  5 active torsions:
REMARK  status: ('A' for Active; 'I' for Inactive)
REMARK       I    between atoms: C_2  and  N_3 
REMARK       I    between atoms: C_2  and  N_11 
REMARK    1  A    between atoms: N_3  and  C_4 
REMARK    2  A    between atoms: N_11  and  C_12 
REMARK    3  A    between atoms: C_14  and  N_15 
REMARK       I    between atoms: N_15  and  C_16 
REMARK    4  A    between atoms: C_16  and  C_18 
REMARK    5  A    between atoms: C_26  and  N_27 
ROOT
ATOM      1  C   UNL d   1      25.414 -16.937  -1.861  0.00  0.00     0.065 C 
ATOM      2  C   UNL d   1      24.166 -17.483  -1.431  0.00  0.00     0.061 C 
ATOM      3  C   UNL d   1      24.028 -18.074  -0.156  0.00  0.00     0.037 C 
ATOM      4  C   UNL d   1      25.175 -18.200   0.620  0.00  0.00     0.032 C 
ATOM      5  C   UNL d   1      26.379 -17.627   0.239  0.00  0.00     0.034 C 
ATOM      6  C   UNL d   1      26.523 -16.959  -0.975  0.00  0.00     0.057 C 
ENDROOT
BRANCH   1   7
ATOM      7  N   UNL d   1      25.452 -16.324  -3.152  0.00  0.00    -0.306 N 
ATOM      8  C   UNL d   1      25.530 -14.987  -3.505  0.00  0.00     0.325 C 
ATOM      9  O   UNL d   1      25.103 -14.611  -4.593  0.00  0.00    -0.247 OA
ATOM     10  N   UNL d   1      26.200 -14.191  -2.620  0.00  0.00    -0.309 N 
ATOM     11  H   UNL d   1      26.592 -14.698  -1.840  0.00  0.00     0.170 HD
ATOM     12  H   UNL d   1      25.133 -16.903  -3.920  0.00  0.00     0.170 HD
BRANCH  10  13
ATOM     13  C   UNL d   1      26.314 -12.783  -2.620  0.00  0.00     0.036 C 
ATOM     14  C   UNL d   1      27.264 -12.083  -1.861  0.00  0.00     0.031 C 
ATOM     15  C   UNL d   1      27.307 -10.686  -1.894  0.00  0.00     0.026 C 
ATOM     16  C   UNL d   1      26.378  -9.994  -2.663  0.00  0.00     0.034 C 
ATOM     17 CL   UNL d   1      26.245  -8.287  -2.515  0.00  0.00    -0.084 Cl
ATOM     18  C   UNL d   1      25.531 -10.684  -3.528  0.00  0.00     0.026 C 
ATOM     19  C   UNL d   1      25.546 -12.079  -3.550  0.00  0.00     0.031 C 
ENDBRANCH  10  13
ENDBRANCH   1   7
BRANCH   6  20
ATOM     20  N   UNL d   1      27.747 -16.293  -1.127  0.00  0.00    -0.379 N 
ATOM     21  C   UNL d   1      28.398 -15.904   0.119  0.00  0.00     0.123 C 
ATOM     22  C   UNL d   1      28.810 -14.467   0.251  0.00  0.00     0.020 C 
ATOM     23  C   UNL d   1      30.046 -14.170  -0.595  0.00  0.00     0.002 C 
ATOM     24  C   UNL d   1      29.888 -14.531  -2.074  0.00  0.00     0.002 C 
ATOM     25  C   UNL d   1      29.905 -16.028  -2.369  0.00  0.00     0.020 C 
ATOM     26  C   UNL d   1      28.528 -16.672  -2.307  0.00  0.00     0.123 C 
ENDBRANCH   6  20
BRANCH   3  27
ATOM     27  N   UNL d   1      22.759 -18.491   0.358  0.00  0.00    -0.323 N 
ATOM     28  C   UNL d   1      21.715 -18.976  -0.432  0.00  0.00     0.256 C 
ATOM     29  O   UNL d   1      21.698 -19.066  -1.667  0.00  0.00    -0.267 OA
ATOM     30  H   UNL d   1      22.671 -18.582   1.365  0.00  0.00     0.169 HD
BRANCH  28  31
ATOM     31  C   UNL d   1      20.474 -19.445   0.217  0.00  0.00     0.032 A 
ATOM     32  C   UNL d   1      20.414 -19.439   1.624  0.00  0.00     0.017 A 
ATOM     33  C   UNL d   1      19.374 -20.088   2.288  0.00  0.00     0.001 A 
ATOM     34  C   UNL d   1      18.359 -20.689   1.548  0.00  0.00     0.000 A 
ATOM     35  C   UNL d   1      18.410 -20.686   0.151  0.00  0.00     0.001 A 
ATOM     36  C   UNL d   1      19.472 -20.075  -0.520  0.00  0.00     0.017 A 
ENDBRANCH  28  31
ENDBRANCH   3  27
TORSDOF 5
ENDMDL
MODEL 3
REMARK VINA RESULT:   -11.131      2.869      4.861
REMARK INTER + INTRA:         -14.497
REMARK INTER:                 -12.622
REMARK INTRA:                  -1.874
REMARK CONF_INDEPENDENT:        1.492
REMARK UNBOUND:                -1.874
REMARK  5 active torsions:
REMARK  status: ('A' for Active; 'I' for Inactive)
REMARK       I    between atoms: C_2  and  N_3 
REMARK       I    between atoms: C_2  and  N_11 
REMARK    1  A    between atoms: N_3  and  C_4 
REMARK    2  A    between atoms: N_11  and  C_12 
REMARK    3  A    between atoms: C_14  and  N_15 
REMARK       I    between atoms: N_15  and  C_16 
REMARK    4  A    between atoms: C_16  and  C_18 
REMARK    5  A    between atoms: C_26  and  N_27 
ROOT
ATOM      1  C   UNL d   1      25.754 -17.120  -0.660  0.00  0.00     0.065 C 
ATOM      2  C   UNL d   1      24.760 -17.925  -0.026  0.00  0.00     0.061 C 
ATOM      3  C   UNL d   1      23.383 -17.681  -0.228  0.00  0.00     0.037 C 
ATOM      4  C   UNL d   1      23.035 -16.564  -0.980  0.00  0.00     0.032 C 
ATOM      5  C   UNL d   1      23.986 -15.807  -1.645  0.00  0.00     0.034 C 
ATOM      6  C   UNL d   1      25.349 -16.079  -1.536  0.00  0.00     0.057 C 
ENDROOT
BRANCH   1   7
ATOM      7  N   UNL d   1      27.122 -17.463  -0.429  0.00  0.00    -0.306 N 
ATOM      8  C   UNL d   1      28.146 -16.722   0.139  0.00  0.00     0.325 C 
ATOM      9  O   UNL d   1      29.315 -16.969  -0.145  0.00  0.00    -0.247 OA
ATOM     10  N   UNL d   1      27.754 -15.819   1.085  0.00  0.00    -0.309 N 
ATOM     11  H   UNL d   1      26.763 -15.843   1.278  0.00  0.00     0.170 HD
ATOM     12  H   UNL d   1      27.472 -18.249  -0.965  0.00  0.00     0.170 HD
BRANCH  10  13
ATOM     13  C   UNL d   1      28.529 -14.825   1.723  0.00  0.00     0.036 C 
ATOM     14  C   UNL d   1      29.726 -14.319   1.196  0.00  0.00     0.031 C 
ATOM     15  C   UNL d   1      30.454 -13.350   1.893  0.00  0.00     0.026 C 
ATOM     16  C   UNL d   1      29.994 -12.913   3.131  0.00  0.00     0.034 C 
ATOM     17 CL   UNL d   1      30.997 -11.926   4.117  0.00  0.00    -0.084 Cl
ATOM     18  C   UNL d   1      28.737 -13.302   3.589  0.00  0.00     0.026 C 
ATOM     19  C   UNL d   1      27.979 -14.211   2.851  0.00  0.00     0.031 C 
ENDBRANCH  10  13
ENDBRANCH   1   7
BRANCH   6  20
ATOM     20  N   UNL d   1      26.158 -15.333  -2.404  0.00  0.00    -0.379 N 
ATOM     21  C   UNL d   1      25.530 -14.957  -3.665  0.00  0.00     0.123 C 
ATOM     22  C   UNL d   1      26.275 -15.296  -4.923  0.00  0.00     0.020 C 
ATOM     23  C   UNL d   1      27.463 -14.359  -5.129  0.00  0.00     0.002 C 
ATOM     24  C   UNL d   1      28.433 -14.316  -3.946  0.00  0.00     0.002 C 
ATOM     25  C   UNL d   1      27.910 -13.573  -2.720  0.00  0.00     0.020 C 
ATOM     26  C   UNL d   1      27.142 -14.462  -1.756  0.00  0.00     0.123 C 
ENDBRANCH   6  20
BRANCH   3  27
ATOM     27  N   UNL d   1      22.371 -18.560   0.270  0.00  0.00    -0.323 N 
ATOM     28  C   UNL d   1      21.084 -18.656  -0.264  0.00  0.00     0.256 C 
ATOM     29  O   UNL d   1      20.611 -17.979  -1.186  0.00  0.00    -0.267 OA
ATOM     30  H   UNL d   1      22.653 -19.258   0.950  0.00  0.00     0.169 HD
BRANCH  28  31
ATOM     31  C   UNL d   1      20.144 -19.652   0.289  0.00  0.00     0.032 A 
ATOM     32  C   UNL d   1      19.073 -20.079  -0.520  0.00  0.00     0.017 A 
ATOM     33  C   UNL d   1      18.030 -20.825   0.028  0.00  0.00     0.001 A 
ATOM     34  C   UNL d   1      18.086 -21.200   1.367  0.00  0.00     0.000 A 
ATOM     35  C   UNL d   1      19.154 -20.787   2.169  0.00  0.00     0.001 A 
ATOM     36  C   UNL d   1      20.180 -20.002   1.638  0.00  0.00     0.017 A 
ENDBRANCH  28  31
ENDBRANCH   3  27
TORSDOF 5
ENDMDL
MODEL 4
REMARK VINA RESULT:   -11.087      4.953      8.641
REMARK INTER + INTRA:         -14.551
REMARK INTER:                 -12.579
REMARK INTRA:                  -1.972
REMARK CONF_INDEPENDENT:        1.492
REMARK UNBOUND:                -1.972
REMARK  5 active torsions:
REMARK  status: ('A' for Active; 'I' for Inactive)
REMARK       I    between atoms: C_2  and  N_3 
REMARK       I    between atoms: C_2  and  N_11 
REMARK    1  A    between atoms: N_3  and  C_4 
REMARK    2  A    between atoms: N_11  and  C_12 
REMARK    3  A    between atoms: C_14  and  N_15 
REMARK       I    between atoms: N_15  and  C_16 
REMARK    4  A    between atoms: C_16  and  C_18 
REMARK    5  A    between atoms: C_26  and  N_27 
ROOT
ATOM      1  C   UNL d   1      27.855 -15.304   0.622  0.00  0.00     0.065 C 
ATOM      2  C   UNL d   1      28.117 -14.881   1.960  0.00  0.00     0.061 C 
ATOM      3  C   UNL d   1      28.186 -13.510   2.293  0.00  0.00     0.037 C 
ATOM      4  C   UNL d   1      28.097 -12.592   1.251  0.00  0.00     0.032 C 
ATOM      5  C   UNL d   1      27.788 -12.986  -0.041  0.00  0.00     0.034 C 
ATOM      6  C   UNL d   1      27.626 -14.327  -0.382  0.00  0.00     0.057 C 
ENDROOT
BRANCH   1   7
ATOM      7  N   UNL d   1      27.764 -16.710   0.384  0.00  0.00    -0.306 N 
ATOM      8  C   UNL d   1      26.651 -17.520   0.224  0.00  0.00     0.325 C 
ATOM      9  O   UNL d   1      26.720 -18.718   0.481  0.00  0.00    -0.247 OA
ATOM     10  N   UNL d   1      25.564 -16.909  -0.333  0.00  0.00    -0.309 N 
ATOM     11  H   UNL d   1      25.733 -15.949  -0.597  0.00  0.00     0.170 HD
ATOM     12  H   UNL d   1      28.596 -17.245   0.605  0.00  0.00     0.170 HD
BRANCH  10  13
ATOM     13  C   UNL d   1      24.254 -17.416  -0.481  0.00  0.00     0.036 C 
ATOM     14  C   UNL d   1      23.143 -16.614  -0.783  0.00  0.00     0.031 C 
ATOM     15  C   UNL d   1      21.870 -17.181  -0.895  0.00  0.00     0.026 C 
ATOM     16  C   UNL d   1      21.710 -18.545  -0.675  0.00  0.00     0.034 C 
ATOM     17 CL   UNL d   1      20.132 -19.214  -0.550  0.00  0.00    -0.084 Cl
ATOM     18  C   UNL d   1      22.826 -19.366  -0.520  0.00  0.00     0.026 C 
ATOM     19  C   UNL d   1      24.102 -18.804  -0.487  0.00  0.00     0.031 C 
ENDBRANCH  10  13
ENDBRANCH   1   7
BRANCH   6  20
ATOM     20  N   UNL d   1      27.149 -14.539  -1.683  0.00  0.00    -0.379 N 
ATOM     21  C   UNL d   1      27.768 -15.652  -2.395  0.00  0.00     0.123 C 
ATOM     22  C   UNL d   1      28.329 -15.360  -3.756  0.00  0.00     0.020 C 
ATOM     23  C   UNL d   1      27.215 -15.200  -4.787  0.00  0.00     0.002 C 
ATOM     24  C   UNL d   1      26.173 -14.142  -4.418  0.00  0.00     0.002 C 
ATOM     25  C   UNL d   1      25.228 -14.546  -3.289  0.00  0.00     0.020 C 
ATOM     26  C   UNL d   1      25.746 -14.181  -1.907  0.00  0.00     0.123 C 
ENDBRANCH   6  20
BRANCH   3  27
ATOM     27  N   UNL d   1      28.296 -13.057   3.646  0.00  0.00    -0.323 N 
ATOM     28  C   UNL d   1      28.112 -13.876   4.763  0.00  0.00     0.256 C 
ATOM     29  O   UNL d   1      27.780 -15.069   4.763  0.00  0.00    -0.267 OA
ATOM     30  H   UNL d   1      28.677 -12.129   3.798  0.00  0.00     0.169 HD
BRANCH  28  31
ATOM     31  C   UNL d   1      28.321 -13.315   6.112  0.00  0.00     0.032 A 
ATOM     32  C   UNL d   1      28.119 -11.933   6.300  0.00  0.00     0.017 A 
ATOM     33  C   UNL d   1      28.530 -11.314   7.479  0.00  0.00     0.001 A 
ATOM     34  C   UNL d   1      29.085 -12.083   8.499  0.00  0.00     0.000 A 
ATOM     35  C   UNL d   1      29.276 -13.456   8.321  0.00  0.00     0.001 A 
ATOM     36  C   UNL d   1      28.907 -14.076   7.124  0.00  0.00     0.017 A 
ENDBRANCH  28  31
ENDBRANCH   3  27
TORSDOF 5
ENDMDL
MODEL 5
REMARK VINA RESULT:   -11.026      5.009      8.616
REMARK INTER + INTRA:         -14.711
REMARK INTER:                 -12.517
REMARK INTRA:                  -2.194
REMARK CONF_INDEPENDENT:        1.492
REMARK UNBOUND:                -2.194
REMARK  5 active torsions:
REMARK  status: ('A' for Active; 'I' for Inactive)
REMARK       I    between atoms: C_2  and  N_3 
REMARK       I    between atoms: C_2  and  N_11 
REMARK    1  A    between atoms: N_3  and  C_4 
REMARK    2  A    between atoms: N_11  and  C_12 
REMARK    3  A    between atoms: C_14  and  N_15 
REMARK       I    between atoms: N_15  and  C_16 
REMARK    4  A    between atoms: C_16  and  C_18 
REMARK    5  A    between atoms: C_26  and  N_27 
ROOT
ATOM      1  C   UNL d   1      27.896 -15.228   0.713  0.00  0.00     0.065 C 
ATOM      2  C   UNL d   1      28.164 -14.825   2.056  0.00  0.00     0.061 C 
ATOM      3  C   UNL d   1      28.216 -13.459   2.414  0.00  0.00     0.037 C 
ATOM      4  C   UNL d   1      28.104 -12.525   1.390  0.00  0.00     0.032 C 
ATOM      5  C   UNL d   1      27.790 -12.899   0.093  0.00  0.00     0.034 C 
ATOM      6  C   UNL d   1      27.643 -14.236  -0.271  0.00  0.00     0.057 C 
ENDROOT
BRANCH   1   7
ATOM      7  N   UNL d   1      27.823 -16.631   0.450  0.00  0.00    -0.306 N 
ATOM      8  C   UNL d   1      26.721 -17.450   0.265  0.00  0.00     0.325 C 
ATOM      9  O   UNL d   1      26.800 -18.651   0.503  0.00  0.00    -0.247 OA
ATOM     10  N   UNL d   1      25.633 -16.840  -0.292  0.00  0.00    -0.309 N 
ATOM     11  H   UNL d   1      25.793 -15.875  -0.538  0.00  0.00     0.170 HD
ATOM     12  H   UNL d   1      28.659 -17.160   0.670  0.00  0.00     0.170 HD
BRANCH  10  13
ATOM     13  C   UNL d   1      24.329 -17.359  -0.461  0.00  0.00     0.036 C 
ATOM     14  C   UNL d   1      23.213 -16.565  -0.761  0.00  0.00     0.031 C 
ATOM     15  C   UNL d   1      21.947 -17.144  -0.895  0.00  0.00     0.026 C 
ATOM     16  C   UNL d   1      21.801 -18.513  -0.699  0.00  0.00     0.034 C 
ATOM     17 CL   UNL d   1      20.229 -19.201  -0.601  0.00  0.00    -0.084 Cl
ATOM     18  C   UNL d   1      22.923 -19.324  -0.547  0.00  0.00     0.026 C 
ATOM     19  C   UNL d   1      24.193 -18.749  -0.492  0.00  0.00     0.031 C 
ENDBRANCH  10  13
ENDBRANCH   1   7
BRANCH   6  20
ATOM     20  N   UNL d   1      27.158 -14.431  -1.572  0.00  0.00    -0.379 N 
ATOM     21  C   UNL d   1      26.533 -13.262  -2.180  0.00  0.00     0.123 C 
ATOM     22  C   UNL d   1      25.155 -13.445  -2.746  0.00  0.00     0.020 C 
ATOM     23  C   UNL d   1      25.200 -14.221  -4.061  0.00  0.00     0.002 C 
ATOM     24  C   UNL d   1      25.905 -15.575  -3.960  0.00  0.00     0.002 C 
ATOM     25  C   UNL d   1      27.422 -15.495  -3.822  0.00  0.00     0.020 C 
ATOM     26  C   UNL d   1      27.894 -15.406  -2.379  0.00  0.00     0.123 C 
ENDBRANCH   6  20
BRANCH   3  27
ATOM     27  N   UNL d   1      28.332 -13.030   3.774  0.00  0.00    -0.323 N 
ATOM     28  C   UNL d   1      28.097 -13.853   4.878  0.00  0.00     0.256 C 
ATOM     29  O   UNL d   1      27.709 -15.029   4.858  0.00  0.00    -0.267 OA
ATOM     30  H   UNL d   1      28.755 -12.123   3.942  0.00  0.00     0.169 HD
BRANCH  28  31
ATOM     31  C   UNL d   1      28.317 -13.320   6.237  0.00  0.00     0.032 A 
ATOM     32  C   UNL d   1      28.110 -11.944   6.456  0.00  0.00     0.017 A 
ATOM     33  C   UNL d   1      28.530 -11.349   7.644  0.00  0.00     0.001 A 
ATOM     34  C   UNL d   1      29.099 -12.136   8.641  0.00  0.00     0.000 A 
ATOM     35  C   UNL d   1      29.295 -13.504   8.431  0.00  0.00     0.001 A 
ATOM     36  C   UNL d   1      28.917 -14.099   7.225  0.00  0.00     0.017 A 
ENDBRANCH  28  31
ENDBRANCH   3  27
TORSDOF 5
ENDMDL
MODEL 6
REMARK VINA RESULT:   -10.182      4.051      7.950
REMARK INTER + INTRA:         -13.342
REMARK INTER:                 -11.674
REMARK INTRA:                  -1.668
REMARK CONF_INDEPENDENT:        1.492
REMARK UNBOUND:                -1.668
REMARK  5 active torsions:
REMARK  status: ('A' for Active; 'I' for Inactive)
REMARK       I    between atoms: C_2  and  N_3 
REMARK       I    between atoms: C_2  and  N_11 
REMARK    1  A    between atoms: N_3  and  C_4 
REMARK    2  A    between atoms: N_11  and  C_12 
REMARK    3  A    between atoms: C_14  and  N_15 
REMARK       I    between atoms: N_15  and  C_16 
REMARK    4  A    between atoms: C_16  and  C_18 
REMARK    5  A    between atoms: C_26  and  N_27 
ROOT
ATOM      1  C   UNL d   1      28.072 -15.184  -1.427  0.00  0.00     0.065 C 
ATOM      2  C   UNL d   1      28.008 -14.932  -0.023  0.00  0.00     0.061 C 
ATOM      3  C   UNL d   1      29.113 -15.189   0.817  0.00  0.00     0.037 C 
ATOM      4  C   UNL d   1      30.226 -15.795   0.244  0.00  0.00     0.032 C 
ATOM      5  C   UNL d   1      30.324 -15.994  -1.124  0.00  0.00     0.034 C 
ATOM      6  C   UNL d   1      29.282 -15.667  -1.990  0.00  0.00     0.057 C 
ENDROOT
BRANCH   1   7
ATOM      7  N   UNL d   1      26.919 -14.857  -2.206  0.00  0.00    -0.306 N 
ATOM      8  C   UNL d   1      25.689 -15.490  -2.291  0.00  0.00     0.325 C 
ATOM      9  O   UNL d   1      25.003 -15.369  -3.302  0.00  0.00    -0.247 OA
ATOM     10  N   UNL d   1      25.285 -16.130  -1.154  0.00  0.00    -0.309 N 
ATOM     11  H   UNL d   1      25.924 -16.017  -0.380  0.00  0.00     0.170 HD
ATOM     12  H   UNL d   1      27.082 -14.235  -2.988  0.00  0.00     0.170 HD
BRANCH  10  13
ATOM     13  C   UNL d   1      24.172 -16.981  -0.975  0.00  0.00     0.036 C 
ATOM     14  C   UNL d   1      24.280 -18.342  -0.655  0.00  0.00     0.031 C 
ATOM     15  C   UNL d   1      23.134 -19.130  -0.513  0.00  0.00     0.026 C 
ATOM     16  C   UNL d   1      21.884 -18.557  -0.722  0.00  0.00     0.034 C 
ATOM     17 CL   UNL d   1      20.489 -19.556  -0.810  0.00  0.00    -0.084 Cl
ATOM     18  C   UNL d   1      21.764 -17.180  -0.895  0.00  0.00     0.026 C 
ATOM     19  C   UNL d   1      22.908 -16.385  -0.958  0.00  0.00     0.031 C 
ENDBRANCH  10  13
ENDBRANCH   1   7
BRANCH   6  20
ATOM     20  N   UNL d   1      29.607 -15.769  -3.350  0.00  0.00    -0.379 N 
ATOM     21  C   UNL d   1      29.228 -14.619  -4.164  0.00  0.00     0.123 C 
ATOM     22  C   UNL d   1      28.418 -14.896  -5.397  0.00  0.00     0.020 C 
ATOM     23  C   UNL d   1      29.283 -15.507  -6.497  0.00  0.00     0.002 C 
ATOM     24  C   UNL d   1      30.030 -16.773  -6.071  0.00  0.00     0.002 C 
ATOM     25  C   UNL d   1      31.201 -16.532  -5.123  0.00  0.00     0.020 C 
ATOM     26  C   UNL d   1      30.806 -16.553  -3.655  0.00  0.00     0.123 C 
ENDBRANCH   6  20
BRANCH   3  27
ATOM     27  N   UNL d   1      29.129 -14.808   2.196  0.00  0.00    -0.323 N 
ATOM     28  C   UNL d   1      28.141 -14.031   2.805  0.00  0.00     0.256 C 
ATOM     29  O   UNL d   1      27.157 -13.518   2.257  0.00  0.00    -0.267 OA
ATOM     30  H   UNL d   1      29.816 -15.253   2.795  0.00  0.00     0.169 HD
BRANCH  28  31
ATOM     31  C   UNL d   1      28.226 -13.759   4.254  0.00  0.00     0.032 A 
ATOM     32  C   UNL d   1      28.217 -12.417   4.683  0.00  0.00     0.017 A 
ATOM     33  C   UNL d   1      28.534 -12.097   6.002  0.00  0.00     0.001 A 
ATOM     34  C   UNL d   1      28.799 -13.118   6.911  0.00  0.00     0.000 A 
ATOM     35  C   UNL d   1      28.797 -14.451   6.491  0.00  0.00     0.001 A 
ATOM     36  C   UNL d   1      28.523 -14.777   5.160  0.00  0.00     0.017 A 
ENDBRANCH  28  31
ENDBRANCH   3  27
TORSDOF 5
ENDMDL
MODEL 7
REMARK VINA RESULT:    -9.848      3.967      8.638
REMARK INTER + INTRA:         -13.114
REMARK INTER:                 -11.340
REMARK INTRA:                  -1.775
REMARK CONF_INDEPENDENT:        1.492
REMARK UNBOUND:                -1.775
REMARK  5 active torsions:
REMARK  status: ('A' for Active; 'I' for Inactive)
REMARK       I    between atoms: C_2  and  N_3 
REMARK       I    between atoms: C_2  and  N_11 
REMARK    1  A    between atoms: N_3  and  C_4 
REMARK    2  A    between atoms: N_11  and  C_12 
REMARK    3  A    between atoms: C_14  and  N_15 
REMARK       I    between atoms: N_15  and  C_16 
REMARK    4  A    between atoms: C_16  and  C_18 
REMARK    5  A    between atoms: C_26  and  N_27 
ROOT
ATOM      1  C   UNL d   1      27.596 -14.518   0.477  0.00  0.00     0.065 C 
ATOM      2  C   UNL d   1      27.409 -14.036  -0.854  0.00  0.00     0.061 C 
ATOM      3  C   UNL d   1      27.367 -12.652  -1.131  0.00  0.00     0.037 C 
ATOM      4  C   UNL d   1      27.407 -11.780  -0.048  0.00  0.00     0.032 C 
ATOM      5  C   UNL d   1      27.643 -12.231   1.242  0.00  0.00     0.034 C 
ATOM      6  C   UNL d   1      27.778 -13.587   1.533  0.00  0.00     0.057 C 
ENDROOT
BRANCH   1   7
ATOM      7  N   UNL d   1      27.664 -15.934   0.659  0.00  0.00    -0.306 N 
ATOM      8  C   UNL d   1      26.663 -16.891   0.612  0.00  0.00     0.325 C 
ATOM      9  O   UNL d   1      26.793 -17.949   1.221  0.00  0.00    -0.247 OA
ATOM     10  N   UNL d   1      25.626 -16.605  -0.229  0.00  0.00    -0.309 N 
ATOM     11  H   UNL d   1      25.750 -15.746  -0.744  0.00  0.00     0.170 HD
ATOM     12  H   UNL d   1      28.495 -16.274   1.129  0.00  0.00     0.170 HD
BRANCH  10  13
ATOM     13  C   UNL d   1      24.402 -17.296  -0.379  0.00  0.00     0.036 C 
ATOM     14  C   UNL d   1      24.256 -18.671  -0.148  0.00  0.00     0.031 C 
ATOM     15  C   UNL d   1      23.018 -19.294  -0.336  0.00  0.00     0.026 C 
ATOM     16  C   UNL d   1      21.939 -18.541  -0.784  0.00  0.00     0.034 C 
ATOM     17 CL   UNL d   1      20.489 -19.326  -1.270  0.00  0.00    -0.084 Cl
ATOM     18  C   UNL d   1      22.040 -17.154  -0.875  0.00  0.00     0.026 C 
ATOM     19  C   UNL d   1      23.258 -16.527  -0.610  0.00  0.00     0.031 C 
ENDBRANCH  10  13
ENDBRANCH   1   7
BRANCH   6  20
ATOM     20  N   UNL d   1      28.183 -13.858   2.847  0.00  0.00    -0.379 N 
ATOM     21  C   UNL d   1      29.584 -13.572   3.134  0.00  0.00     0.123 C 
ATOM     22  C   UNL d   1      30.390 -14.676   3.754  0.00  0.00     0.020 C 
ATOM     23  C   UNL d   1      30.030 -14.858   5.227  0.00  0.00     0.002 C 
ATOM     24  C   UNL d   1      28.540 -15.099   5.478  0.00  0.00     0.002 C 
ATOM     25  C   UNL d   1      27.656 -13.868   5.295  0.00  0.00     0.020 C 
ATOM     26  C   UNL d   1      27.149 -13.694   3.872  0.00  0.00     0.123 C 
ENDBRANCH   6  20
BRANCH   3  27
ATOM     27  N   UNL d   1      27.333 -12.142  -2.467  0.00  0.00    -0.323 N 
ATOM     28  C   UNL d   1      26.399 -12.530  -3.430  0.00  0.00     0.256 C 
ATOM     29  O   UNL d   1      25.517 -13.390  -3.304  0.00  0.00    -0.267 OA
ATOM     30  H   UNL d   1      27.924 -11.345  -2.678  0.00  0.00     0.169 HD
BRANCH  28  31
ATOM     31  C   UNL d   1      26.416 -11.883  -4.757  0.00  0.00     0.032 A 
ATOM     32  C   UNL d   1      27.174 -12.482  -5.782  0.00  0.00     0.017 A 
ATOM     33  C   UNL d   1      27.420 -11.795  -6.970  0.00  0.00     0.001 A 
ATOM     34  C   UNL d   1      26.857 -10.536  -7.163  0.00  0.00     0.000 A 
ATOM     35  C   UNL d   1      26.095  -9.944  -6.152  0.00  0.00     0.001 A 
ATOM     36  C   UNL d   1      25.881 -10.609  -4.941  0.00  0.00     0.017 A 
ENDBRANCH  28  31
ENDBRANCH   3  27
TORSDOF 5
ENDMDL
MODEL 8
REMARK VINA RESULT:    -9.187      3.799      8.709
REMARK INTER + INTRA:         -12.812
REMARK INTER:                 -10.678
REMARK INTRA:                  -2.134
REMARK CONF_INDEPENDENT:        1.492
REMARK UNBOUND:                -2.134
REMARK  5 active torsions:
REMARK  status: ('A' for Active; 'I' for Inactive)
REMARK       I    between atoms: C_2  and  N_3 
REMARK       I    between atoms: C_2  and  N_11 
REMARK    1  A    between atoms: N_3  and  C_4 
REMARK    2  A    between atoms: N_11  and  C_12 
REMARK    3  A    between atoms: C_14  and  N_15 
REMARK       I    between atoms: N_15  and  C_16 
REMARK    4  A    between atoms: C_16  and  C_18 
REMARK    5  A    between atoms: C_26  and  N_27 
ROOT
ATOM      1  C   UNL d   1      27.926 -14.826  -3.401  0.00  0.00     0.065 C 
ATOM      2  C   UNL d   1      28.379 -15.531  -4.558  0.00  0.00     0.061 C 
ATOM      3  C   UNL d   1      29.665 -16.114  -4.602  0.00  0.00     0.037 C 
ATOM      4  C   UNL d   1      30.510 -15.883  -3.522  0.00  0.00     0.032 C 
ATOM      5  C   UNL d   1      30.067 -15.249  -2.372  0.00  0.00     0.034 C 
ATOM      6  C   UNL d   1      28.773 -14.742  -2.265  0.00  0.00     0.057 C 
ENDROOT
BRANCH   1   7
ATOM      7  N   UNL d   1      26.597 -14.303  -3.430  0.00  0.00    -0.306 N 
ATOM      8  C   UNL d   1      25.402 -14.873  -3.019  0.00  0.00     0.325 C 
ATOM      9  O   UNL d   1      24.342 -14.504  -3.515  0.00  0.00    -0.247 OA
ATOM     10  N   UNL d   1      25.506 -15.754  -1.980  0.00  0.00    -0.309 N 
ATOM     11  H   UNL d   1      26.444 -15.839  -1.617  0.00  0.00     0.170 HD
ATOM     12  H   UNL d   1      26.450 -13.517  -4.053  0.00  0.00     0.170 HD
BRANCH  10  13
ATOM     13  C   UNL d   1      24.509 -16.600  -1.445  0.00  0.00     0.036 C 
ATOM     14  C   UNL d   1      24.769 -17.886  -0.950  0.00  0.00     0.031 C 
ATOM     15  C   UNL d   1      23.730 -18.678  -0.454  0.00  0.00     0.026 C 
ATOM     16  C   UNL d   1      22.428 -18.189  -0.483  0.00  0.00     0.034 C 
ATOM     17 CL   UNL d   1      21.112 -19.234  -0.124  0.00  0.00    -0.084 Cl
ATOM     18  C   UNL d   1      22.185 -16.863  -0.836  0.00  0.00     0.026 C 
ATOM     19  C   UNL d   1      23.238 -16.051  -1.257  0.00  0.00     0.031 C 
ENDBRANCH  10  13
ENDBRANCH   1   7
BRANCH   6  20
ATOM     20  N   UNL d   1      28.434 -14.290  -0.982  0.00  0.00    -0.379 N 
ATOM     21  C   UNL d   1      28.890 -15.138   0.113  0.00  0.00     0.123 C 
ATOM     22  C   UNL d   1      27.858 -15.567   1.115  0.00  0.00     0.020 C 
ATOM     23  C   UNL d   1      27.480 -14.414   2.043  0.00  0.00     0.002 C 
ATOM     24  C   UNL d   1      27.003 -13.158   1.311  0.00  0.00     0.002 C 
ATOM     25  C   UNL d   1      28.105 -12.378   0.600  0.00  0.00     0.020 C 
ATOM     26  C   UNL d   1      28.344 -12.836  -0.830  0.00  0.00     0.123 C 
ENDBRANCH   6  20
BRANCH   3  27
ATOM     27  N   UNL d   1      30.087 -16.950  -5.683  0.00  0.00    -0.323 N 
ATOM     28  C   UNL d   1      30.396 -18.306  -5.550  0.00  0.00     0.256 C 
ATOM     29  O   UNL d   1      30.408 -18.965  -4.502  0.00  0.00    -0.267 OA
ATOM     30  H   UNL d   1      30.010 -16.573  -6.622  0.00  0.00     0.169 HD
BRANCH  28  31
ATOM     31  C   UNL d   1      30.752 -19.088  -6.751  0.00  0.00     0.032 A 
ATOM     32  C   UNL d   1      30.969 -20.472  -6.606  0.00  0.00     0.017 A 
ATOM     33  C   UNL d   1      31.537 -21.208  -7.645  0.00  0.00     0.001 A 
ATOM     34  C   UNL d   1      31.829 -20.579  -8.852  0.00  0.00     0.000 A 
ATOM     35  C   UNL d   1      31.603 -19.207  -9.003  0.00  0.00     0.001 A 
ATOM     36  C   UNL d   1      31.075 -18.454  -7.950  0.00  0.00     0.017 A 
ENDBRANCH  28  31
ENDBRANCH   3  27
TORSDOF 5
ENDMDL
MODEL 9
REMARK VINA RESULT:    -9.148      4.258      9.148
REMARK INTER + INTRA:         -12.669
REMARK INTER:                 -10.640
REMARK INTRA:                  -2.029
REMARK CONF_INDEPENDENT:        1.492
REMARK UNBOUND:                -2.029
REMARK  5 active torsions:
REMARK  status: ('A' for Active; 'I' for Inactive)
REMARK       I    between atoms: C_2  and  N_3 
REMARK       I    between atoms: C_2  and  N_11 
REMARK    1  A    between atoms: N_3  and  C_4 
REMARK    2  A    between atoms: N_11  and  C_12 
REMARK    3  A    between atoms: C_14  and  N_15 
REMARK       I    between atoms: N_15  and  C_16 
REMARK    4  A    between atoms: C_16  and  C_18 
REMARK    5  A    between atoms: C_26  and  N_27 
ROOT
ATOM      1  C   UNL d   1      26.668 -12.736  -5.694  0.00  0.00     0.065 C 
ATOM      2  C   UNL d   1      27.405 -13.921  -5.997  0.00  0.00     0.061 C 
ATOM      3  C   UNL d   1      28.591 -13.869  -6.763  0.00  0.00     0.037 C 
ATOM      4  C   UNL d   1      28.953 -12.638  -7.300  0.00  0.00     0.032 C 
ATOM      5  C   UNL d   1      28.279 -11.472  -6.970  0.00  0.00     0.034 C 
ATOM      6  C   UNL d   1      27.158 -11.481  -6.142  0.00  0.00     0.057 C 
ENDROOT
BRANCH   1   7
ATOM      7  N   UNL d   1      25.502 -12.878  -4.880  0.00  0.00    -0.306 N 
ATOM      8  C   UNL d   1      25.195 -13.824  -3.915  0.00  0.00     0.325 C 
ATOM      9  O   UNL d   1      24.023 -14.075  -3.651  0.00  0.00    -0.247 OA
ATOM     10  N   UNL d   1      26.267 -14.334  -3.241  0.00  0.00    -0.309 N 
ATOM     11  H   UNL d   1      27.147 -13.917  -3.507  0.00  0.00     0.170 HD
ATOM     12  H   UNL d   1      24.679 -12.384  -5.206  0.00  0.00     0.170 HD
BRANCH  10  13
ATOM     13  C   UNL d   1      26.295 -15.408  -2.322  0.00  0.00     0.036 C 
ATOM     14  C   UNL d   1      25.142 -15.996  -1.783  0.00  0.00     0.031 C 
ATOM     15  C   UNL d   1      25.245 -17.043  -0.862  0.00  0.00     0.026 C 
ATOM     16  C   UNL d   1      26.504 -17.476  -0.463  0.00  0.00     0.034 C 
ATOM     17 CL   UNL d   1      26.655 -18.573   0.852  0.00  0.00    -0.084 Cl
ATOM     18  C   UNL d   1      27.646 -16.998  -1.101  0.00  0.00     0.026 C 
ATOM     19  C   UNL d   1      27.533 -16.007  -2.076  0.00  0.00     0.031 C 
ENDBRANCH  10  13
ENDBRANCH   1   7
BRANCH   6  20
ATOM     20  N   UNL d   1      26.704 -10.208  -5.771  0.00  0.00    -0.379 N 
ATOM     21  C   UNL d   1      26.746  -9.930  -4.340  0.00  0.00     0.123 C 
ATOM     22  C   UNL d   1      25.478  -9.434  -3.707  0.00  0.00     0.020 C 
ATOM     23  C   UNL d   1      25.213  -7.977  -4.076  0.00  0.00     0.002 C 
ATOM     24  C   UNL d   1      25.177  -7.714  -5.583  0.00  0.00     0.002 C 
ATOM     25  C   UNL d   1      26.539  -7.760  -6.269  0.00  0.00     0.020 C 
ATOM     26  C   UNL d   1      26.924  -9.148  -6.757  0.00  0.00     0.123 C 
ENDBRANCH   6  20
BRANCH   3  27
ATOM     27  N   UNL d   1      29.427 -15.014  -6.954  0.00  0.00    -0.323 N 
ATOM     28  C   UNL d   1      29.651 -15.991  -5.981  0.00  0.00     0.256 C 
ATOM     29  O   UNL d   1      29.222 -15.994  -4.820  0.00  0.00    -0.267 OA
ATOM     30  H   UNL d   1      29.751 -15.203  -7.896  0.00  0.00     0.169 HD
BRANCH  28  31
ATOM     31  C   UNL d   1      30.477 -17.168  -6.316  0.00  0.00     0.032 A 
ATOM     32  C   UNL d   1      31.178 -17.166  -7.537  0.00  0.00     0.017 A 
ATOM     33  C   UNL d   1      31.774 -18.334  -8.010  0.00  0.00     0.001 A 
ATOM     34  C   UNL d   1      31.725 -19.490  -7.236  0.00  0.00     0.000 A 
ATOM     35  C   UNL d   1      31.040 -19.492  -6.018  0.00  0.00     0.001 A 
ATOM     36  C   UNL d   1      30.404 -18.336  -5.558  0.00  0.00     0.017 A 
ENDBRANCH  28  31
ENDBRANCH   3  27
TORSDOF 5
ENDMDL
