MODEL 1
REMARK VINA RESULT:    -8.355      0.000      0.000
REMARK INTER + INTRA:          -9.681
REMARK INTER:                  -9.250
REMARK INTRA:                  -0.431
REMARK CONF_INDEPENDENT:        0.895
REMARK UNBOUND:                -0.431
REMARK  3 active torsions:
REMARK  status: ('A' for Active; 'I' for Inactive)
REMARK       I    between atoms: C_2  and  N_3 
REMARK    1  A    between atoms: C_2  and  C_13 
REMARK    2  A    between atoms: N_3  and  C_4 
REMARK    3  A    between atoms: C_8  and  O_9 
ROOT
ATOM      1  C   UNL d   1      23.477 -17.843  -0.214  0.00  0.00     0.038 A 
ATOM      2  C   UNL d   1      23.392 -16.791  -1.133  0.00  0.00     0.056 A 
ATOM      3  C   UNL d   1      24.554 -16.161  -1.605  0.00  0.00     0.071 A 
ATOM      4 CL   UNL d   1      24.405 -14.825  -2.688  0.00  0.00    -0.081 Cl
ATOM      5  C   UNL d   1      25.817 -16.591  -1.192  0.00  0.00     0.109 A 
ATOM      6  C   UNL d   1      25.905 -17.652  -0.289  0.00  0.00     0.071 A 
ATOM      7 CL   UNL d   1      27.443 -18.249   0.230  0.00  0.00    -0.081 Cl
ATOM      8  C   UNL d   1      24.743 -18.259   0.216  0.00  0.00     0.056 A 
ENDROOT
BRANCH   1   9
ATOM      9  N   UNL d   1      22.317 -18.463   0.325  0.00  0.00    -0.323 N 
ATOM     10  C   UNL d   1      21.345 -19.097  -0.447  0.00  0.00     0.256 C 
ATOM     11  O   UNL d   1      21.401 -19.248  -1.667  0.00  0.00    -0.267 OA
ATOM     12  H   UNL d   1      22.315 -18.659   1.320  0.00  0.00     0.169 HD
BRANCH  10  13
ATOM     13  C   UNL d   1      20.204 -19.715   0.298  0.00  0.00     0.032 A 
ATOM     14  C   UNL d   1      19.116 -20.262  -0.392  0.00  0.00     0.017 A 
ATOM     15  C   UNL d   1      18.046 -20.825   0.315  0.00  0.00     0.001 A 
ATOM     16  C   UNL d   1      18.085 -20.908   1.707  0.00  0.00     0.000 A 
ATOM     17  C   UNL d   1      19.179 -20.395   2.402  0.00  0.00     0.001 A 
ATOM     18  C   UNL d   1      20.236 -19.797   1.700  0.00  0.00     0.017 A 
ENDBRANCH  10  13
ENDBRANCH   1   9
BRANCH   5  19
ATOM     19  O   UNL d   1      26.967 -15.993  -1.642  0.00  0.00    -0.357 OA
ATOM     20  H   UNL d   1      27.604 -15.936  -0.906  0.00  0.00     0.217 HD
ENDBRANCH   5  19
TORSDOF 3
ENDMDL
MODEL 2
REMARK VINA RESULT:    -8.272      0.159      2.425
REMARK INTER + INTRA:          -9.599
REMARK INTER:                  -9.167
REMARK INTRA:                  -0.432
REMARK CONF_INDEPENDENT:        0.895
REMARK UNBOUND:                -0.432
REMARK  3 active torsions:
REMARK  status: ('A' for Active; 'I' for Inactive)
REMARK       I    between atoms: C_2  and  N_3 
REMARK    1  A    between atoms: C_2  and  C_13 
REMARK    2  A    between atoms: N_3  and  C_4 
REMARK    3  A    between atoms: C_8  and  O_9 
ROOT
ATOM      1  C   UNL d   1      23.630 -17.808  -0.102  0.00  0.00     0.038 A 
ATOM      2  C   UNL d   1      24.916 -18.200   0.286  0.00  0.00     0.056 A 
ATOM      3  C   UNL d   1      26.048 -17.580  -0.266  0.00  0.00     0.071 A 
ATOM      4 CL   UNL d   1      27.617 -18.137   0.190  0.00  0.00    -0.081 Cl
ATOM      5  C   UNL d   1      25.913 -16.538  -1.187  0.00  0.00     0.109 A 
ATOM      6  C   UNL d   1      24.631 -16.133  -1.561  0.00  0.00     0.071 A 
ATOM      7 CL   UNL d   1      24.405 -14.825  -2.671  0.00  0.00    -0.081 Cl
ATOM      8  C   UNL d   1      23.497 -16.777  -1.042  0.00  0.00     0.056 A 
ENDROOT
BRANCH   1   9
ATOM      9  N   UNL d   1      22.466 -18.454   0.396  0.00  0.00    -0.323 N 
ATOM     10  C   UNL d   1      21.454 -18.966  -0.414  0.00  0.00     0.256 C 
ATOM     11  O   UNL d   1      21.472 -18.973  -1.645  0.00  0.00    -0.267 OA
ATOM     12  H   UNL d   1      22.487 -18.767   1.360  0.00  0.00     0.169 HD
BRANCH  10  13
ATOM     13  C   UNL d   1      20.316 -19.635   0.288  0.00  0.00     0.032 A 
ATOM     14  C   UNL d   1      20.280 -19.701   1.685  0.00  0.00     0.017 A 
ATOM     15  C   UNL d   1      19.217 -20.343   2.333  0.00  0.00     0.001 A 
ATOM     16  C   UNL d   1      18.152 -20.862   1.597  0.00  0.00     0.000 A 
ATOM     17  C   UNL d   1      18.162 -20.773   0.206  0.00  0.00     0.001 A 
ATOM     18  C   UNL d   1      19.242 -20.164  -0.449  0.00  0.00     0.017 A 
ENDBRANCH  10  13
ENDBRANCH   1   9
BRANCH   5  19
ATOM     19  O   UNL d   1      27.006 -15.915  -1.737  0.00  0.00    -0.357 OA
ATOM     20  H   UNL d   1      27.743 -15.947  -1.099  0.00  0.00     0.217 HD
ENDBRANCH   5  19
TORSDOF 3
ENDMDL
MODEL 3
REMARK VINA RESULT:    -7.133      1.408      2.685
REMARK INTER + INTRA:          -8.462
REMARK INTER:                  -8.028
REMARK INTRA:                  -0.435
REMARK CONF_INDEPENDENT:        0.895
REMARK UNBOUND:                -0.435
REMARK  3 active torsions:
REMARK  status: ('A' for Active; 'I' for Inactive)
REMARK       I    between atoms: C_2  and  N_3 
REMARK    1  A    between atoms: C_2  and  C_13 
REMARK    2  A    between atoms: N_3  and  C_4 
REMARK    3  A    between atoms: C_8  and  O_9 
ROOT
ATOM      1  C   UNL d   1      24.604 -16.794  -0.919  0.00  0.00     0.038 A 
ATOM      2  C   UNL d   1      25.787 -16.878  -0.177  0.00  0.00     0.056 A 
ATOM      3  C   UNL d   1      26.989 -16.369  -0.692  0.00  0.00     0.071 A 
ATOM      4 CL   UNL d   1      28.441 -16.551   0.226  0.00  0.00    -0.081 Cl
ATOM      5  C   UNL d   1      27.022 -15.740  -1.939  0.00  0.00     0.109 A 
ATOM      6  C   UNL d   1      25.839 -15.638  -2.672  0.00  0.00     0.071 A 
ATOM      7 CL   UNL d   1      25.814 -14.838  -4.206  0.00  0.00    -0.081 Cl
ATOM      8  C   UNL d   1      24.642 -16.181  -2.178  0.00  0.00     0.056 A 
ENDROOT
BRANCH   1   9
ATOM      9  N   UNL d   1      23.383 -17.350  -0.449  0.00  0.00    -0.323 N 
ATOM     10  C   UNL d   1      22.714 -18.399  -1.076  0.00  0.00     0.256 C 
ATOM     11  O   UNL d   1      23.124 -19.004  -2.068  0.00  0.00    -0.267 OA
ATOM     12  H   UNL d   1      23.113 -17.137   0.505  0.00  0.00     0.169 HD
BRANCH  10  13
ATOM     13  C   UNL d   1      21.454 -18.869  -0.423  0.00  0.00     0.032 A 
ATOM     14  C   UNL d   1      20.361 -19.278  -1.195  0.00  0.00     0.017 A 
ATOM     15  C   UNL d   1      19.179 -19.703  -0.574  0.00  0.00     0.001 A 
ATOM     16  C   UNL d   1      19.104 -19.787   0.817  0.00  0.00     0.000 A 
ATOM     17  C   UNL d   1      20.199 -19.412   1.594  0.00  0.00     0.001 A 
ATOM     18  C   UNL d   1      21.371 -18.952   0.978  0.00  0.00     0.017 A 
ENDBRANCH  10  13
ENDBRANCH   1   9
BRANCH   5  19
ATOM     19  O   UNL d   1      28.186 -15.231  -2.461  0.00  0.00    -0.357 OA
ATOM     20  H   UNL d   1      28.898 -15.333  -1.803  0.00  0.00     0.217 HD
ENDBRANCH   5  19
TORSDOF 3
ENDMDL
MODEL 4
REMARK VINA RESULT:    -6.864      1.404      1.728
REMARK INTER + INTRA:          -8.119
REMARK INTER:                  -7.759
REMARK INTRA:                  -0.360
REMARK CONF_INDEPENDENT:        0.895
REMARK UNBOUND:                -0.360
REMARK  3 active torsions:
REMARK  status: ('A' for Active; 'I' for Inactive)
REMARK       I    between atoms: C_2  and  N_3 
REMARK    1  A    between atoms: C_2  and  C_13 
REMARK    2  A    between atoms: N_3  and  C_4 
REMARK    3  A    between atoms: C_8  and  O_9 
ROOT
ATOM      1  C   UNL d   1      24.247 -16.885  -1.269  0.00  0.00     0.038 A 
ATOM      2  C   UNL d   1      24.346 -15.709  -2.020  0.00  0.00     0.056 A 
ATOM      3  C   UNL d   1      25.580 -15.055  -2.162  0.00  0.00     0.071 A 
ATOM      4 CL   UNL d   1      25.648 -13.571  -3.041  0.00  0.00    -0.081 Cl
ATOM      5  C   UNL d   1      26.737 -15.583  -1.585  0.00  0.00     0.109 A 
ATOM      6  C   UNL d   1      26.644 -16.766  -0.851  0.00  0.00     0.071 A 
ATOM      7 CL   UNL d   1      28.051 -17.483  -0.144  0.00  0.00    -0.081 Cl
ATOM      8  C   UNL d   1      25.404 -17.402  -0.673  0.00  0.00     0.056 A 
ENDROOT
BRANCH   1   9
ATOM      9  N   UNL d   1      23.002 -17.539  -1.060  0.00  0.00    -0.323 N 
ATOM     10  C   UNL d   1      22.729 -18.363   0.030  0.00  0.00     0.256 C 
ATOM     11  O   UNL d   1      23.503 -18.575   0.964  0.00  0.00    -0.267 OA
ATOM     12  H   UNL d   1      22.208 -17.205  -1.595  0.00  0.00     0.169 HD
BRANCH  10  13
ATOM     13  C   UNL d   1      21.353 -18.946   0.095  0.00  0.00     0.032 A 
ATOM     14  C   UNL d   1      20.618 -19.168  -1.074  0.00  0.00     0.017 A 
ATOM     15  C   UNL d   1      19.325 -19.700  -1.002  0.00  0.00     0.001 A 
ATOM     16  C   UNL d   1      18.784 -20.078   0.228  0.00  0.00     0.000 A 
ATOM     17  C   UNL d   1      19.522 -19.891   1.396  0.00  0.00     0.001 A 
ATOM     18  C   UNL d   1      20.803 -19.324   1.332  0.00  0.00     0.017 A 
ENDBRANCH  10  13
ENDBRANCH   1   9
BRANCH   5  19
ATOM     19  O   UNL d   1      27.955 -14.963  -1.713  0.00  0.00    -0.357 OA
ATOM     20  H   UNL d   1      28.650 -15.643  -1.790  0.00  0.00     0.217 HD
ENDBRANCH   5  19
TORSDOF 3
ENDMDL
MODEL 5
REMARK VINA RESULT:    -6.310      4.050      8.047
REMARK INTER + INTRA:          -7.647
REMARK INTER:                  -7.205
REMARK INTRA:                  -0.442
REMARK CONF_INDEPENDENT:        0.895
REMARK UNBOUND:                -0.442
REMARK  3 active torsions:
REMARK  status: ('A' for Active; 'I' for Inactive)
REMARK       I    between atoms: C_2  and  N_3 
REMARK    1  A    between atoms: C_2  and  C_13 
REMARK    2  A    between atoms: N_3  and  C_4 
REMARK    3  A    between atoms: C_8  and  O_9 
ROOT
ATOM      1  C   UNL d   1      25.106 -15.605  -1.631  0.00  0.00     0.038 A 
ATOM      2  C   UNL d   1      23.771 -16.011  -1.539  0.00  0.00     0.056 A 
ATOM      3  C   UNL d   1      23.436 -17.230  -0.930  0.00  0.00     0.071 A 
ATOM      4 CL   UNL d   1      21.783 -17.727  -0.895  0.00  0.00    -0.081 Cl
ATOM      5  C   UNL d   1      24.425 -18.045  -0.374  0.00  0.00     0.109 A 
ATOM      6  C   UNL d   1      25.757 -17.633  -0.448  0.00  0.00     0.071 A 
ATOM      7 CL   UNL d   1      27.019 -18.585   0.254  0.00  0.00    -0.081 Cl
ATOM      8  C   UNL d   1      26.099 -16.433  -1.092  0.00  0.00     0.056 A 
ENDROOT
BRANCH   1   9
ATOM      9  N   UNL d   1      25.481 -14.403  -2.292  0.00  0.00    -0.323 N 
ATOM     10  C   UNL d   1      25.507 -14.253  -3.677  0.00  0.00     0.256 C 
ATOM     11  O   UNL d   1      25.155 -15.113  -4.486  0.00  0.00    -0.267 OA
ATOM     12  H   UNL d   1      25.500 -13.555  -1.737  0.00  0.00     0.169 HD
BRANCH  10  13
ATOM     13  C   UNL d   1      25.904 -12.907  -4.193  0.00  0.00     0.032 A 
ATOM     14  C   UNL d   1      26.609 -12.784  -5.395  0.00  0.00     0.017 A 
ATOM     15  C   UNL d   1      26.991 -11.520  -5.862  0.00  0.00     0.001 A 
ATOM     16  C   UNL d   1      26.613 -10.369  -5.171  0.00  0.00     0.000 A 
ATOM     17  C   UNL d   1      25.882 -10.479  -3.989  0.00  0.00     0.001 A 
ATOM     18  C   UNL d   1      25.530 -11.744  -3.498  0.00  0.00     0.017 A 
ENDBRANCH  10  13
ENDBRANCH   1   9
BRANCH   5  19
ATOM     19  O   UNL d   1      24.122 -19.240   0.230  0.00  0.00    -0.357 OA
ATOM     20  H   UNL d   1      23.247 -19.167   0.654  0.00  0.00     0.217 HD
ENDBRANCH   5  19
TORSDOF 3
ENDMDL
MODEL 6
REMARK VINA RESULT:    -6.267      4.074      8.306
REMARK INTER + INTRA:          -7.597
REMARK INTER:                  -7.162
REMARK INTRA:                  -0.435
REMARK CONF_INDEPENDENT:        0.895
REMARK UNBOUND:                -0.435
REMARK  3 active torsions:
REMARK  status: ('A' for Active; 'I' for Inactive)
REMARK       I    between atoms: C_2  and  N_3 
REMARK    1  A    between atoms: C_2  and  C_13 
REMARK    2  A    between atoms: N_3  and  C_4 
REMARK    3  A    between atoms: C_8  and  O_9 
ROOT
ATOM      1  C   UNL d   1      25.138 -15.554  -1.609  0.00  0.00     0.038 A 
ATOM      2  C   UNL d   1      26.122 -16.392  -1.073  0.00  0.00     0.056 A 
ATOM      3  C   UNL d   1      25.769 -17.598  -0.447  0.00  0.00     0.071 A 
ATOM      4 CL   UNL d   1      27.007 -18.572   0.259  0.00  0.00    -0.081 Cl
ATOM      5  C   UNL d   1      24.433 -17.999  -0.374  0.00  0.00     0.109 A 
ATOM      6  C   UNL d   1      23.451 -17.174  -0.924  0.00  0.00     0.071 A 
ATOM      7 CL   UNL d   1      21.785 -17.638  -0.894  0.00  0.00    -0.081 Cl
ATOM      8  C   UNL d   1      23.797 -15.948  -1.517  0.00  0.00     0.056 A 
ENDROOT
BRANCH   1   9
ATOM      9  N   UNL d   1      25.459 -14.301  -2.199  0.00  0.00    -0.323 N 
ATOM     10  C   UNL d   1      25.357 -14.035  -3.563  0.00  0.00     0.256 C 
ATOM     11  O   UNL d   1      24.925 -14.823  -4.404  0.00  0.00    -0.267 OA
ATOM     12  H   UNL d   1      25.537 -13.503  -1.578  0.00  0.00     0.169 HD
BRANCH  10  13
ATOM     13  C   UNL d   1      25.717 -12.650  -3.998  0.00  0.00     0.032 A 
ATOM     14  C   UNL d   1      25.912 -11.635  -3.055  0.00  0.00     0.017 A 
ATOM     15  C   UNL d   1      26.233 -10.337  -3.473  0.00  0.00     0.001 A 
ATOM     16  C   UNL d   1      26.429 -10.060  -4.827  0.00  0.00     0.000 A 
ATOM     17  C   UNL d   1      26.269 -11.073  -5.772  0.00  0.00     0.001 A 
ATOM     18  C   UNL d   1      25.911 -12.365  -5.360  0.00  0.00     0.017 A 
ENDBRANCH  10  13
ENDBRANCH   1   9
BRANCH   5  19
ATOM     19  O   UNL d   1      24.065 -19.176   0.230  0.00  0.00    -0.357 OA
ATOM     20  H   UNL d   1      23.450 -18.977   0.960  0.00  0.00     0.217 HD
ENDBRANCH   5  19
TORSDOF 3
ENDMDL
MODEL 7
REMARK VINA RESULT:    -6.230      4.822      7.188
REMARK INTER + INTRA:          -7.489
REMARK INTER:                  -7.125
REMARK INTRA:                  -0.364
REMARK CONF_INDEPENDENT:        0.895
REMARK UNBOUND:                -0.364
REMARK  3 active torsions:
REMARK  status: ('A' for Active; 'I' for Inactive)
REMARK       I    between atoms: C_2  and  N_3 
REMARK    1  A    between atoms: C_2  and  C_13 
REMARK    2  A    between atoms: N_3  and  C_4 
REMARK    3  A    between atoms: C_8  and  O_9 
ROOT
ATOM      1  C   UNL d   1      27.819 -15.034  -4.599  0.00  0.00     0.038 A 
ATOM      2  C   UNL d   1      28.914 -15.590  -5.269  0.00  0.00     0.056 A 
ATOM      3  C   UNL d   1      29.464 -14.950  -6.390  0.00  0.00     0.071 A 
ATOM      4 CL   UNL d   1      30.773 -15.701  -7.228  0.00  0.00    -0.081 Cl
ATOM      5  C   UNL d   1      28.951 -13.731  -6.839  0.00  0.00     0.109 A 
ATOM      6  C   UNL d   1      27.870 -13.165  -6.161  0.00  0.00     0.071 A 
ATOM      7 CL   UNL d   1      27.217 -11.640  -6.651  0.00  0.00    -0.081 Cl
ATOM      8  C   UNL d   1      27.292 -13.822  -5.063  0.00  0.00     0.056 A 
ENDROOT
BRANCH   1   9
ATOM      9  N   UNL d   1      27.204 -15.687  -3.495  0.00  0.00    -0.323 N 
ATOM     10  C   UNL d   1      25.868 -15.520  -3.138  0.00  0.00     0.256 C 
ATOM     11  O   UNL d   1      25.051 -14.841  -3.762  0.00  0.00    -0.267 OA
ATOM     12  H   UNL d   1      27.691 -16.484  -3.099  0.00  0.00     0.169 HD
BRANCH  10  13
ATOM     13  C   UNL d   1      25.391 -16.308  -1.960  0.00  0.00     0.032 A 
ATOM     14  C   UNL d   1      24.030 -16.354  -1.638  0.00  0.00     0.017 A 
ATOM     15  C   UNL d   1      23.595 -17.082  -0.524  0.00  0.00     0.001 A 
ATOM     16  C   UNL d   1      24.502 -17.824   0.233  0.00  0.00     0.000 A 
ATOM     17  C   UNL d   1      25.856 -17.812  -0.100  0.00  0.00     0.001 A 
ATOM     18  C   UNL d   1      26.301 -17.054  -1.192  0.00  0.00     0.017 A 
ENDBRANCH  10  13
ENDBRANCH   1   9
BRANCH   5  19
ATOM     19  O   UNL d   1      29.475 -13.085  -7.931  0.00  0.00    -0.357 OA
ATOM     20  H   UNL d   1      29.498 -13.703  -8.684  0.00  0.00     0.217 HD
ENDBRANCH   5  19
TORSDOF 3
ENDMDL
MODEL 8
REMARK VINA RESULT:    -6.228      4.846      6.979
REMARK INTER + INTRA:          -7.511
REMARK INTER:                  -7.123
REMARK INTRA:                  -0.388
REMARK CONF_INDEPENDENT:        0.895
REMARK UNBOUND:                -0.388
REMARK  3 active torsions:
REMARK  status: ('A' for Active; 'I' for Inactive)
REMARK       I    between atoms: C_2  and  N_3 
REMARK    1  A    between atoms: C_2  and  C_13 
REMARK    2  A    between atoms: N_3  and  C_4 
REMARK    3  A    between atoms: C_8  and  O_9 
ROOT
ATOM      1  C   UNL d   1      27.711 -14.953  -4.695  0.00  0.00     0.038 A 
ATOM      2  C   UNL d   1      27.210 -13.734  -5.164  0.00  0.00     0.056 A 
ATOM      3  C   UNL d   1      27.828 -13.074  -6.238  0.00  0.00     0.071 A 
ATOM      4 CL   UNL d   1      27.220 -11.540  -6.744  0.00  0.00    -0.081 Cl
ATOM      5  C   UNL d   1      28.934 -13.637  -6.879  0.00  0.00     0.109 A 
ATOM      6  C   UNL d   1      29.424 -14.863  -6.425  0.00  0.00     0.071 A 
ATOM      7 CL   UNL d   1      30.768 -15.623  -7.204  0.00  0.00    -0.081 Cl
ATOM      8  C   UNL d   1      28.832 -15.506  -5.326  0.00  0.00     0.056 A 
ENDROOT
BRANCH   1   9
ATOM      9  N   UNL d   1      27.141 -15.616  -3.574  0.00  0.00    -0.323 N 
ATOM     10  C   UNL d   1      25.810 -15.481  -3.184  0.00  0.00     0.256 C 
ATOM     11  O   UNL d   1      24.961 -14.825  -3.789  0.00  0.00    -0.267 OA
ATOM     12  H   UNL d   1      27.657 -16.399  -3.187  0.00  0.00     0.169 HD
BRANCH  10  13
ATOM     13  C   UNL d   1      25.382 -16.276  -1.992  0.00  0.00     0.032 A 
ATOM     14  C   UNL d   1      24.030 -16.369  -1.645  0.00  0.00     0.017 A 
ATOM     15  C   UNL d   1      23.641 -17.103  -0.518  0.00  0.00     0.001 A 
ATOM     16  C   UNL d   1      24.588 -17.805   0.229  0.00  0.00     0.000 A 
ATOM     17  C   UNL d   1      25.934 -17.745  -0.127  0.00  0.00     0.001 A 
ATOM     18  C   UNL d   1      26.333 -16.981  -1.234  0.00  0.00     0.017 A 
ENDBRANCH  10  13
ENDBRANCH   1   9
BRANCH   5  19
ATOM     19  O   UNL d   1      29.553 -13.012  -7.934  0.00  0.00    -0.357 OA
ATOM     20  H   UNL d   1      29.541 -13.608  -8.705  0.00  0.00     0.217 HD
ENDBRANCH   5  19
TORSDOF 3
ENDMDL
MODEL 9
REMARK VINA RESULT:    -6.224      4.281      8.319
REMARK INTER + INTRA:          -7.456
REMARK INTER:                  -7.119
REMARK INTRA:                  -0.336
REMARK CONF_INDEPENDENT:        0.895
REMARK UNBOUND:                -0.336
REMARK  3 active torsions:
REMARK  status: ('A' for Active; 'I' for Inactive)
REMARK       I    between atoms: C_2  and  N_3 
REMARK    1  A    between atoms: C_2  and  C_13 
REMARK    2  A    between atoms: N_3  and  C_4 
REMARK    3  A    between atoms: C_8  and  O_9 
ROOT
ATOM      1  C   UNL d   1      25.966 -16.240  -2.075  0.00  0.00     0.038 A 
ATOM      2  C   UNL d   1      24.573 -16.201  -1.946  0.00  0.00     0.056 A 
ATOM      3  C   UNL d   1      23.927 -16.958  -0.957  0.00  0.00     0.071 A 
ATOM      4 CL   UNL d   1      22.203 -16.934  -0.873  0.00  0.00    -0.081 Cl
ATOM      5  C   UNL d   1      24.662 -17.738  -0.062  0.00  0.00     0.109 A 
ATOM      6  C   UNL d   1      26.053 -17.764  -0.176  0.00  0.00     0.071 A 
ATOM      7 CL   UNL d   1      27.015 -18.685   0.928  0.00  0.00    -0.081 Cl
ATOM      8  C   UNL d   1      26.701 -17.039  -1.190  0.00  0.00     0.056 A 
ENDROOT
BRANCH   1   9
ATOM      9  N   UNL d   1      26.645 -15.529  -3.102  0.00  0.00    -0.323 N 
ATOM     10  C   UNL d   1      26.001 -14.840  -4.128  0.00  0.00     0.256 C 
ATOM     11  O   UNL d   1      24.780 -14.715  -4.234  0.00  0.00    -0.267 OA
ATOM     12  H   UNL d   1      27.625 -15.316  -2.949  0.00  0.00     0.169 HD
BRANCH  10  13
ATOM     13  C   UNL d   1      26.880 -14.130  -5.106  0.00  0.00     0.032 A 
ATOM     14  C   UNL d   1      27.871 -14.825  -5.809  0.00  0.00     0.017 A 
ATOM     15  C   UNL d   1      28.699 -14.148  -6.712  0.00  0.00     0.001 A 
ATOM     16  C   UNL d   1      28.501 -12.791  -6.972  0.00  0.00     0.000 A 
ATOM     17  C   UNL d   1      27.496 -12.097  -6.301  0.00  0.00     0.001 A 
ATOM     18  C   UNL d   1      26.687 -12.762  -5.368  0.00  0.00     0.017 A 
ENDBRANCH  10  13
ENDBRANCH   1   9
BRANCH   5  19
ATOM     19  O   UNL d   1      24.051 -18.484   0.916  0.00  0.00    -0.357 OA
ATOM     20  H   UNL d   1      23.658 -19.278   0.510  0.00  0.00     0.217 HD
ENDBRANCH   5  19
TORSDOF 3
ENDMDL
