MODEL 1
REMARK VINA RESULT:    -8.423      0.000      0.000
REMARK INTER + INTRA:         -12.754
REMARK INTER:                 -10.511
REMARK INTRA:                  -2.243
REMARK CONF_INDEPENDENT:        2.088
REMARK UNBOUND:                -2.243
REMARK  7 active torsions:
REMARK  status: ('A' for Active; 'I' for Inactive)
REMARK    1  A    between atoms: C_3  and  N_4 
REMARK       I    between atoms: N_4  and  C_5 
REMARK    2  A    between atoms: C_5  and  C_7 
REMARK    3  A    between atoms: C_7  and  S_8 
REMARK    4  A    between atoms: S_8  and  C_9 
REMARK    5  A    between atoms: C_13  and  C_14 
REMARK    6  A    between atoms: C_14  and  C_15 
REMARK    7  A    between atoms: N_24  and  C_25 
ROOT
ATOM      1  N   UNL d   1      29.215 -15.815   0.500  0.00  0.00    -0.326 N 
ATOM      2  C   UNL d   1      30.440 -15.613  -0.124  0.00  0.00     0.231 C 
ATOM      3  O   UNL d   1      30.499 -15.201  -1.291  0.00  0.00    -0.272 OA
ATOM      4  H   UNL d   1      29.193 -15.844   1.513  0.00  0.00     0.168 HD
ENDROOT
BRANCH   2   5
ATOM      5  C   UNL d   1      31.732 -15.833   0.702  0.00  0.00     0.185 C 
BRANCH   5   6
ATOM      6  S   UNL d   1      31.855 -14.490   1.931  0.00  0.00    -0.083 SA
BRANCH   6   7
ATOM      7  C   UNL d   1      30.458 -14.449   2.935  0.00  0.00     0.167 A 
ATOM      8  N   UNL d   1      29.320 -13.941   2.529  0.00  0.00    -0.228 NA
ATOM      9  C   UNL d   1      28.488 -13.938   3.618  0.00  0.00     0.056 A 
ATOM     10  C   UNL d   1      27.110 -13.406   3.469  0.00  0.00     0.072 C 
ATOM     11  C   UNL d   1      29.134 -14.485   4.723  0.00  0.00     0.040 A 
ATOM     12  N   UNL d   1      30.398 -14.805   4.250  0.00  0.00    -0.337 N 
ATOM     13  H   UNL d   1      31.156 -15.201   4.783  0.00  0.00     0.168 HD
BRANCH  11  14
ATOM     14  C   UNL d   1      28.699 -14.739   6.143  0.00  0.00     0.097 C 
BRANCH  14  15
ATOM     15  C   UNL d   1      28.862 -13.552   7.074  0.00  0.00    -0.052 A 
ATOM     16  C   UNL d   1      28.660 -12.234   6.644  0.00  0.00     0.007 A 
ATOM     17  C   UNL d   1      28.748 -11.177   7.558  0.00  0.00     0.001 A 
ATOM     18  C   UNL d   1      28.904 -11.432   8.920  0.00  0.00     0.000 A 
ATOM     19  C   UNL d   1      29.086 -12.737   9.359  0.00  0.00     0.001 A 
ATOM     20  C   UNL d   1      29.146 -13.777   8.431  0.00  0.00     0.007 A 
ENDBRANCH  14  15
ENDBRANCH  11  14
ENDBRANCH   6   7
ENDBRANCH   5   6
ENDBRANCH   2   5
BRANCH   1  21
ATOM     21  C   UNL d   1      27.979 -15.863  -0.159  0.00  0.00     0.060 A 
ATOM     22  C   UNL d   1      27.293 -14.812  -0.657  0.00  0.00     0.047 A 
ATOM     23  C   UNL d   1      27.725 -13.377  -0.727  0.00  0.00     0.072 C 
ATOM     24  N   UNL d   1      26.027 -15.225  -1.095  0.00  0.00    -0.300 N 
ATOM     25  N   UNL d   1      25.864 -16.609  -1.011  0.00  0.00    -0.282 N 
ATOM     26  H   UNL d   1      25.651 -14.757  -1.922  0.00  0.00     0.187 HD
ATOM     27  C   UNL d   1      27.156 -17.159  -0.409  0.00  0.00     0.156 A 
ATOM     28  C   UNL d   1      26.961 -18.011   0.834  0.00  0.00     0.041 C 
BRANCH  25  29
ATOM     29  C   UNL d   1      24.596 -17.199  -0.785  0.00  0.00     0.051 A 
ATOM     30  C   UNL d   1      23.438 -16.402  -0.755  0.00  0.00     0.031 A 
ATOM     31  C   UNL d   1      22.157 -16.953  -0.527  0.00  0.00     0.002 A 
ATOM     32  C   UNL d   1      21.987 -18.327  -0.393  0.00  0.00     0.000 A 
ATOM     33  C   UNL d   1      23.105 -19.142  -0.425  0.00  0.00     0.002 A 
ATOM     34  C   UNL d   1      24.382 -18.574  -0.573  0.00  0.00     0.031 A 
ENDBRANCH  25  29
ENDBRANCH   1  21
TORSDOF 7
ENDMDL
MODEL 2
REMARK VINA RESULT:    -7.573      6.181     10.481
REMARK INTER + INTRA:         -11.715
REMARK INTER:                  -9.661
REMARK INTRA:                  -2.054
REMARK CONF_INDEPENDENT:        2.088
REMARK UNBOUND:                -2.054
REMARK  7 active torsions:
REMARK  status: ('A' for Active; 'I' for Inactive)
REMARK    1  A    between atoms: C_3  and  N_4 
REMARK       I    between atoms: N_4  and  C_5 
REMARK    2  A    between atoms: C_5  and  C_7 
REMARK    3  A    between atoms: C_7  and  S_8 
REMARK    4  A    between atoms: S_8  and  C_9 
REMARK    5  A    between atoms: C_13  and  C_14 
REMARK    6  A    between atoms: C_14  and  C_15 
REMARK    7  A    between atoms: N_24  and  C_25 
ROOT
ATOM      1  N   UNL d   1      28.012 -14.282  -4.095  0.00  0.00    -0.326 N 
ATOM      2  C   UNL d   1      27.907 -14.623  -5.439  0.00  0.00     0.231 C 
ATOM      3  O   UNL d   1      27.201 -15.575  -5.800  0.00  0.00    -0.272 OA
ATOM      4  H   UNL d   1      28.324 -13.347  -3.863  0.00  0.00     0.168 HD
ENDROOT
BRANCH   2   5
ATOM      5  C   UNL d   1      28.624 -13.731  -6.483  0.00  0.00     0.185 C 
BRANCH   5   6
ATOM      6  S   UNL d   1      30.422 -13.865  -6.204  0.00  0.00    -0.083 SA
BRANCH   6   7
ATOM      7  C   UNL d   1      30.945 -15.498  -6.351  0.00  0.00     0.167 A 
ATOM      8  N   UNL d   1      32.159 -15.811  -6.732  0.00  0.00    -0.228 NA
ATOM      9  C   UNL d   1      32.178 -17.174  -6.879  0.00  0.00     0.056 A 
ATOM     10  C   UNL d   1      33.434 -17.833  -7.316  0.00  0.00     0.072 C 
ATOM     11  C   UNL d   1      30.937 -17.714  -6.556  0.00  0.00     0.040 A 
ATOM     12  N   UNL d   1      30.167 -16.610  -6.218  0.00  0.00    -0.337 N 
ATOM     13  H   UNL d   1      29.195 -16.615  -5.952  0.00  0.00     0.168 HD
BRANCH  11  14
ATOM     14  C   UNL d   1      30.408 -19.125  -6.524  0.00  0.00     0.097 C 
BRANCH  14  15
ATOM     15  C   UNL d   1      30.902 -20.008  -7.654  0.00  0.00    -0.052 A 
ATOM     16  C   UNL d   1      30.766 -19.643  -9.000  0.00  0.00     0.007 A 
ATOM     17  C   UNL d   1      31.305 -20.455 -10.005  0.00  0.00     0.001 A 
ATOM     18  C   UNL d   1      32.091 -21.558  -9.675  0.00  0.00     0.000 A 
ATOM     19  C   UNL d   1      32.248 -21.919  -8.343  0.00  0.00     0.001 A 
ATOM     20  C   UNL d   1      31.589 -21.194  -7.349  0.00  0.00     0.007 A 
ENDBRANCH  14  15
ENDBRANCH  11  14
ENDBRANCH   6   7
ENDBRANCH   5   6
ENDBRANCH   2   5
BRANCH   1  21
ATOM     21  C   UNL d   1      27.606 -15.095  -3.030  0.00  0.00     0.060 A 
ATOM     22  C   UNL d   1      28.278 -16.153  -2.525  0.00  0.00     0.047 A 
ATOM     23  C   UNL d   1      29.648 -16.638  -2.896  0.00  0.00     0.072 C 
ATOM     24  N   UNL d   1      27.488 -16.821  -1.579  0.00  0.00    -0.300 N 
ATOM     25  N   UNL d   1      26.285 -16.156  -1.330  0.00  0.00    -0.282 N 
ATOM     26  H   UNL d   1      27.975 -17.228  -0.778  0.00  0.00     0.187 HD
ATOM     27  C   UNL d   1      26.269 -14.936  -2.250  0.00  0.00     0.156 A 
ATOM     28  C   UNL d   1      25.046 -14.836  -3.144  0.00  0.00     0.041 C 
BRANCH  25  29
ATOM     29  C   UNL d   1      25.111 -16.853  -0.954  0.00  0.00     0.051 A 
ATOM     30  C   UNL d   1      25.187 -18.189  -0.521  0.00  0.00     0.031 A 
ATOM     31  C   UNL d   1      24.038 -18.918  -0.143  0.00  0.00     0.002 A 
ATOM     32  C   UNL d   1      22.786 -18.312  -0.116  0.00  0.00     0.000 A 
ATOM     33  C   UNL d   1      22.677 -16.995  -0.529  0.00  0.00     0.002 A 
ATOM     34  C   UNL d   1      23.815 -16.304  -0.978  0.00  0.00     0.031 A 
ENDBRANCH  25  29
ENDBRANCH   1  21
TORSDOF 7
ENDMDL
MODEL 3
REMARK VINA RESULT:    -7.548      4.915      8.647
REMARK INTER + INTRA:         -11.979
REMARK INTER:                  -9.636
REMARK INTRA:                  -2.343
REMARK CONF_INDEPENDENT:        2.088
REMARK UNBOUND:                -2.343
REMARK  7 active torsions:
REMARK  status: ('A' for Active; 'I' for Inactive)
REMARK    1  A    between atoms: C_3  and  N_4 
REMARK       I    between atoms: N_4  and  C_5 
REMARK    2  A    between atoms: C_5  and  C_7 
REMARK    3  A    between atoms: C_7  and  S_8 
REMARK    4  A    between atoms: S_8  and  C_9 
REMARK    5  A    between atoms: C_13  and  C_14 
REMARK    6  A    between atoms: C_14  and  C_15 
REMARK    7  A    between atoms: N_24  and  C_25 
ROOT
ATOM      1  N   UNL d   1      27.687 -14.173  -4.436  0.00  0.00    -0.326 N 
ATOM      2  C   UNL d   1      26.305 -14.152  -4.580  0.00  0.00     0.231 C 
ATOM      3  O   UNL d   1      25.674 -15.191  -4.818  0.00  0.00    -0.272 OA
ATOM      4  H   UNL d   1      28.128 -13.403  -3.946  0.00  0.00     0.168 HD
ENDROOT
BRANCH   2   5
ATOM      5  C   UNL d   1      25.561 -12.812  -4.350  0.00  0.00     0.185 C 
BRANCH   5   6
ATOM      6  S   UNL d   1      26.135 -12.109  -2.768  0.00  0.00    -0.083 SA
BRANCH   6   7
ATOM      7  C   UNL d   1      26.299 -13.338  -1.575  0.00  0.00     0.167 A 
ATOM      8  N   UNL d   1      26.872 -13.116  -0.417  0.00  0.00    -0.228 NA
ATOM      9  C   UNL d   1      26.961 -14.332   0.209  0.00  0.00     0.056 A 
ATOM     10  C   UNL d   1      27.581 -14.403   1.556  0.00  0.00     0.072 C 
ATOM     11  C   UNL d   1      26.402 -15.328  -0.585  0.00  0.00     0.040 A 
ATOM     12  N   UNL d   1      25.984 -14.656  -1.725  0.00  0.00    -0.337 N 
ATOM     13  H   UNL d   1      25.552 -15.065  -2.538  0.00  0.00     0.168 HD
BRANCH  11  14
ATOM     14  C   UNL d   1      26.218 -16.811  -0.392  0.00  0.00     0.097 C 
BRANCH  14  15
ATOM     15  C   UNL d   1      24.773 -17.272  -0.391  0.00  0.00    -0.052 A 
ATOM     16  C   UNL d   1      23.706 -16.382  -0.578  0.00  0.00     0.007 A 
ATOM     17  C   UNL d   1      22.393 -16.864  -0.645  0.00  0.00     0.001 A 
ATOM     18  C   UNL d   1      22.145 -18.236  -0.660  0.00  0.00     0.000 A 
ATOM     19  C   UNL d   1      23.198 -19.128  -0.494  0.00  0.00     0.001 A 
ATOM     20  C   UNL d   1      24.488 -18.642  -0.280  0.00  0.00     0.007 A 
ENDBRANCH  14  15
ENDBRANCH  11  14
ENDBRANCH   6   7
ENDBRANCH   5   6
ENDBRANCH   2   5
BRANCH   1  21
ATOM     21  C   UNL d   1      28.514 -15.239  -4.812  0.00  0.00     0.060 A 
ATOM     22  C   UNL d   1      29.115 -16.121  -3.983  0.00  0.00     0.047 A 
ATOM     23  C   UNL d   1      28.958 -16.244  -2.497  0.00  0.00     0.072 C 
ATOM     24  N   UNL d   1      29.994 -16.941  -4.704  0.00  0.00    -0.300 N 
ATOM     25  N   UNL d   1      29.924 -16.709  -6.080  0.00  0.00    -0.282 N 
ATOM     26  H   UNL d   1      30.077 -17.911  -4.395  0.00  0.00     0.187 HD
ATOM     27  C   UNL d   1      28.914 -15.579  -6.276  0.00  0.00     0.156 A 
ATOM     28  C   UNL d   1      29.443 -14.389  -7.058  0.00  0.00     0.041 C 
BRANCH  25  29
ATOM     29  C   UNL d   1      31.045 -16.897  -6.926  0.00  0.00     0.051 A 
ATOM     30  C   UNL d   1      32.083 -15.949  -6.950  0.00  0.00     0.031 A 
ATOM     31  C   UNL d   1      33.213 -16.099  -7.784  0.00  0.00     0.002 A 
ATOM     32  C   UNL d   1      33.375 -17.238  -8.566  0.00  0.00     0.000 A 
ATOM     33  C   UNL d   1      32.375 -18.195  -8.560  0.00  0.00     0.002 A 
ATOM     34  C   UNL d   1      31.218 -17.996  -7.787  0.00  0.00     0.031 A 
ENDBRANCH  25  29
ENDBRANCH   1  21
TORSDOF 7
ENDMDL
MODEL 4
REMARK VINA RESULT:    -7.486      4.635      8.011
REMARK INTER + INTRA:         -12.142
REMARK INTER:                  -9.574
REMARK INTRA:                  -2.567
REMARK CONF_INDEPENDENT:        2.088
REMARK UNBOUND:                -2.567
REMARK  7 active torsions:
REMARK  status: ('A' for Active; 'I' for Inactive)
REMARK    1  A    between atoms: C_3  and  N_4 
REMARK       I    between atoms: N_4  and  C_5 
REMARK    2  A    between atoms: C_5  and  C_7 
REMARK    3  A    between atoms: C_7  and  S_8 
REMARK    4  A    between atoms: S_8  and  C_9 
REMARK    5  A    between atoms: C_13  and  C_14 
REMARK    6  A    between atoms: C_14  and  C_15 
REMARK    7  A    between atoms: N_24  and  C_25 
ROOT
ATOM      1  N   UNL d   1      28.500 -14.195  -4.148  0.00  0.00    -0.326 N 
ATOM      2  C   UNL d   1      28.697 -15.179  -5.108  0.00  0.00     0.231 C 
ATOM      3  O   UNL d   1      28.020 -15.200  -6.146  0.00  0.00    -0.272 OA
ATOM      4  H   UNL d   1      29.246 -14.016  -3.486  0.00  0.00     0.168 HD
ENDROOT
BRANCH   2   5
ATOM      5  C   UNL d   1      29.841 -16.201  -4.891  0.00  0.00     0.185 C 
BRANCH   5   6
ATOM      6  S   UNL d   1      30.487 -15.977  -3.200  0.00  0.00    -0.083 SA
BRANCH   6   7
ATOM      7  C   UNL d   1      29.204 -15.930  -2.055  0.00  0.00     0.167 A 
ATOM      8  N   UNL d   1      28.800 -14.812  -1.504  0.00  0.00    -0.228 NA
ATOM      9  C   UNL d   1      27.882 -15.162  -0.548  0.00  0.00     0.056 A 
ATOM     10  C   UNL d   1      27.244 -14.093   0.261  0.00  0.00     0.072 C 
ATOM     11  C   UNL d   1      27.703 -16.542  -0.530  0.00  0.00     0.040 A 
ATOM     12  N   UNL d   1      28.566 -17.006  -1.512  0.00  0.00    -0.337 N 
ATOM     13  H   UNL d   1      28.725 -17.968  -1.766  0.00  0.00     0.168 HD
BRANCH  11  14
ATOM     14  C   UNL d   1      26.824 -17.452   0.288  0.00  0.00     0.097 C 
BRANCH  14  15
ATOM     15  C   UNL d   1      25.377 -17.505  -0.165  0.00  0.00    -0.052 A 
ATOM     16  C   UNL d   1      24.532 -18.575   0.162  0.00  0.00     0.007 A 
ATOM     17  C   UNL d   1      23.184 -18.544  -0.214  0.00  0.00     0.001 A 
ATOM     18  C   UNL d   1      22.640 -17.400  -0.796  0.00  0.00     0.000 A 
ATOM     19  C   UNL d   1      23.464 -16.326  -1.108  0.00  0.00     0.001 A 
ATOM     20  C   UNL d   1      24.836 -16.416  -0.866  0.00  0.00     0.007 A 
ENDBRANCH  14  15
ENDBRANCH  11  14
ENDBRANCH   6   7
ENDBRANCH   5   6
ENDBRANCH   2   5
BRANCH   1  21
ATOM     21  C   UNL d   1      27.390 -13.342  -4.093  0.00  0.00     0.060 A 
ATOM     22  C   UNL d   1      26.096 -13.695  -4.262  0.00  0.00     0.047 A 
ATOM     23  C   UNL d   1      25.530 -15.073  -4.431  0.00  0.00     0.072 C 
ATOM     24  N   UNL d   1      25.285 -12.552  -4.305  0.00  0.00    -0.300 N 
ATOM     25  N   UNL d   1      26.005 -11.383  -4.047  0.00  0.00    -0.282 N 
ATOM     26  H   UNL d   1      24.354 -12.632  -3.890  0.00  0.00     0.187 HD
ATOM     27  C   UNL d   1      27.460 -11.806  -3.855  0.00  0.00     0.156 A 
ATOM     28  C   UNL d   1      28.449 -11.091  -4.759  0.00  0.00     0.041 C 
BRANCH  25  29
ATOM     29  C   UNL d   1      25.632 -10.138  -4.610  0.00  0.00     0.051 A 
ATOM     30  C   UNL d   1      25.277  -9.061  -3.779  0.00  0.00     0.031 A 
ATOM     31  C   UNL d   1      24.894  -7.806  -4.304  0.00  0.00     0.002 A 
ATOM     32  C   UNL d   1      24.924  -7.568  -5.674  0.00  0.00     0.000 A 
ATOM     33  C   UNL d   1      25.276  -8.605  -6.521  0.00  0.00     0.002 A 
ATOM     34  C   UNL d   1      25.578  -9.871  -5.992  0.00  0.00     0.031 A 
ENDBRANCH  25  29
ENDBRANCH   1  21
TORSDOF 7
ENDMDL
MODEL 5
REMARK VINA RESULT:    -7.437      2.582      9.162
REMARK INTER + INTRA:         -11.767
REMARK INTER:                  -9.525
REMARK INTRA:                  -2.242
REMARK CONF_INDEPENDENT:        2.088
REMARK UNBOUND:                -2.242
REMARK  7 active torsions:
REMARK  status: ('A' for Active; 'I' for Inactive)
REMARK    1  A    between atoms: C_3  and  N_4 
REMARK       I    between atoms: N_4  and  C_5 
REMARK    2  A    between atoms: C_5  and  C_7 
REMARK    3  A    between atoms: C_7  and  S_8 
REMARK    4  A    between atoms: S_8  and  C_9 
REMARK    5  A    between atoms: C_13  and  C_14 
REMARK    6  A    between atoms: C_14  and  C_15 
REMARK    7  A    between atoms: N_24  and  C_25 
ROOT
ATOM      1  N   UNL d   1      28.792 -12.188   4.280  0.00  0.00    -0.326 N 
ATOM      2  C   UNL d   1      27.916 -11.126   4.086  0.00  0.00     0.231 C 
ATOM      3  O   UNL d   1      27.382 -10.558   5.048  0.00  0.00    -0.272 OA
ATOM      4  H   UNL d   1      29.435 -12.419   3.533  0.00  0.00     0.168 HD
ENDROOT
BRANCH   2   5
ATOM      5  C   UNL d   1      27.690 -10.613   2.641  0.00  0.00     0.185 C 
BRANCH   5   6
ATOM      6  S   UNL d   1      26.648 -11.828   1.765  0.00  0.00    -0.083 SA
BRANCH   6   7
ATOM      7  C   UNL d   1      27.514 -13.287   1.482  0.00  0.00     0.167 A 
ATOM      8  N   UNL d   1      28.800 -13.393   1.710  0.00  0.00    -0.228 NA
ATOM      9  C   UNL d   1      29.176 -14.624   1.240  0.00  0.00     0.056 A 
ATOM     10  C   UNL d   1      30.599 -15.033   1.353  0.00  0.00     0.072 C 
ATOM     11  C   UNL d   1      28.076 -15.303   0.726  0.00  0.00     0.040 A 
ATOM     12  N   UNL d   1      27.022 -14.418   0.898  0.00  0.00    -0.337 N 
ATOM     13  H   UNL d   1      26.065 -14.560   0.617  0.00  0.00     0.168 HD
BRANCH  11  14
ATOM     14  C   UNL d   1      27.909 -16.668   0.108  0.00  0.00     0.097 C 
BRANCH  14  15
ATOM     15  C   UNL d   1      26.476 -17.039  -0.223  0.00  0.00    -0.052 A 
ATOM     16  C   UNL d   1      25.760 -17.986   0.522  0.00  0.00     0.007 A 
ATOM     17  C   UNL d   1      24.416 -18.241   0.226  0.00  0.00     0.001 A 
ATOM     18  C   UNL d   1      23.742 -17.466  -0.718  0.00  0.00     0.000 A 
ATOM     19  C   UNL d   1      24.437 -16.511  -1.449  0.00  0.00     0.001 A 
ATOM     20  C   UNL d   1      25.811 -16.359  -1.256  0.00  0.00     0.007 A 
ENDBRANCH  14  15
ENDBRANCH  11  14
ENDBRANCH   6   7
ENDBRANCH   5   6
ENDBRANCH   2   5
BRANCH   1  21
ATOM     21  C   UNL d   1      28.938 -12.894   5.481  0.00  0.00     0.060 A 
ATOM     22  C   UNL d   1      28.488 -14.142   5.738  0.00  0.00     0.047 A 
ATOM     23  C   UNL d   1      27.838 -15.103   4.788  0.00  0.00     0.072 C 
ATOM     24  N   UNL d   1      28.671 -14.452   7.093  0.00  0.00    -0.300 N 
ATOM     25  N   UNL d   1      29.365 -13.450   7.775  0.00  0.00    -0.282 N 
ATOM     26  H   UNL d   1      28.905 -15.421   7.316  0.00  0.00     0.187 HD
ATOM     27  C   UNL d   1      29.629 -12.340   6.759  0.00  0.00     0.156 A 
ATOM     28  C   UNL d   1      29.130 -10.968   7.180  0.00  0.00     0.041 C 
BRANCH  25  29
ATOM     29  C   UNL d   1      29.150 -13.199   9.153  0.00  0.00     0.051 A 
ATOM     30  C   UNL d   1      29.960 -12.279   9.841  0.00  0.00     0.031 A 
ATOM     31  C   UNL d   1      29.780 -12.007  11.216  0.00  0.00     0.002 A 
ATOM     32  C   UNL d   1      28.737 -12.592  11.927  0.00  0.00     0.000 A 
ATOM     33  C   UNL d   1      27.916 -13.497  11.278  0.00  0.00     0.002 A 
ATOM     34  C   UNL d   1      28.155 -13.820   9.931  0.00  0.00     0.031 A 
ENDBRANCH  25  29
ENDBRANCH   1  21
TORSDOF 7
ENDMDL
MODEL 6
REMARK VINA RESULT:    -7.414      4.431      8.051
REMARK INTER + INTRA:         -12.014
REMARK INTER:                  -9.502
REMARK INTRA:                  -2.512
REMARK CONF_INDEPENDENT:        2.088
REMARK UNBOUND:                -2.512
REMARK  7 active torsions:
REMARK  status: ('A' for Active; 'I' for Inactive)
REMARK    1  A    between atoms: C_3  and  N_4 
REMARK       I    between atoms: N_4  and  C_5 
REMARK    2  A    between atoms: C_5  and  C_7 
REMARK    3  A    between atoms: C_7  and  S_8 
REMARK    4  A    between atoms: S_8  and  C_9 
REMARK    5  A    between atoms: C_13  and  C_14 
REMARK    6  A    between atoms: C_14  and  C_15 
REMARK    7  A    between atoms: N_24  and  C_25 
ROOT
ATOM      1  N   UNL d   1      27.970 -13.594  -4.700  0.00  0.00    -0.326 N 
ATOM      2  C   UNL d   1      26.590 -13.724  -4.806  0.00  0.00     0.231 C 
ATOM      3  O   UNL d   1      26.072 -14.820  -5.060  0.00  0.00    -0.272 OA
ATOM      4  H   UNL d   1      28.338 -12.794  -4.199  0.00  0.00     0.168 HD
ENDROOT
BRANCH   2   5
ATOM      5  C   UNL d   1      25.710 -12.483  -4.512  0.00  0.00     0.185 C 
BRANCH   5   6
ATOM      6  S   UNL d   1      26.134 -11.868  -2.849  0.00  0.00    -0.083 SA
BRANCH   6   7
ATOM      7  C   UNL d   1      26.289 -13.169  -1.734  0.00  0.00     0.167 A 
ATOM      8  N   UNL d   1      26.777 -13.003  -0.529  0.00  0.00    -0.228 NA
ATOM      9  C   UNL d   1      26.891 -14.255   0.017  0.00  0.00     0.056 A 
ATOM     10  C   UNL d   1      27.430 -14.393   1.394  0.00  0.00     0.072 C 
ATOM     11  C   UNL d   1      26.435 -15.218  -0.878  0.00  0.00     0.040 A 
ATOM     12  N   UNL d   1      26.053 -14.487  -1.994  0.00  0.00    -0.337 N 
ATOM     13  H   UNL d   1      25.694 -14.856  -2.860  0.00  0.00     0.168 HD
BRANCH  11  14
ATOM     14  C   UNL d   1      26.317 -16.718  -0.799  0.00  0.00     0.097 C 
BRANCH  14  15
ATOM     15  C   UNL d   1      24.893 -17.234  -0.707  0.00  0.00    -0.052 A 
ATOM     16  C   UNL d   1      24.602 -18.562  -0.368  0.00  0.00     0.007 A 
ATOM     17  C   UNL d   1      23.272 -18.974  -0.222  0.00  0.00     0.001 A 
ATOM     18  C   UNL d   1      22.235 -18.043  -0.280  0.00  0.00     0.000 A 
ATOM     19  C   UNL d   1      22.514 -16.719  -0.597  0.00  0.00     0.001 A 
ATOM     20  C   UNL d   1      23.825 -16.341  -0.888  0.00  0.00     0.007 A 
ENDBRANCH  14  15
ENDBRANCH  11  14
ENDBRANCH   6   7
ENDBRANCH   5   6
ENDBRANCH   2   5
BRANCH   1  21
ATOM     21  C   UNL d   1      28.899 -14.549  -5.134  0.00  0.00     0.060 A 
ATOM     22  C   UNL d   1      29.275 -14.781  -6.410  0.00  0.00     0.047 A 
ATOM     23  C   UNL d   1      28.889 -14.016  -7.641  0.00  0.00     0.072 C 
ATOM     24  N   UNL d   1      30.092 -15.919  -6.474  0.00  0.00    -0.300 N 
ATOM     25  N   UNL d   1      30.389 -16.428  -5.207  0.00  0.00    -0.282 N 
ATOM     26  H   UNL d   1      30.846 -15.906  -7.164  0.00  0.00     0.187 HD
ATOM     27  C   UNL d   1      29.647 -15.546  -4.204  0.00  0.00     0.156 A 
ATOM     28  C   UNL d   1      28.733 -16.303  -3.255  0.00  0.00     0.041 C 
BRANCH  25  29
ATOM     29  C   UNL d   1      30.625 -17.808  -4.995  0.00  0.00     0.051 A 
ATOM     30  C   UNL d   1      30.407 -18.733  -6.031  0.00  0.00     0.031 A 
ATOM     31  C   UNL d   1      30.626 -20.118  -5.855  0.00  0.00     0.002 A 
ATOM     32  C   UNL d   1      31.139 -20.611  -4.660  0.00  0.00     0.000 A 
ATOM     33  C   UNL d   1      31.373 -19.727  -3.621  0.00  0.00     0.002 A 
ATOM     34  C   UNL d   1      31.076 -18.363  -3.782  0.00  0.00     0.031 A 
ENDBRANCH  25  29
ENDBRANCH   1  21
TORSDOF 7
ENDMDL
MODEL 7
REMARK VINA RESULT:    -6.846      3.099      6.394
REMARK INTER + INTRA:         -11.947
REMARK INTER:                  -8.935
REMARK INTRA:                  -3.012
REMARK CONF_INDEPENDENT:        2.088
REMARK UNBOUND:                -3.012
REMARK  7 active torsions:
REMARK  status: ('A' for Active; 'I' for Inactive)
REMARK    1  A    between atoms: C_3  and  N_4 
REMARK       I    between atoms: N_4  and  C_5 
REMARK    2  A    between atoms: C_5  and  C_7 
REMARK    3  A    between atoms: C_7  and  S_8 
REMARK    4  A    between atoms: S_8  and  C_9 
REMARK    5  A    between atoms: C_13  and  C_14 
REMARK    6  A    between atoms: C_14  and  C_15 
REMARK    7  A    between atoms: N_24  and  C_25 
ROOT
ATOM      1  N   UNL d   1      28.593 -15.536   1.079  0.00  0.00    -0.326 N 
ATOM      2  C   UNL d   1      28.810 -14.556   2.041  0.00  0.00     0.231 C 
ATOM      3  O   UNL d   1      27.879 -13.850   2.452  0.00  0.00    -0.272 OA
ATOM      4  H   UNL d   1      29.273 -16.282   0.996  0.00  0.00     0.168 HD
ENDROOT
BRANCH   2   5
ATOM      5  C   UNL d   1      30.229 -14.425   2.651  0.00  0.00     0.185 C 
BRANCH   5   6
ATOM      6  S   UNL d   1      31.427 -14.309   1.280  0.00  0.00    -0.083 SA
BRANCH   6   7
ATOM      7  C   UNL d   1      30.662 -14.615  -0.230  0.00  0.00     0.167 A 
ATOM      8  N   UNL d   1      30.557 -15.822  -0.729  0.00  0.00    -0.228 NA
ATOM      9  C   UNL d   1      30.037 -15.676  -1.989  0.00  0.00     0.056 A 
ATOM     10  C   UNL d   1      29.808 -16.887  -2.817  0.00  0.00     0.072 C 
ATOM     11  C   UNL d   1      29.795 -14.333  -2.260  0.00  0.00     0.040 A 
ATOM     12  N   UNL d   1      30.206 -13.677  -1.109  0.00  0.00    -0.337 N 
ATOM     13  H   UNL d   1      30.202 -12.682  -0.951  0.00  0.00     0.168 HD
BRANCH  11  14
ATOM     14  C   UNL d   1      29.227 -13.615  -3.457  0.00  0.00     0.097 C 
BRANCH  14  15
ATOM     15  C   UNL d   1      27.731 -13.780  -3.639  0.00  0.00    -0.052 A 
ATOM     16  C   UNL d   1      26.830 -12.732  -3.403  0.00  0.00     0.007 A 
ATOM     17  C   UNL d   1      25.465 -12.909  -3.657  0.00  0.00     0.001 A 
ATOM     18  C   UNL d   1      25.007 -14.075  -4.270  0.00  0.00     0.000 A 
ATOM     19  C   UNL d   1      25.894 -15.113  -4.526  0.00  0.00     0.001 A 
ATOM     20  C   UNL d   1      27.228 -14.993  -4.137  0.00  0.00     0.007 A 
ENDBRANCH  14  15
ENDBRANCH  11  14
ENDBRANCH   6   7
ENDBRANCH   5   6
ENDBRANCH   2   5
BRANCH   1  21
ATOM     21  C   UNL d   1      27.440 -15.640   0.290  0.00  0.00     0.060 A 
ATOM     22  C   UNL d   1      26.697 -14.616  -0.185  0.00  0.00     0.047 A 
ATOM     23  C   UNL d   1      26.979 -13.147  -0.085  0.00  0.00     0.072 C 
ATOM     24  N   UNL d   1      25.531 -15.106  -0.790  0.00  0.00    -0.300 N 
ATOM     25  N   UNL d   1      25.509 -16.501  -0.843  0.00  0.00    -0.282 N 
ATOM     26  H   UNL d   1      25.190 -14.599  -1.609  0.00  0.00     0.187 HD
ATOM     27  C   UNL d   1      26.788 -16.979  -0.157  0.00  0.00     0.156 A 
ATOM     28  C   UNL d   1      26.564 -17.962   0.980  0.00  0.00     0.041 C 
BRANCH  25  29
ATOM     29  C   UNL d   1      24.295 -17.230  -0.806  0.00  0.00     0.051 A 
ATOM     30  C   UNL d   1      23.063 -16.564  -0.933  0.00  0.00     0.031 A 
ATOM     31  C   UNL d   1      21.832 -17.256  -0.894  0.00  0.00     0.002 A 
ATOM     32  C   UNL d   1      21.797 -18.643  -0.801  0.00  0.00     0.000 A 
ATOM     33  C   UNL d   1      22.992 -19.331  -0.681  0.00  0.00     0.002 A 
ATOM     34  C   UNL d   1      24.207 -18.625  -0.640  0.00  0.00     0.031 A 
ENDBRANCH  25  29
ENDBRANCH   1  21
TORSDOF 7
ENDMDL
MODEL 8
REMARK VINA RESULT:    -6.709      2.474      7.632
REMARK INTER + INTRA:         -12.020
REMARK INTER:                  -8.797
REMARK INTRA:                  -3.224
REMARK CONF_INDEPENDENT:        2.088
REMARK UNBOUND:                -3.224
REMARK  7 active torsions:
REMARK  status: ('A' for Active; 'I' for Inactive)
REMARK    1  A    between atoms: C_3  and  N_4 
REMARK       I    between atoms: N_4  and  C_5 
REMARK    2  A    between atoms: C_5  and  C_7 
REMARK    3  A    between atoms: C_7  and  S_8 
REMARK    4  A    between atoms: S_8  and  C_9 
REMARK    5  A    between atoms: C_13  and  C_14 
REMARK    6  A    between atoms: C_14  and  C_15 
REMARK    7  A    between atoms: N_24  and  C_25 
ROOT
ATOM      1  N   UNL d   1      29.054 -14.546  -1.265  0.00  0.00    -0.326 N 
ATOM      2  C   UNL d   1      29.370 -15.829  -1.695  0.00  0.00     0.231 C 
ATOM      3  O   UNL d   1      28.797 -16.819  -1.218  0.00  0.00    -0.272 OA
ATOM      4  H   UNL d   1      29.294 -13.768  -1.868  0.00  0.00     0.168 HD
ENDROOT
BRANCH   2   5
ATOM      5  C   UNL d   1      30.395 -15.989  -2.846  0.00  0.00     0.185 C 
BRANCH   5   6
ATOM      6  S   UNL d   1      29.492 -15.881  -4.427  0.00  0.00    -0.083 SA
BRANCH   6   7
ATOM      7  C   UNL d   1      27.883 -15.325  -4.178  0.00  0.00     0.167 A 
ATOM      8  N   UNL d   1      27.398 -14.283  -4.807  0.00  0.00    -0.228 NA
ATOM      9  C   UNL d   1      26.163 -14.043  -4.263  0.00  0.00     0.056 A 
ATOM     10  C   UNL d   1      25.361 -12.903  -4.773  0.00  0.00     0.072 C 
ATOM     11  C   UNL d   1      25.875 -14.986  -3.282  0.00  0.00     0.040 A 
ATOM     12  N   UNL d   1      26.999 -15.798  -3.253  0.00  0.00    -0.337 N 
ATOM     13  H   UNL d   1      27.160 -16.581  -2.639  0.00  0.00     0.168 HD
BRANCH  11  14
ATOM     14  C   UNL d   1      24.680 -15.207  -2.390  0.00  0.00     0.097 C 
BRANCH  14  15
ATOM     15  C   UNL d   1      24.829 -16.353  -1.407  0.00  0.00    -0.052 A 
ATOM     16  C   UNL d   1      23.953 -17.447  -1.398  0.00  0.00     0.007 A 
ATOM     17  C   UNL d   1      24.176 -18.516  -0.522  0.00  0.00     0.001 A 
ATOM     18  C   UNL d   1      25.336 -18.567   0.249  0.00  0.00     0.000 A 
ATOM     19  C   UNL d   1      26.222 -17.497   0.233  0.00  0.00     0.001 A 
ATOM     20  C   UNL d   1      25.925 -16.366  -0.529  0.00  0.00     0.007 A 
ENDBRANCH  14  15
ENDBRANCH  11  14
ENDBRANCH   6   7
ENDBRANCH   5   6
ENDBRANCH   2   5
BRANCH   1  21
ATOM     21  C   UNL d   1      28.319 -14.247  -0.110  0.00  0.00     0.060 A 
ATOM     22  C   UNL d   1      27.306 -13.359  -0.011  0.00  0.00     0.047 A 
ATOM     23  C   UNL d   1      26.656 -12.574  -1.110  0.00  0.00     0.072 C 
ATOM     24  N   UNL d   1      26.927 -13.207   1.331  0.00  0.00    -0.300 N 
ATOM     25  N   UNL d   1      27.606 -14.089   2.175  0.00  0.00    -0.282 N 
ATOM     26  H   UNL d   1      25.933 -13.053   1.513  0.00  0.00     0.187 HD
ATOM     27  C   UNL d   1      28.570 -14.877   1.290  0.00  0.00     0.156 A 
ATOM     28  C   UNL d   1      30.021 -14.825   1.735  0.00  0.00     0.041 C 
BRANCH  25  29
ATOM     29  C   UNL d   1      27.890 -13.760   3.523  0.00  0.00     0.051 A 
ATOM     30  C   UNL d   1      28.229 -14.768   4.443  0.00  0.00     0.031 A 
ATOM     31  C   UNL d   1      28.514 -14.480   5.796  0.00  0.00     0.002 A 
ATOM     32  C   UNL d   1      28.540 -13.167   6.254  0.00  0.00     0.000 A 
ATOM     33  C   UNL d   1      28.219 -12.149   5.373  0.00  0.00     0.002 A 
ATOM     34  C   UNL d   1      27.860 -12.455   4.049  0.00  0.00     0.031 A 
ENDBRANCH  25  29
ENDBRANCH   1  21
TORSDOF 7
ENDMDL
MODEL 9
REMARK VINA RESULT:    -6.561      3.032      7.640
REMARK INTER + INTRA:         -11.868
REMARK INTER:                  -8.649
REMARK INTRA:                  -3.219
REMARK CONF_INDEPENDENT:        2.088
REMARK UNBOUND:                -3.219
REMARK  7 active torsions:
REMARK  status: ('A' for Active; 'I' for Inactive)
REMARK    1  A    between atoms: C_3  and  N_4 
REMARK       I    between atoms: N_4  and  C_5 
REMARK    2  A    between atoms: C_5  and  C_7 
REMARK    3  A    between atoms: C_7  and  S_8 
REMARK    4  A    between atoms: S_8  and  C_9 
REMARK    5  A    between atoms: C_13  and  C_14 
REMARK    6  A    between atoms: C_14  and  C_15 
REMARK    7  A    between atoms: N_24  and  C_25 
ROOT
ATOM      1  N   UNL d   1      30.208 -15.001  -2.996  0.00  0.00    -0.326 N 
ATOM      2  C   UNL d   1      29.437 -15.697  -3.919  0.00  0.00     0.231 C 
ATOM      3  O   UNL d   1      28.430 -16.325  -3.562  0.00  0.00    -0.272 OA
ATOM      4  H   UNL d   1      30.815 -14.265  -3.339  0.00  0.00     0.168 HD
ENDROOT
BRANCH   2   5
ATOM      5  C   UNL d   1      29.815 -15.599  -5.418  0.00  0.00     0.185 C 
BRANCH   5   6
ATOM      6  S   UNL d   1      28.421 -14.826  -6.306  0.00  0.00    -0.083 SA
BRANCH   6   7
ATOM      7  C   UNL d   1      27.208 -14.303  -5.204  0.00  0.00     0.167 A 
ATOM      8  N   UNL d   1      27.014 -13.037  -4.928  0.00  0.00    -0.228 NA
ATOM      9  C   UNL d   1      26.087 -12.999  -3.918  0.00  0.00     0.056 A 
ATOM     10  C   UNL d   1      25.664 -11.682  -3.379  0.00  0.00     0.072 C 
ATOM     11  C   UNL d   1      25.685 -14.288  -3.582  0.00  0.00     0.040 A 
ATOM     12  N   UNL d   1      26.422 -15.103  -4.428  0.00  0.00    -0.337 N 
ATOM     13  H   UNL d   1      26.412 -16.111  -4.451  0.00  0.00     0.168 HD
BRANCH  11  14
ATOM     14  C   UNL d   1      24.700 -14.825  -2.576  0.00  0.00     0.097 C 
BRANCH  14  15
ATOM     15  C   UNL d   1      25.250 -15.912  -1.673  0.00  0.00    -0.052 A 
ATOM     16  C   UNL d   1      26.507 -15.809  -1.061  0.00  0.00     0.007 A 
ATOM     17  C   UNL d   1      26.941 -16.803  -0.176  0.00  0.00     0.001 A 
ATOM     18  C   UNL d   1      26.080 -17.831   0.208  0.00  0.00     0.000 A 
ATOM     19  C   UNL d   1      24.824 -17.933  -0.378  0.00  0.00     0.001 A 
ATOM     20  C   UNL d   1      24.449 -17.025  -1.370  0.00  0.00     0.007 A 
ENDBRANCH  14  15
ENDBRANCH  11  14
ENDBRANCH   6   7
ENDBRANCH   5   6
ENDBRANCH   2   5
BRANCH   1  21
ATOM     21  C   UNL d   1      30.126 -15.156  -1.606  0.00  0.00     0.060 A 
ATOM     22  C   UNL d   1      30.121 -16.324  -0.928  0.00  0.00     0.047 A 
ATOM     23  C   UNL d   1      30.313 -17.708  -1.472  0.00  0.00     0.072 C 
ATOM     24  N   UNL d   1      29.859 -16.094   0.430  0.00  0.00    -0.300 N 
ATOM     25  N   UNL d   1      29.793 -14.731   0.731  0.00  0.00    -0.282 N 
ATOM     26  H   UNL d   1      30.335 -16.700   1.101  0.00  0.00     0.187 HD
ATOM     27  C   UNL d   1      29.993 -13.987  -0.588  0.00  0.00     0.156 A 
ATOM     28  C   UNL d   1      28.890 -13.000  -0.929  0.00  0.00     0.041 C 
BRANCH  25  29
ATOM     29  C   UNL d   1      28.977 -14.238   1.778  0.00  0.00     0.051 A 
ATOM     30  C   UNL d   1      29.503 -14.075   3.072  0.00  0.00     0.031 A 
ATOM     31  C   UNL d   1      28.719 -13.591   4.143  0.00  0.00     0.002 A 
ATOM     32  C   UNL d   1      27.404 -13.186   3.936  0.00  0.00     0.000 A 
ATOM     33  C   UNL d   1      26.857 -13.325   2.673  0.00  0.00     0.002 A 
ATOM     34  C   UNL d   1      27.622 -13.882   1.634  0.00  0.00     0.031 A 
ENDBRANCH  25  29
ENDBRANCH   1  21
TORSDOF 7
ENDMDL
