MODEL 1
REMARK VINA RESULT:    -9.683      0.000      0.000
REMARK INTER + INTRA:         -15.276
REMARK INTER:                 -14.157
REMARK INTRA:                  -1.118
REMARK CONF_INDEPENDENT:        4.474
REMARK UNBOUND:                -1.118
REMARK  15 active torsions:
REMARK  status: ('A' for Active; 'I' for Inactive)
REMARK    1  A    between atoms: C_2  and  C_3 
REMARK    2  A    between atoms: C_3  and  O_4 
REMARK    3  A    between atoms: O_4  and  C_5 
REMARK    4  A    between atoms: C_8  and  C_9 
REMARK    5  A    between atoms: C_9  and  C_10 
REMARK    6  A    between atoms: C_10  and  C_11 
REMARK       I    between atoms: C_11  and  N_13 
REMARK    7  A    between atoms: N_13  and  N_14 
REMARK    8  A    between atoms: C_15  and  C_16 
REMARK    9  A    between atoms: N_18  and  N_19 
REMARK       I    between atoms: N_19  and  C_20 
REMARK   10  A    between atoms: C_20  and  C_22 
REMARK   11  A    between atoms: C_22  and  C_23 
REMARK   12  A    between atoms: C_23  and  C_24 
REMARK   13  A    between atoms: C_27  and  O_28 
REMARK   14  A    between atoms: O_28  and  C_29 
REMARK   15  A    between atoms: C_29  and  C_30 
ROOT
ATOM      1  C   UNL d   1      26.121 -13.004  -3.714  0.00  0.00     0.070 C 
ATOM      2  C   UNL d   1      27.562 -13.258  -4.070  0.00  0.00     0.074 C 
ATOM      3  N   UNL d   1      25.346 -13.873  -3.122  0.00  0.00    -0.176 NA
ENDROOT
BRANCH   1   4
ATOM      4  C   UNL d   1      25.527 -11.630  -4.073  0.00  0.00     0.167 C 
ATOM      5  N   UNL d   1      25.682 -10.626  -3.268  0.00  0.00    -0.183 NA
BRANCH   5   6
ATOM      6  N   UNL d   1      25.151  -9.390  -3.593  0.00  0.00    -0.247 N 
ATOM      7  C   UNL d   1      25.314  -8.922  -4.904  0.00  0.00     0.237 C 
ATOM      8  O   UNL d   1      25.909  -9.547  -5.785  0.00  0.00    -0.272 OA
ATOM      9  H   UNL d   1      24.658  -8.846  -2.890  0.00  0.00     0.192 HD
BRANCH   7  10
ATOM     10  C   UNL d   1      24.696  -7.557  -5.186  0.00  0.00     0.109 C 
BRANCH  10  11
ATOM     11  C   UNL d   1      24.412  -7.328  -6.689  0.00  0.00     0.048 C 
BRANCH  11  12
ATOM     12  C   UNL d   1      23.084  -6.663  -7.013  0.00  0.00    -0.058 A 
ATOM     13  C   UNL d   1      22.095  -6.554  -6.023  0.00  0.00     0.010 A 
ATOM     14  C   UNL d   1      20.826  -6.044  -6.334  0.00  0.00     0.037 A 
ATOM     15  C   UNL d   1      20.547  -5.566  -7.614  0.00  0.00     0.068 A 
ATOM     16  C   UNL d   1      21.530  -5.643  -8.593  0.00  0.00     0.037 A 
ATOM     17  C   UNL d   1      22.783  -6.182  -8.293  0.00  0.00     0.010 A 
BRANCH  15  18
ATOM     18  O   UNL d   1      19.335  -4.951  -7.770  0.00  0.00    -0.351 OA
BRANCH  18  19
ATOM     19  C   UNL d   1      18.414  -5.576  -8.663  0.00  0.00     0.175 C 
BRANCH  19  20
ATOM     20  C   UNL d   1      18.778  -7.055  -8.765  0.00  0.00     0.022 C 
ATOM     21  C   UNL d   1      18.162  -7.849  -7.627  0.00  0.00     0.007 C 
ENDBRANCH  19  20
ENDBRANCH  18  19
ENDBRANCH  15  18
ENDBRANCH  11  12
ENDBRANCH  10  11
ENDBRANCH   7  10
ENDBRANCH   5   6
ENDBRANCH   1   4
BRANCH   3  22
ATOM     22  N   UNL d   1      25.846 -15.129  -2.787  0.00  0.00    -0.247 N 
ATOM     23  C   UNL d   1      26.400 -15.341  -1.523  0.00  0.00     0.237 C 
ATOM     24  O   UNL d   1      26.492 -14.464  -0.659  0.00  0.00    -0.272 OA
ATOM     25  H   UNL d   1      25.809 -15.888  -3.461  0.00  0.00     0.192 HD
BRANCH  23  26
ATOM     26  C   UNL d   1      26.918 -16.758  -1.281  0.00  0.00     0.109 C 
BRANCH  26  27
ATOM     27  C   UNL d   1      26.097 -17.490  -0.199  0.00  0.00     0.048 C 
BRANCH  27  28
ATOM     28  C   UNL d   1      24.623 -17.685  -0.499  0.00  0.00    -0.058 A 
ATOM     29  C   UNL d   1      23.804 -16.581  -0.788  0.00  0.00     0.010 A 
ATOM     30  C   UNL d   1      22.410 -16.725  -0.866  0.00  0.00     0.037 A 
ATOM     31  C   UNL d   1      21.818 -17.983  -0.740  0.00  0.00     0.068 A 
ATOM     32  C   UNL d   1      22.631 -19.082  -0.473  0.00  0.00     0.037 A 
ATOM     33  C   UNL d   1      24.011 -18.932  -0.349  0.00  0.00     0.010 A 
BRANCH  31  34
ATOM     34  O   UNL d   1      20.458 -18.035  -0.899  0.00  0.00    -0.351 OA
BRANCH  34  35
ATOM     35  C   UNL d   1      19.893 -19.350  -0.932  0.00  0.00     0.175 C 
BRANCH  35  36
ATOM     36  C   UNL d   1      19.160 -19.625   0.373  0.00  0.00     0.022 C 
ATOM     37  C   UNL d   1      19.004 -21.120   0.604  0.00  0.00     0.007 C 
ENDBRANCH  35  36
ENDBRANCH  34  35
ENDBRANCH  31  34
ENDBRANCH  27  28
ENDBRANCH  26  27
ENDBRANCH  23  26
ENDBRANCH   3  22
TORSDOF 15
ENDMDL
MODEL 2
REMARK VINA RESULT:    -8.995      1.320     11.886
REMARK INTER + INTRA:         -14.820
REMARK INTER:                 -13.469
REMARK INTRA:                  -1.351
REMARK CONF_INDEPENDENT:        4.474
REMARK UNBOUND:                -1.351
REMARK  15 active torsions:
REMARK  status: ('A' for Active; 'I' for Inactive)
REMARK    1  A    between atoms: C_2  and  C_3 
REMARK    2  A    between atoms: C_3  and  O_4 
REMARK    3  A    between atoms: O_4  and  C_5 
REMARK    4  A    between atoms: C_8  and  C_9 
REMARK    5  A    between atoms: C_9  and  C_10 
REMARK    6  A    between atoms: C_10  and  C_11 
REMARK       I    between atoms: C_11  and  N_13 
REMARK    7  A    between atoms: N_13  and  N_14 
REMARK    8  A    between atoms: C_15  and  C_16 
REMARK    9  A    between atoms: N_18  and  N_19 
REMARK       I    between atoms: N_19  and  C_20 
REMARK   10  A    between atoms: C_20  and  C_22 
REMARK   11  A    between atoms: C_22  and  C_23 
REMARK   12  A    between atoms: C_23  and  C_24 
REMARK   13  A    between atoms: C_27  and  O_28 
REMARK   14  A    between atoms: O_28  and  C_29 
REMARK   15  A    between atoms: C_29  and  C_30 
ROOT
ATOM      1  C   UNL d   1      25.679 -10.480  -4.524  0.00  0.00     0.070 C 
ATOM      2  C   UNL d   1      25.773 -10.202  -6.001  0.00  0.00     0.074 C 
ATOM      3  N   UNL d   1      25.301  -9.602  -3.634  0.00  0.00    -0.176 NA
ENDROOT
BRANCH   1   4
ATOM      4  C   UNL d   1      26.055 -11.891  -4.036  0.00  0.00     0.167 C 
ATOM      5  N   UNL d   1      26.027 -12.168  -2.771  0.00  0.00    -0.183 NA
BRANCH   5   6
ATOM      6  N   UNL d   1      26.362 -13.438  -2.332  0.00  0.00    -0.247 N 
ATOM      7  C   UNL d   1      25.608 -14.522  -2.804  0.00  0.00     0.237 C 
ATOM      8  O   UNL d   1      24.659 -14.408  -3.583  0.00  0.00    -0.272 OA
ATOM      9  H   UNL d   1      27.135 -13.567  -1.688  0.00  0.00     0.192 HD
BRANCH   7  10
ATOM     10  C   UNL d   1      26.041 -15.888  -2.282  0.00  0.00     0.109 C 
BRANCH  10  11
ATOM     11  C   UNL d   1      25.436 -16.218  -0.897  0.00  0.00     0.048 C 
BRANCH  11  12
ATOM     12  C   UNL d   1      24.211 -17.119  -0.913  0.00  0.00    -0.058 A 
ATOM     13  C   UNL d   1      22.926 -16.555  -0.941  0.00  0.00     0.010 A 
ATOM     14  C   UNL d   1      21.787 -17.368  -0.846  0.00  0.00     0.037 A 
ATOM     15  C   UNL d   1      21.908 -18.757  -0.796  0.00  0.00     0.068 A 
ATOM     16  C   UNL d   1      23.176 -19.325  -0.797  0.00  0.00     0.037 A 
ATOM     17  C   UNL d   1      24.312 -18.514  -0.858  0.00  0.00     0.010 A 
BRANCH  15  18
ATOM     18  O   UNL d   1      20.737 -19.460  -0.859  0.00  0.00    -0.351 OA
BRANCH  18  19
ATOM     19  C   UNL d   1      20.006 -19.591   0.360  0.00  0.00     0.175 C 
BRANCH  19  20
ATOM     20  C   UNL d   1      19.071 -20.791   0.229  0.00  0.00     0.022 C 
ATOM     21  C   UNL d   1      18.327 -21.048   1.527  0.00  0.00     0.007 C 
ENDBRANCH  19  20
ENDBRANCH  18  19
ENDBRANCH  15  18
ENDBRANCH  11  12
ENDBRANCH  10  11
ENDBRANCH   7  10
ENDBRANCH   5   6
ENDBRANCH   1   4
BRANCH   3  22
ATOM     22  N   UNL d   1      24.959  -8.314  -4.035  0.00  0.00    -0.247 N 
ATOM     23  C   UNL d   1      25.960  -7.414  -4.407  0.00  0.00     0.237 C 
ATOM     24  O   UNL d   1      27.164  -7.683  -4.394  0.00  0.00    -0.272 OA
ATOM     25  H   UNL d   1      23.984  -8.029  -4.055  0.00  0.00     0.192 HD
BRANCH  23  26
ATOM     26  C   UNL d   1      25.455  -6.031  -4.820  0.00  0.00     0.109 C 
BRANCH  26  27
ATOM     27  C   UNL d   1      24.956  -6.018  -6.280  0.00  0.00     0.048 C 
BRANCH  27  28
ATOM     28  C   UNL d   1      23.456  -5.888  -6.470  0.00  0.00    -0.058 A 
ATOM     29  C   UNL d   1      22.649  -5.391  -5.434  0.00  0.00     0.010 A 
ATOM     30  C   UNL d   1      21.250  -5.456  -5.523  0.00  0.00     0.037 A 
ATOM     31  C   UNL d   1      20.634  -5.941  -6.677  0.00  0.00     0.068 A 
ATOM     32  C   UNL d   1      21.433  -6.416  -7.714  0.00  0.00     0.037 A 
ATOM     33  C   UNL d   1      22.823  -6.394  -7.608  0.00  0.00     0.010 A 
BRANCH  31  34
ATOM     34  O   UNL d   1      19.264  -5.902  -6.700  0.00  0.00    -0.351 OA
BRANCH  34  35
ATOM     35  C   UNL d   1      18.670  -5.896  -8.003  0.00  0.00     0.175 C 
BRANCH  35  36
ATOM     36  C   UNL d   1      18.406  -7.326  -8.451  0.00  0.00     0.022 C 
ATOM     37  C   UNL d   1      18.029  -8.205  -7.270  0.00  0.00     0.007 C 
ENDBRANCH  35  36
ENDBRANCH  34  35
ENDBRANCH  31  34
ENDBRANCH  27  28
ENDBRANCH  26  27
ENDBRANCH  23  26
ENDBRANCH   3  22
TORSDOF 15
ENDMDL
MODEL 3
REMARK VINA RESULT:    -8.844      8.006     12.469
REMARK INTER + INTRA:         -14.969
REMARK INTER:                 -13.319
REMARK INTRA:                  -1.650
REMARK CONF_INDEPENDENT:        4.474
REMARK UNBOUND:                -1.650
REMARK  15 active torsions:
REMARK  status: ('A' for Active; 'I' for Inactive)
REMARK    1  A    between atoms: C_2  and  C_3 
REMARK    2  A    between atoms: C_3  and  O_4 
REMARK    3  A    between atoms: O_4  and  C_5 
REMARK    4  A    between atoms: C_8  and  C_9 
REMARK    5  A    between atoms: C_9  and  C_10 
REMARK    6  A    between atoms: C_10  and  C_11 
REMARK       I    between atoms: C_11  and  N_13 
REMARK    7  A    between atoms: N_13  and  N_14 
REMARK    8  A    between atoms: C_15  and  C_16 
REMARK    9  A    between atoms: N_18  and  N_19 
REMARK       I    between atoms: N_19  and  C_20 
REMARK   10  A    between atoms: C_20  and  C_22 
REMARK   11  A    between atoms: C_22  and  C_23 
REMARK   12  A    between atoms: C_23  and  C_24 
REMARK   13  A    between atoms: C_27  and  O_28 
REMARK   14  A    between atoms: O_28  and  C_29 
REMARK   15  A    between atoms: C_29  and  C_30 
ROOT
ATOM      1  C   UNL d   1      28.346 -13.230   4.726  0.00  0.00     0.070 C 
ATOM      2  C   UNL d   1      29.161 -13.451   5.973  0.00  0.00     0.074 C 
ATOM      3  N   UNL d   1      27.723 -12.118   4.443  0.00  0.00    -0.176 NA
ENDROOT
BRANCH   1   4
ATOM      4  C   UNL d   1      28.243 -14.394   3.724  0.00  0.00     0.167 C 
ATOM      5  N   UNL d   1      27.868 -14.168   2.504  0.00  0.00    -0.183 NA
BRANCH   5   6
ATOM      6  N   UNL d   1      27.779 -15.214   1.602  0.00  0.00    -0.247 N 
ATOM      7  C   UNL d   1      27.018 -15.024   0.439  0.00  0.00     0.237 C 
ATOM      8  O   UNL d   1      26.419 -13.978   0.177  0.00  0.00    -0.272 OA
ATOM      9  H   UNL d   1      28.257 -16.090   1.788  0.00  0.00     0.192 HD
BRANCH   7  10
ATOM     10  C   UNL d   1      26.973 -16.217  -0.508  0.00  0.00     0.109 C 
BRANCH  10  11
ATOM     11  C   UNL d   1      26.289 -17.454   0.121  0.00  0.00     0.048 C 
BRANCH  11  12
ATOM     12  C   UNL d   1      24.813 -17.624  -0.203  0.00  0.00    -0.058 A 
ATOM     13  C   UNL d   1      24.029 -16.500  -0.505  0.00  0.00     0.010 A 
ATOM     14  C   UNL d   1      22.645 -16.625  -0.697  0.00  0.00     0.037 A 
ATOM     15  C   UNL d   1      22.034 -17.879  -0.665  0.00  0.00     0.068 A 
ATOM     16  C   UNL d   1      22.809 -19.001  -0.394  0.00  0.00     0.037 A 
ATOM     17  C   UNL d   1      24.181 -18.872  -0.170  0.00  0.00     0.010 A 
BRANCH  15  18
ATOM     18  O   UNL d   1      20.713 -17.908  -1.015  0.00  0.00    -0.351 OA
BRANCH  18  19
ATOM     19  C   UNL d   1      20.065 -19.179  -0.955  0.00  0.00     0.175 C 
BRANCH  19  20
ATOM     20  C   UNL d   1      19.483 -19.351   0.445  0.00  0.00     0.022 C 
ATOM     21  C   UNL d   1      19.672 -20.773   0.944  0.00  0.00     0.007 C 
ENDBRANCH  19  20
ENDBRANCH  18  19
ENDBRANCH  15  18
ENDBRANCH  11  12
ENDBRANCH  10  11
ENDBRANCH   7  10
ENDBRANCH   5   6
ENDBRANCH   1   4
BRANCH   3  22
ATOM     22  N   UNL d   1      27.788 -11.045   5.328  0.00  0.00    -0.247 N 
ATOM     23  C   UNL d   1      28.958 -10.286   5.414  0.00  0.00     0.237 C 
ATOM     24  O   UNL d   1      29.973 -10.514   4.750  0.00  0.00    -0.272 OA
ATOM     25  H   UNL d   1      26.988 -10.816   5.909  0.00  0.00     0.192 HD
BRANCH  23  26
ATOM     26  C   UNL d   1      28.904  -9.142   6.426  0.00  0.00     0.109 C 
BRANCH  26  27
ATOM     27  C   UNL d   1      29.941  -9.327   7.553  0.00  0.00     0.048 C 
BRANCH  27  28
ATOM     28  C   UNL d   1      29.850 -10.622   8.337  0.00  0.00    -0.058 A 
ATOM     29  C   UNL d   1      28.653 -11.356   8.360  0.00  0.00     0.010 A 
ATOM     30  C   UNL d   1      28.495 -12.439   9.238  0.00  0.00     0.037 A 
ATOM     31  C   UNL d   1      29.552 -12.858  10.046  0.00  0.00     0.068 A 
ATOM     32  C   UNL d   1      30.747 -12.143  10.010  0.00  0.00     0.037 A 
ATOM     33  C   UNL d   1      30.890 -11.039   9.172  0.00  0.00     0.010 A 
BRANCH  31  34
ATOM     34  O   UNL d   1      29.327 -13.967  10.821  0.00  0.00    -0.351 OA
BRANCH  34  35
ATOM     35  C   UNL d   1      29.193 -15.199  10.105  0.00  0.00     0.175 C 
BRANCH  35  36
ATOM     36  C   UNL d   1      30.407 -16.078  10.369  0.00  0.00     0.022 C 
ATOM     37  C   UNL d   1      30.986 -15.804  11.747  0.00  0.00     0.007 C 
ENDBRANCH  35  36
ENDBRANCH  34  35
ENDBRANCH  31  34
ENDBRANCH  27  28
ENDBRANCH  26  27
ENDBRANCH  23  26
ENDBRANCH   3  22
TORSDOF 15
ENDMDL
MODEL 4
REMARK VINA RESULT:    -8.320      4.031      5.460
REMARK INTER + INTRA:         -14.966
REMARK INTER:                 -12.794
REMARK INTRA:                  -2.171
REMARK CONF_INDEPENDENT:        4.474
REMARK UNBOUND:                -2.171
REMARK  15 active torsions:
REMARK  status: ('A' for Active; 'I' for Inactive)
REMARK    1  A    between atoms: C_2  and  C_3 
REMARK    2  A    between atoms: C_3  and  O_4 
REMARK    3  A    between atoms: O_4  and  C_5 
REMARK    4  A    between atoms: C_8  and  C_9 
REMARK    5  A    between atoms: C_9  and  C_10 
REMARK    6  A    between atoms: C_10  and  C_11 
REMARK       I    between atoms: C_11  and  N_13 
REMARK    7  A    between atoms: N_13  and  N_14 
REMARK    8  A    between atoms: C_15  and  C_16 
REMARK    9  A    between atoms: N_18  and  N_19 
REMARK       I    between atoms: N_19  and  C_20 
REMARK   10  A    between atoms: C_20  and  C_22 
REMARK   11  A    between atoms: C_22  and  C_23 
REMARK   12  A    between atoms: C_23  and  C_24 
REMARK   13  A    between atoms: C_27  and  O_28 
REMARK   14  A    between atoms: O_28  and  C_29 
REMARK   15  A    between atoms: C_29  and  C_30 
ROOT
ATOM      1  C   UNL d   1      27.339 -15.202  -4.246  0.00  0.00     0.070 C 
ATOM      2  C   UNL d   1      25.876 -15.539  -4.128  0.00  0.00     0.074 C 
ATOM      3  N   UNL d   1      28.235 -15.496  -3.343  0.00  0.00    -0.176 NA
ENDROOT
BRANCH   1   4
ATOM      4  C   UNL d   1      27.802 -14.461  -5.513  0.00  0.00     0.167 C 
ATOM      5  N   UNL d   1      28.650 -15.021  -6.318  0.00  0.00    -0.183 NA
BRANCH   5   6
ATOM      6  N   UNL d   1      29.064 -14.356  -7.459  0.00  0.00    -0.247 N 
ATOM      7  C   UNL d   1      30.200 -13.538  -7.375  0.00  0.00     0.237 C 
ATOM      8  O   UNL d   1      30.847 -13.371  -6.339  0.00  0.00    -0.272 OA
ATOM      9  H   UNL d   1      28.552 -14.469  -8.329  0.00  0.00     0.192 HD
BRANCH   7  10
ATOM     10  C   UNL d   1      30.597 -12.846  -8.674  0.00  0.00     0.109 C 
BRANCH  10  11
ATOM     11  C   UNL d   1      29.394 -12.196  -9.398  0.00  0.00     0.048 C 
BRANCH  11  12
ATOM     12  C   UNL d   1      28.492 -11.335  -8.528  0.00  0.00    -0.058 A 
ATOM     13  C   UNL d   1      29.054 -10.476  -7.571  0.00  0.00     0.010 A 
ATOM     14  C   UNL d   1      28.235  -9.758  -6.687  0.00  0.00     0.037 A 
ATOM     15  C   UNL d   1      26.846  -9.827  -6.791  0.00  0.00     0.068 A 
ATOM     16  C   UNL d   1      26.281 -10.654  -7.755  0.00  0.00     0.037 A 
ATOM     17  C   UNL d   1      27.096 -11.395  -8.613  0.00  0.00     0.010 A 
BRANCH  15  18
ATOM     18  O   UNL d   1      26.144  -8.974  -5.985  0.00  0.00    -0.351 OA
BRANCH  18  19
ATOM     19  C   UNL d   1      25.274  -9.574  -5.025  0.00  0.00     0.175 C 
BRANCH  19  20
ATOM     20  C   UNL d   1      26.111 -10.476  -4.122  0.00  0.00     0.022 C 
ATOM     21  C   UNL d   1      25.906 -11.940  -4.470  0.00  0.00     0.007 C 
ENDBRANCH  19  20
ENDBRANCH  18  19
ENDBRANCH  15  18
ENDBRANCH  11  12
ENDBRANCH  10  11
ENDBRANCH   7  10
ENDBRANCH   5   6
ENDBRANCH   1   4
BRANCH   3  22
ATOM     22  N   UNL d   1      27.853 -16.161  -2.181  0.00  0.00    -0.247 N 
ATOM     23  C   UNL d   1      27.118 -15.484  -1.204  0.00  0.00     0.237 C 
ATOM     24  O   UNL d   1      26.783 -14.300  -1.295  0.00  0.00    -0.272 OA
ATOM     25  H   UNL d   1      28.110 -17.133  -2.043  0.00  0.00     0.192 HD
BRANCH  23  26
ATOM     26  C   UNL d   1      26.768 -16.321   0.026  0.00  0.00     0.109 C 
BRANCH  26  27
ATOM     27  C   UNL d   1      26.137 -17.674  -0.364  0.00  0.00     0.048 C 
BRANCH  27  28
ATOM     28  C   UNL d   1      24.621 -17.718  -0.399  0.00  0.00    -0.058 A 
ATOM     29  C   UNL d   1      23.947 -18.948  -0.466  0.00  0.00     0.010 A 
ATOM     30  C   UNL d   1      22.565 -18.994  -0.702  0.00  0.00     0.037 A 
ATOM     31  C   UNL d   1      21.820 -17.817  -0.794  0.00  0.00     0.068 A 
ATOM     32  C   UNL d   1      22.485 -16.596  -0.709  0.00  0.00     0.037 A 
ATOM     33  C   UNL d   1      23.865 -16.549  -0.520  0.00  0.00     0.010 A 
BRANCH  31  34
ATOM     34  O   UNL d   1      20.467 -17.962  -0.957  0.00  0.00    -0.351 OA
BRANCH  34  35
ATOM     35  C   UNL d   1      19.979 -19.305  -0.878  0.00  0.00     0.175 C 
BRANCH  35  36
ATOM     36  C   UNL d   1      19.341 -19.538   0.485  0.00  0.00     0.022 C 
ATOM     37  C   UNL d   1      18.556 -20.839   0.501  0.00  0.00     0.007 C 
ENDBRANCH  35  36
ENDBRANCH  34  35
ENDBRANCH  31  34
ENDBRANCH  27  28
ENDBRANCH  26  27
ENDBRANCH  23  26
ENDBRANCH   3  22
TORSDOF 15
ENDMDL
MODEL 5
REMARK VINA RESULT:    -8.271      3.169      5.198
REMARK INTER + INTRA:         -14.636
REMARK INTER:                 -12.745
REMARK INTRA:                  -1.891
REMARK CONF_INDEPENDENT:        4.474
REMARK UNBOUND:                -1.891
REMARK  15 active torsions:
REMARK  status: ('A' for Active; 'I' for Inactive)
REMARK    1  A    between atoms: C_2  and  C_3 
REMARK    2  A    between atoms: C_3  and  O_4 
REMARK    3  A    between atoms: O_4  and  C_5 
REMARK    4  A    between atoms: C_8  and  C_9 
REMARK    5  A    between atoms: C_9  and  C_10 
REMARK    6  A    between atoms: C_10  and  C_11 
REMARK       I    between atoms: C_11  and  N_13 
REMARK    7  A    between atoms: N_13  and  N_14 
REMARK    8  A    between atoms: C_15  and  C_16 
REMARK    9  A    between atoms: N_18  and  N_19 
REMARK       I    between atoms: N_19  and  C_20 
REMARK   10  A    between atoms: C_20  and  C_22 
REMARK   11  A    between atoms: C_22  and  C_23 
REMARK   12  A    between atoms: C_23  and  C_24 
REMARK   13  A    between atoms: C_27  and  O_28 
REMARK   14  A    between atoms: O_28  and  C_29 
REMARK   15  A    between atoms: C_29  and  C_30 
ROOT
ATOM      1  C   UNL d   1      27.121 -15.098  -4.251  0.00  0.00     0.070 C 
ATOM      2  C   UNL d   1      25.618 -15.200  -4.217  0.00  0.00     0.074 C 
ATOM      3  N   UNL d   1      27.911 -15.585  -3.332  0.00  0.00    -0.176 NA
ENDROOT
BRANCH   1   4
ATOM      4  C   UNL d   1      27.761 -14.371  -5.447  0.00  0.00     0.167 C 
ATOM      5  N   UNL d   1      28.334 -15.052  -6.389  0.00  0.00    -0.183 NA
BRANCH   5   6
ATOM      6  N   UNL d   1      28.907 -14.399  -7.467  0.00  0.00    -0.247 N 
ATOM      7  C   UNL d   1      30.061 -13.635  -7.242  0.00  0.00     0.237 C 
ATOM      8  O   UNL d   1      30.592 -13.507  -6.136  0.00  0.00    -0.272 OA
ATOM      9  H   UNL d   1      28.493 -14.480  -8.390  0.00  0.00     0.192 HD
BRANCH   7  10
ATOM     10  C   UNL d   1      30.636 -12.952  -8.478  0.00  0.00     0.109 C 
BRANCH  10  11
ATOM     11  C   UNL d   1      29.807 -11.724  -8.922  0.00  0.00     0.048 C 
BRANCH  11  12
ATOM     12  C   UNL d   1      28.756 -11.248  -7.933  0.00  0.00    -0.058 A 
ATOM     13  C   UNL d   1      27.393 -11.410  -8.227  0.00  0.00     0.010 A 
ATOM     14  C   UNL d   1      26.411 -10.879  -7.378  0.00  0.00     0.037 A 
ATOM     15  C   UNL d   1      26.768 -10.245  -6.188  0.00  0.00     0.068 A 
ATOM     16  C   UNL d   1      28.115 -10.106  -5.875  0.00  0.00     0.037 A 
ATOM     17  C   UNL d   1      29.094 -10.605  -6.737  0.00  0.00     0.010 A 
BRANCH  15  18
ATOM     18  O   UNL d   1      25.734  -9.901  -5.362  0.00  0.00    -0.351 OA
BRANCH  18  19
ATOM     19  C   UNL d   1      24.645  -9.201  -5.961  0.00  0.00     0.175 C 
BRANCH  19  20
ATOM     20  C   UNL d   1      24.244  -8.057  -5.033  0.00  0.00     0.022 C 
ATOM     21  C   UNL d   1      23.033  -7.316  -5.569  0.00  0.00     0.007 C 
ENDBRANCH  19  20
ENDBRANCH  18  19
ENDBRANCH  15  18
ENDBRANCH  11  12
ENDBRANCH  10  11
ENDBRANCH   7  10
ENDBRANCH   5   6
ENDBRANCH   1   4
BRANCH   3  22
ATOM     22  N   UNL d   1      27.368 -16.244  -2.232  0.00  0.00    -0.247 N 
ATOM     23  C   UNL d   1      28.178 -17.072  -1.451  0.00  0.00     0.237 C 
ATOM     24  O   UNL d   1      29.373 -17.277  -1.680  0.00  0.00    -0.272 OA
ATOM     25  H   UNL d   1      26.387 -16.124  -2.000  0.00  0.00     0.192 HD
BRANCH  23  26
ATOM     26  C   UNL d   1      27.463 -17.742  -0.278  0.00  0.00     0.109 C 
BRANCH  26  27
ATOM     27  C   UNL d   1      26.336 -16.854   0.287  0.00  0.00     0.048 C 
BRANCH  27  28
ATOM     28  C   UNL d   1      24.926 -17.212  -0.143  0.00  0.00    -0.058 A 
ATOM     29  C   UNL d   1      24.074 -16.231  -0.676  0.00  0.00     0.010 A 
ATOM     30  C   UNL d   1      22.713 -16.502  -0.886  0.00  0.00     0.037 A 
ATOM     31  C   UNL d   1      22.198 -17.777  -0.646  0.00  0.00     0.068 A 
ATOM     32  C   UNL d   1      23.046 -18.757  -0.136  0.00  0.00     0.037 A 
ATOM     33  C   UNL d   1      24.388 -18.476   0.116  0.00  0.00     0.010 A 
BRANCH  31  34
ATOM     34  O   UNL d   1      20.874 -17.966  -0.945  0.00  0.00    -0.351 OA
BRANCH  34  35
ATOM     35  C   UNL d   1      20.488 -19.321  -1.199  0.00  0.00     0.175 C 
BRANCH  35  36
ATOM     36  C   UNL d   1      19.380 -19.726  -0.237  0.00  0.00     0.022 C 
ATOM     37  C   UNL d   1      19.875 -19.708   1.200  0.00  0.00     0.007 C 
ENDBRANCH  35  36
ENDBRANCH  34  35
ENDBRANCH  31  34
ENDBRANCH  27  28
ENDBRANCH  26  27
ENDBRANCH  23  26
ENDBRANCH   3  22
TORSDOF 15
ENDMDL
MODEL 6
REMARK VINA RESULT:    -8.079      8.012     11.418
REMARK INTER + INTRA:         -14.318
REMARK INTER:                 -12.553
REMARK INTRA:                  -1.765
REMARK CONF_INDEPENDENT:        4.474
REMARK UNBOUND:                -1.765
REMARK  15 active torsions:
REMARK  status: ('A' for Active; 'I' for Inactive)
REMARK    1  A    between atoms: C_2  and  C_3 
REMARK    2  A    between atoms: C_3  and  O_4 
REMARK    3  A    between atoms: O_4  and  C_5 
REMARK    4  A    between atoms: C_8  and  C_9 
REMARK    5  A    between atoms: C_9  and  C_10 
REMARK    6  A    between atoms: C_10  and  C_11 
REMARK       I    between atoms: C_11  and  N_13 
REMARK    7  A    between atoms: N_13  and  N_14 
REMARK    8  A    between atoms: C_15  and  C_16 
REMARK    9  A    between atoms: N_18  and  N_19 
REMARK       I    between atoms: N_19  and  C_20 
REMARK   10  A    between atoms: C_20  and  C_22 
REMARK   11  A    between atoms: C_22  and  C_23 
REMARK   12  A    between atoms: C_23  and  C_24 
REMARK   13  A    between atoms: C_27  and  O_28 
REMARK   14  A    between atoms: O_28  and  C_29 
REMARK   15  A    between atoms: C_29  and  C_30 
ROOT
ATOM      1  C   UNL d   1      28.141 -13.767   3.746  0.00  0.00     0.070 C 
ATOM      2  C   UNL d   1      27.803 -14.912   4.665  0.00  0.00     0.074 C 
ATOM      3  N   UNL d   1      28.330 -13.890   2.460  0.00  0.00    -0.176 NA
ENDROOT
BRANCH   1   4
ATOM      4  C   UNL d   1      28.273 -12.366   4.368  0.00  0.00     0.167 C 
ATOM      5  N   UNL d   1      27.406 -11.445   4.082  0.00  0.00    -0.183 NA
BRANCH   5   6
ATOM      6  N   UNL d   1      27.522 -10.186   4.644  0.00  0.00    -0.247 N 
ATOM      7  C   UNL d   1      28.187  -9.192   3.912  0.00  0.00     0.237 C 
ATOM      8  O   UNL d   1      28.680  -9.378   2.797  0.00  0.00    -0.272 OA
ATOM      9  H   UNL d   1      27.131  -9.999   5.562  0.00  0.00     0.192 HD
BRANCH   7  10
ATOM     10  C   UNL d   1      28.268  -7.830   4.594  0.00  0.00     0.109 C 
BRANCH  10  11
ATOM     11  C   UNL d   1      29.459  -7.723   5.575  0.00  0.00     0.048 C 
BRANCH  11  12
ATOM     12  C   UNL d   1      29.692  -8.937   6.461  0.00  0.00    -0.058 A 
ATOM     13  C   UNL d   1      29.313  -8.901   7.812  0.00  0.00     0.010 A 
ATOM     14  C   UNL d   1      29.620  -9.969   8.668  0.00  0.00     0.037 A 
ATOM     15  C   UNL d   1      30.241 -11.117   8.177  0.00  0.00     0.068 A 
ATOM     16  C   UNL d   1      30.594 -11.172   6.833  0.00  0.00     0.037 A 
ATOM     17  C   UNL d   1      30.319 -10.095   5.988  0.00  0.00     0.010 A 
BRANCH  15  18
ATOM     18  O   UNL d   1      30.357 -12.157   9.058  0.00  0.00    -0.351 OA
BRANCH  18  19
ATOM     19  C   UNL d   1      29.963 -13.443   8.581  0.00  0.00     0.175 C 
BRANCH  19  20
ATOM     20  C   UNL d   1      28.531 -13.704   9.039  0.00  0.00     0.022 C 
ATOM     21  C   UNL d   1      28.219 -12.944  10.316  0.00  0.00     0.007 C 
ENDBRANCH  19  20
ENDBRANCH  18  19
ENDBRANCH  15  18
ENDBRANCH  11  12
ENDBRANCH  10  11
ENDBRANCH   7  10
ENDBRANCH   5   6
ENDBRANCH   1   4
BRANCH   3  22
ATOM     22  N   UNL d   1      28.225 -15.143   1.862  0.00  0.00    -0.247 N 
ATOM     23  C   UNL d   1      27.214 -15.384   0.929  0.00  0.00     0.237 C 
ATOM     24  O   UNL d   1      26.373 -14.544   0.596  0.00  0.00    -0.272 OA
ATOM     25  H   UNL d   1      28.880 -15.879   2.105  0.00  0.00     0.192 HD
BRANCH  23  26
ATOM     26  C   UNL d   1      27.202 -16.799   0.351  0.00  0.00     0.109 C 
BRANCH  26  27
ATOM     27  C   UNL d   1      26.345 -16.886  -0.929  0.00  0.00     0.048 C 
BRANCH  27  28
ATOM     28  C   UNL d   1      24.884 -17.243  -0.730  0.00  0.00    -0.058 A 
ATOM     29  C   UNL d   1      24.502 -18.575  -0.506  0.00  0.00     0.010 A 
ATOM     30  C   UNL d   1      23.148 -18.944  -0.523  0.00  0.00     0.037 A 
ATOM     31  C   UNL d   1      22.151 -17.979  -0.683  0.00  0.00     0.068 A 
ATOM     32  C   UNL d   1      22.528 -16.654  -0.886  0.00  0.00     0.037 A 
ATOM     33  C   UNL d   1      23.875 -16.294  -0.915  0.00  0.00     0.010 A 
BRANCH  31  34
ATOM     34  O   UNL d   1      20.856 -18.424  -0.618  0.00  0.00    -0.351 OA
BRANCH  34  35
ATOM     35  C   UNL d   1      20.680 -19.721  -0.038  0.00  0.00     0.175 C 
BRANCH  35  36
ATOM     36  C   UNL d   1      19.199 -19.975   0.206  0.00  0.00     0.022 C 
ATOM     37  C   UNL d   1      18.867 -19.870   1.686  0.00  0.00     0.007 C 
ENDBRANCH  35  36
ENDBRANCH  34  35
ENDBRANCH  31  34
ENDBRANCH  27  28
ENDBRANCH  26  27
ENDBRANCH  23  26
ENDBRANCH   3  22
TORSDOF 15
ENDMDL
MODEL 7
REMARK VINA RESULT:    -8.021      6.781     10.190
REMARK INTER + INTRA:         -14.468
REMARK INTER:                 -12.495
REMARK INTRA:                  -1.973
REMARK CONF_INDEPENDENT:        4.474
REMARK UNBOUND:                -1.973
REMARK  15 active torsions:
REMARK  status: ('A' for Active; 'I' for Inactive)
REMARK    1  A    between atoms: C_2  and  C_3 
REMARK    2  A    between atoms: C_3  and  O_4 
REMARK    3  A    between atoms: O_4  and  C_5 
REMARK    4  A    between atoms: C_8  and  C_9 
REMARK    5  A    between atoms: C_9  and  C_10 
REMARK    6  A    between atoms: C_10  and  C_11 
REMARK       I    between atoms: C_11  and  N_13 
REMARK    7  A    between atoms: N_13  and  N_14 
REMARK    8  A    between atoms: C_15  and  C_16 
REMARK    9  A    between atoms: N_18  and  N_19 
REMARK       I    between atoms: N_19  and  C_20 
REMARK   10  A    between atoms: C_20  and  C_22 
REMARK   11  A    between atoms: C_22  and  C_23 
REMARK   12  A    between atoms: C_23  and  C_24 
REMARK   13  A    between atoms: C_27  and  O_28 
REMARK   14  A    between atoms: O_28  and  C_29 
REMARK   15  A    between atoms: C_29  and  C_30 
ROOT
ATOM      1  C   UNL d   1      27.360 -15.147  -4.628  0.00  0.00     0.070 C 
ATOM      2  C   UNL d   1      25.863 -15.090  -4.791  0.00  0.00     0.074 C 
ATOM      3  N   UNL d   1      27.967 -15.344  -3.489  0.00  0.00    -0.176 NA
ENDROOT
BRANCH   1   4
ATOM      4  C   UNL d   1      28.224 -14.957  -5.887  0.00  0.00     0.167 C 
ATOM      5  N   UNL d   1      29.424 -15.444  -5.930  0.00  0.00    -0.183 NA
BRANCH   5   6
ATOM      6  N   UNL d   1      30.200 -15.277  -7.064  0.00  0.00    -0.247 N 
ATOM      7  C   UNL d   1      31.574 -15.053  -6.899  0.00  0.00     0.237 C 
ATOM      8  O   UNL d   1      32.130 -14.991  -5.800  0.00  0.00    -0.272 OA
ATOM      9  H   UNL d   1      29.773 -15.319  -7.984  0.00  0.00     0.192 HD
BRANCH   7  10
ATOM     10  C   UNL d   1      32.363 -14.886  -8.193  0.00  0.00     0.109 C 
BRANCH  10  11
ATOM     11  C   UNL d   1      32.667 -16.235  -8.886  0.00  0.00     0.048 C 
BRANCH  11  12
ATOM     12  C   UNL d   1      32.385 -17.478  -8.057  0.00  0.00    -0.058 A 
ATOM     13  C   UNL d   1      31.090 -18.017  -8.021  0.00  0.00     0.010 A 
ATOM     14  C   UNL d   1      30.789 -19.096  -7.175  0.00  0.00     0.037 A 
ATOM     15  C   UNL d   1      31.787 -19.699  -6.411  0.00  0.00     0.068 A 
ATOM     16  C   UNL d   1      33.079 -19.189  -6.462  0.00  0.00     0.037 A 
ATOM     17  C   UNL d   1      33.372 -18.094  -7.278  0.00  0.00     0.010 A 
BRANCH  15  18
ATOM     18  O   UNL d   1      31.421 -20.834  -5.742  0.00  0.00    -0.351 OA
BRANCH  18  19
ATOM     19  C   UNL d   1      30.874 -20.656  -4.435  0.00  0.00     0.175 C 
BRANCH  19  20
ATOM     20  C   UNL d   1      31.459 -19.375  -3.845  0.00  0.00     0.022 C 
ATOM     21  C   UNL d   1      30.452 -18.240  -3.897  0.00  0.00     0.007 C 
ENDBRANCH  19  20
ENDBRANCH  18  19
ENDBRANCH  15  18
ENDBRANCH  11  12
ENDBRANCH  10  11
ENDBRANCH   7  10
ENDBRANCH   5   6
ENDBRANCH   1   4
BRANCH   3  22
ATOM     22  N   UNL d   1      27.219 -15.514  -2.327  0.00  0.00    -0.247 N 
ATOM     23  C   UNL d   1      27.650 -16.415  -1.350  0.00  0.00     0.237 C 
ATOM     24  O   UNL d   1      28.671 -17.101  -1.452  0.00  0.00    -0.272 OA
ATOM     25  H   UNL d   1      26.362 -14.987  -2.191  0.00  0.00     0.192 HD
BRANCH  23  26
ATOM     26  C   UNL d   1      26.739 -16.515  -0.126  0.00  0.00     0.109 C 
BRANCH  26  27
ATOM     27  C   UNL d   1      26.047 -17.891  -0.041  0.00  0.00     0.048 C 
BRANCH  27  28
ATOM     28  C   UNL d   1      24.539 -17.890  -0.206  0.00  0.00    -0.058 A 
ATOM     29  C   UNL d   1      23.837 -19.100  -0.332  0.00  0.00     0.010 A 
ATOM     30  C   UNL d   1      22.479 -19.106  -0.686  0.00  0.00     0.037 A 
ATOM     31  C   UNL d   1      21.781 -17.907  -0.841  0.00  0.00     0.068 A 
ATOM     32  C   UNL d   1      22.471 -16.706  -0.697  0.00  0.00     0.037 A 
ATOM     33  C   UNL d   1      23.831 -16.700  -0.390  0.00  0.00     0.010 A 
BRANCH  31  34
ATOM     34  O   UNL d   1      20.443 -18.013  -1.120  0.00  0.00    -0.351 OA
BRANCH  34  35
ATOM     35  C   UNL d   1      19.870 -19.308  -0.906  0.00  0.00     0.175 C 
BRANCH  35  36
ATOM     36  C   UNL d   1      19.321 -19.396   0.511  0.00  0.00     0.022 C 
ATOM     37  C   UNL d   1      19.056 -20.841   0.901  0.00  0.00     0.007 C 
ENDBRANCH  35  36
ENDBRANCH  34  35
ENDBRANCH  31  34
ENDBRANCH  27  28
ENDBRANCH  26  27
ENDBRANCH  23  26
ENDBRANCH   3  22
TORSDOF 15
ENDMDL
MODEL 8
REMARK VINA RESULT:    -7.846      3.403     11.050
REMARK INTER + INTRA:         -14.433
REMARK INTER:                 -12.321
REMARK INTRA:                  -2.112
REMARK CONF_INDEPENDENT:        4.474
REMARK UNBOUND:                -2.112
REMARK  15 active torsions:
REMARK  status: ('A' for Active; 'I' for Inactive)
REMARK    1  A    between atoms: C_2  and  C_3 
REMARK    2  A    between atoms: C_3  and  O_4 
REMARK    3  A    between atoms: O_4  and  C_5 
REMARK    4  A    between atoms: C_8  and  C_9 
REMARK    5  A    between atoms: C_9  and  C_10 
REMARK    6  A    between atoms: C_10  and  C_11 
REMARK       I    between atoms: C_11  and  N_13 
REMARK    7  A    between atoms: N_13  and  N_14 
REMARK    8  A    between atoms: C_15  and  C_16 
REMARK    9  A    between atoms: N_18  and  N_19 
REMARK       I    between atoms: N_19  and  C_20 
REMARK   10  A    between atoms: C_20  and  C_22 
REMARK   11  A    between atoms: C_22  and  C_23 
REMARK   12  A    between atoms: C_23  and  C_24 
REMARK   13  A    between atoms: C_27  and  O_28 
REMARK   14  A    between atoms: O_28  and  C_29 
REMARK   15  A    between atoms: C_29  and  C_30 
ROOT
ATOM      1  C   UNL d   1      25.690 -12.127  -3.674  0.00  0.00     0.070 C 
ATOM      2  C   UNL d   1      25.752 -12.808  -5.017  0.00  0.00     0.074 C 
ATOM      3  N   UNL d   1      25.471 -10.851  -3.508  0.00  0.00    -0.176 NA
ENDROOT
BRANCH   1   4
ATOM      4  C   UNL d   1      25.900 -12.996  -2.422  0.00  0.00     0.167 C 
ATOM      5  N   UNL d   1      25.549 -14.244  -2.432  0.00  0.00    -0.183 NA
BRANCH   5   6
ATOM      6  N   UNL d   1      25.742 -15.027  -1.306  0.00  0.00    -0.247 N 
ATOM      7  C   UNL d   1      26.668 -16.076  -1.379  0.00  0.00     0.237 C 
ATOM      8  O   UNL d   1      27.318 -16.346  -2.392  0.00  0.00    -0.272 OA
ATOM      9  H   UNL d   1      25.220 -14.834  -0.456  0.00  0.00     0.192 HD
BRANCH   7  10
ATOM     10  C   UNL d   1      26.830 -16.888  -0.099  0.00  0.00     0.109 C 
BRANCH  10  11
ATOM     11  C   UNL d   1      26.053 -18.225  -0.137  0.00  0.00     0.048 C 
BRANCH  11  12
ATOM     12  C   UNL d   1      24.547 -18.105  -0.311  0.00  0.00    -0.058 A 
ATOM     13  C   UNL d   1      23.771 -19.255  -0.521  0.00  0.00     0.010 A 
ATOM     14  C   UNL d   1      22.399 -19.153  -0.793  0.00  0.00     0.037 A 
ATOM     15  C   UNL d   1      21.765 -17.910  -0.787  0.00  0.00     0.068 A 
ATOM     16  C   UNL d   1      22.521 -16.767  -0.552  0.00  0.00     0.037 A 
ATOM     17  C   UNL d   1      23.893 -16.867  -0.314  0.00  0.00     0.010 A 
BRANCH  15  18
ATOM     18  O   UNL d   1      20.404 -17.935  -0.911  0.00  0.00    -0.351 OA
BRANCH  18  19
ATOM     19  C   UNL d   1      19.782 -19.219  -0.862  0.00  0.00     0.175 C 
BRANCH  19  20
ATOM     20  C   UNL d   1      19.155 -19.392   0.519  0.00  0.00     0.022 C 
ATOM     21  C   UNL d   1      19.754 -20.584   1.245  0.00  0.00     0.007 C 
ENDBRANCH  19  20
ENDBRANCH  18  19
ENDBRANCH  15  18
ENDBRANCH  11  12
ENDBRANCH  10  11
ENDBRANCH   7  10
ENDBRANCH   5   6
ENDBRANCH   1   4
BRANCH   3  22
ATOM     22  N   UNL d   1      25.282 -10.031  -4.618  0.00  0.00    -0.247 N 
ATOM     23  C   UNL d   1      25.750  -8.715  -4.596  0.00  0.00     0.237 C 
ATOM     24  O   UNL d   1      26.326  -8.208  -3.630  0.00  0.00    -0.272 OA
ATOM     25  H   UNL d   1      24.804 -10.388  -5.439  0.00  0.00     0.192 HD
BRANCH  23  26
ATOM     26  C   UNL d   1      25.474  -7.918  -5.871  0.00  0.00     0.109 C 
BRANCH  26  27
ATOM     27  C   UNL d   1      26.622  -8.059  -6.892  0.00  0.00     0.048 C 
BRANCH  27  28
ATOM     28  C   UNL d   1      27.124  -9.469  -7.139  0.00  0.00    -0.058 A 
ATOM     29  C   UNL d   1      28.183  -9.989  -6.379  0.00  0.00     0.010 A 
ATOM     30  C   UNL d   1      28.787 -11.207  -6.731  0.00  0.00     0.037 A 
ATOM     31  C   UNL d   1      28.292 -11.963  -7.795  0.00  0.00     0.068 A 
ATOM     32  C   UNL d   1      27.228 -11.457  -8.538  0.00  0.00     0.037 A 
ATOM     33  C   UNL d   1      26.658 -10.226  -8.218  0.00  0.00     0.010 A 
BRANCH  31  34
ATOM     34  O   UNL d   1      28.901 -13.169  -8.021  0.00  0.00    -0.351 OA
BRANCH  34  35
ATOM     35  C   UNL d   1      29.289 -13.892  -6.847  0.00  0.00     0.175 C 
BRANCH  35  36
ATOM     36  C   UNL d   1      28.163 -14.826  -6.427  0.00  0.00     0.022 C 
ATOM     37  C   UNL d   1      28.219 -15.106  -4.934  0.00  0.00     0.007 C 
ENDBRANCH  35  36
ENDBRANCH  34  35
ENDBRANCH  31  34
ENDBRANCH  27  28
ENDBRANCH  26  27
ENDBRANCH  23  26
ENDBRANCH   3  22
TORSDOF 15
ENDMDL
MODEL 9
REMARK VINA RESULT:    -7.821      6.489      9.020
REMARK INTER + INTRA:         -14.360
REMARK INTER:                 -12.296
REMARK INTRA:                  -2.064
REMARK CONF_INDEPENDENT:        4.474
REMARK UNBOUND:                -2.064
REMARK  15 active torsions:
REMARK  status: ('A' for Active; 'I' for Inactive)
REMARK    1  A    between atoms: C_2  and  C_3 
REMARK    2  A    between atoms: C_3  and  O_4 
REMARK    3  A    between atoms: O_4  and  C_5 
REMARK    4  A    between atoms: C_8  and  C_9 
REMARK    5  A    between atoms: C_9  and  C_10 
REMARK    6  A    between atoms: C_10  and  C_11 
REMARK       I    between atoms: C_11  and  N_13 
REMARK    7  A    between atoms: N_13  and  N_14 
REMARK    8  A    between atoms: C_15  and  C_16 
REMARK    9  A    between atoms: N_18  and  N_19 
REMARK       I    between atoms: N_19  and  C_20 
REMARK   10  A    between atoms: C_20  and  C_22 
REMARK   11  A    between atoms: C_22  and  C_23 
REMARK   12  A    between atoms: C_23  and  C_24 
REMARK   13  A    between atoms: C_27  and  O_28 
REMARK   14  A    between atoms: O_28  and  C_29 
REMARK   15  A    between atoms: C_29  and  C_30 
ROOT
ATOM      1  C   UNL d   1      27.361 -15.235  -4.151  0.00  0.00     0.070 C 
ATOM      2  C   UNL d   1      25.883 -14.989  -4.303  0.00  0.00     0.074 C 
ATOM      3  N   UNL d   1      27.901 -15.856  -3.138  0.00  0.00    -0.176 NA
ENDROOT
BRANCH   1   4
ATOM      4  C   UNL d   1      28.290 -14.716  -5.263  0.00  0.00     0.167 C 
ATOM      5  N   UNL d   1      27.932 -14.812  -6.504  0.00  0.00    -0.183 NA
BRANCH   5   6
ATOM      6  N   UNL d   1      28.766 -14.342  -7.505  0.00  0.00    -0.247 N 
ATOM      7  C   UNL d   1      29.207 -13.014  -7.430  0.00  0.00     0.237 C 
ATOM      8  O   UNL d   1      28.890 -12.237  -6.527  0.00  0.00    -0.272 OA
ATOM      9  H   UNL d   1      29.044 -14.954  -8.266  0.00  0.00     0.192 HD
BRANCH   7  10
ATOM     10  C   UNL d   1      30.127 -12.573  -8.563  0.00  0.00     0.109 C 
BRANCH  10  11
ATOM     11  C   UNL d   1      31.614 -12.899  -8.287  0.00  0.00     0.048 C 
BRANCH  11  12
ATOM     12  C   UNL d   1      31.881 -14.250  -7.642  0.00  0.00    -0.058 A 
ATOM     13  C   UNL d   1      32.096 -14.335  -6.258  0.00  0.00     0.010 A 
ATOM     14  C   UNL d   1      32.452 -15.555  -5.663  0.00  0.00     0.037 A 
ATOM     15  C   UNL d   1      32.527 -16.721  -6.425  0.00  0.00     0.068 A 
ATOM     16  C   UNL d   1      32.287 -16.651  -7.793  0.00  0.00     0.037 A 
ATOM     17  C   UNL d   1      31.966 -15.430  -8.390  0.00  0.00     0.010 A 
BRANCH  15  18
ATOM     18  O   UNL d   1      32.730 -17.878  -5.726  0.00  0.00    -0.351 OA
BRANCH  18  19
ATOM     19  C   UNL d   1      31.759 -18.909  -5.904  0.00  0.00     0.175 C 
BRANCH  19  20
ATOM     20  C   UNL d   1      30.816 -18.888  -4.705  0.00  0.00     0.022 C 
ATOM     21  C   UNL d   1      30.093 -17.556  -4.602  0.00  0.00     0.007 C 
ENDBRANCH  19  20
ENDBRANCH  18  19
ENDBRANCH  15  18
ENDBRANCH  11  12
ENDBRANCH  10  11
ENDBRANCH   7  10
ENDBRANCH   5   6
ENDBRANCH   1   4
BRANCH   3  22
ATOM     22  N   UNL d   1      27.093 -16.335  -2.109  0.00  0.00    -0.247 N 
ATOM     23  C   UNL d   1      27.674 -16.975  -1.012  0.00  0.00     0.237 C 
ATOM     24  O   UNL d   1      28.887 -17.163  -0.890  0.00  0.00    -0.272 OA
ATOM     25  H   UNL d   1      26.086 -16.220  -2.158  0.00  0.00     0.192 HD
BRANCH  23  26
ATOM     26  C   UNL d   1      26.681 -17.459   0.045  0.00  0.00     0.109 C 
BRANCH  26  27
ATOM     27  C   UNL d   1      25.385 -16.622   0.037  0.00  0.00     0.048 C 
BRANCH  27  28
ATOM     28  C   UNL d   1      24.095 -17.391  -0.175  0.00  0.00    -0.058 A 
ATOM     29  C   UNL d   1      24.093 -18.795  -0.152  0.00  0.00     0.010 A 
ATOM     30  C   UNL d   1      22.955 -19.516  -0.546  0.00  0.00     0.037 A 
ATOM     31  C   UNL d   1      21.777 -18.850  -0.890  0.00  0.00     0.068 A 
ATOM     32  C   UNL d   1      21.772 -17.458  -0.895  0.00  0.00     0.037 A 
ATOM     33  C   UNL d   1      22.916 -16.741  -0.548  0.00  0.00     0.010 A 
BRANCH  31  34
ATOM     34  O   UNL d   1      20.698 -19.639  -1.195  0.00  0.00    -0.351 OA
BRANCH  34  35
ATOM     35  C   UNL d   1      19.501 -19.352  -0.463  0.00  0.00     0.175 C 
BRANCH  35  36
ATOM     36  C   UNL d   1      19.528 -20.085   0.870  0.00  0.00     0.022 C 
ATOM     37  C   UNL d   1      18.392 -21.091   0.960  0.00  0.00     0.007 C 
ENDBRANCH  35  36
ENDBRANCH  34  35
ENDBRANCH  31  34
ENDBRANCH  27  28
ENDBRANCH  26  27
ENDBRANCH  23  26
ENDBRANCH   3  22
TORSDOF 15
ENDMDL
