MODEL 1
REMARK VINA RESULT:    -7.591      0.000      0.000
REMARK INTER + INTRA:         -10.341
REMARK INTER:                  -9.381
REMARK INTRA:                  -0.960
REMARK CONF_INDEPENDENT:        1.790
REMARK UNBOUND:                -0.960
REMARK  6 active torsions:
REMARK  status: ('A' for Active; 'I' for Inactive)
REMARK    1  A    between atoms: C_3  and  C_4 
REMARK       I    between atoms: C_4  and  N_6 
REMARK    2  A    between atoms: N_6  and  N_7 
REMARK    3  A    between atoms: C_8  and  C_9 
REMARK    4  A    between atoms: C_12  and  O_13 
REMARK    5  A    between atoms: C_16  and  C_17 
REMARK    6  A    between atoms: C_21  and  N_22 
ROOT
ATOM      1  C   UNL d   1      30.453 -13.356  -0.958  0.00  0.00     0.069 C 
ATOM      2  C   UNL d   1      29.785 -14.702  -0.904  0.00  0.00     0.021 C 
ATOM      3  C   UNL d   1      29.018 -15.244   0.082  0.00  0.00     0.060 C 
ATOM      4  C   UNL d   1      28.454 -16.630  -0.150  0.00  0.00     0.158 C 
ATOM      5  N   UNL d   1      29.282 -17.394  -1.072  0.00  0.00    -0.354 N 
ATOM      6  C   UNL d   1      29.889 -16.803  -2.133  0.00  0.00     0.172 C 
ATOM      7  S   UNL d   1      30.449 -17.675  -3.429  0.00  0.00    -0.041 SA
ATOM      8  N   UNL d   1      30.049 -15.454  -2.045  0.00  0.00    -0.337 N 
ATOM      9  H   UNL d   1      29.182 -18.400  -1.122  0.00  0.00     0.163 HD
ATOM     10  H   UNL d   1      30.527 -15.014  -2.827  0.00  0.00     0.168 HD
ENDROOT
BRANCH   3  11
ATOM     11  C   UNL d   1      28.658 -14.471   1.345  0.00  0.00     0.272 C 
ATOM     12  O   UNL d   1      27.759 -13.623   1.317  0.00  0.00    -0.266 OA
ATOM     13  N   UNL d   1      29.337 -14.725   2.538  0.00  0.00    -0.243 N 
ATOM     14  H   UNL d   1      30.083 -15.397   2.635  0.00  0.00     0.192 HD
BRANCH  13  15
ATOM     15  N   UNL d   1      28.950 -14.007   3.663  0.00  0.00    -0.183 NA
ATOM     16  C   UNL d   1      29.451 -14.324   4.816  0.00  0.00     0.150 C 
BRANCH  16  17
ATOM     17  C   UNL d   1      29.106 -13.560   6.050  0.00  0.00    -0.017 A 
ATOM     18  C   UNL d   1      28.480 -12.308   5.974  0.00  0.00     0.015 A 
ATOM     19  C   UNL d   1      28.155 -11.603   7.145  0.00  0.00     0.037 A 
ATOM     20  C   UNL d   1      28.475 -12.145   8.386  0.00  0.00     0.065 A 
ATOM     21  C   UNL d   1      29.109 -13.380   8.473  0.00  0.00     0.037 A 
ATOM     22  C   UNL d   1      29.414 -14.097   7.307  0.00  0.00     0.015 A 
BRANCH  20  23
ATOM     23  O   UNL d   1      28.188 -11.506   9.557  0.00  0.00    -0.361 OA
ATOM     24  H   UNL d   1      28.725 -10.699   9.630  0.00  0.00     0.217 HD
ENDBRANCH  20  23
ENDBRANCH  16  17
ENDBRANCH  13  15
ENDBRANCH   3  11
BRANCH   4  25
ATOM     25  C   UNL d   1      27.016 -16.570  -0.655  0.00  0.00    -0.028 A 
ATOM     26  C   UNL d   1      25.994 -17.352  -0.078  0.00  0.00     0.010 A 
ATOM     27  C   UNL d   1      24.734 -17.450  -0.667  0.00  0.00     0.003 A 
ATOM     28  C   UNL d   1      24.439 -16.698  -1.799  0.00  0.00     0.036 A 
ATOM     29  C   UNL d   1      25.429 -15.874  -2.350  0.00  0.00     0.103 A 
ATOM     30  C   UNL d   1      26.708 -15.799  -1.780  0.00  0.00     0.045 A 
BRANCH  29  31
ATOM     31  N   UNL d   1      25.155 -15.133  -3.585  0.00  0.00    -0.116 N 
ATOM     32  O   UNL d   1      24.408 -14.151  -3.520  0.00  0.00    -0.532 OA
ATOM     33  O   UNL d   1      25.679 -15.557  -4.629  0.00  0.00    -0.532 OA
ENDBRANCH  29  31
ENDBRANCH   4  25
TORSDOF 6
ENDMDL
MODEL 2
REMARK VINA RESULT:    -7.591      3.830      8.302
REMARK INTER + INTRA:         -10.291
REMARK INTER:                  -9.381
REMARK INTRA:                  -0.910
REMARK CONF_INDEPENDENT:        1.790
REMARK UNBOUND:                -0.910
REMARK  6 active torsions:
REMARK  status: ('A' for Active; 'I' for Inactive)
REMARK    1  A    between atoms: C_3  and  C_4 
REMARK       I    between atoms: C_4  and  N_6 
REMARK    2  A    between atoms: N_6  and  N_7 
REMARK    3  A    between atoms: C_8  and  C_9 
REMARK    4  A    between atoms: C_12  and  O_13 
REMARK    5  A    between atoms: C_16  and  C_17 
REMARK    6  A    between atoms: C_21  and  N_22 
ROOT
ATOM      1  C   UNL d   1      29.968 -14.825   4.426  0.00  0.00     0.069 C 
ATOM      2  C   UNL d   1      30.141 -13.491   3.752  0.00  0.00     0.021 C 
ATOM      3  C   UNL d   1      29.392 -12.919   2.770  0.00  0.00     0.060 C 
ATOM      4  C   UNL d   1      29.795 -11.540   2.294  0.00  0.00     0.158 C 
ATOM      5  N   UNL d   1      31.216 -11.300   2.499  0.00  0.00    -0.354 N 
ATOM      6  C   UNL d   1      31.861 -11.774   3.597  0.00  0.00     0.172 C 
ATOM      7  S   UNL d   1      33.322 -11.165   4.093  0.00  0.00    -0.041 SA
ATOM      8  N   UNL d   1      31.254 -12.811   4.236  0.00  0.00    -0.337 N 
ATOM      9  H   UNL d   1      31.675 -10.545   2.006  0.00  0.00     0.163 HD
ATOM     10  H   UNL d   1      31.750 -13.183   5.042  0.00  0.00     0.168 HD
ENDROOT
BRANCH   3  11
ATOM     11  C   UNL d   1      28.139 -13.587   2.213  0.00  0.00     0.272 C 
ATOM     12  O   UNL d   1      27.071 -12.967   2.178  0.00  0.00    -0.266 OA
ATOM     13  N   UNL d   1      28.200 -14.897   1.736  0.00  0.00    -0.243 N 
ATOM     14  H   UNL d   1      29.033 -15.466   1.739  0.00  0.00     0.192 HD
BRANCH  13  15
ATOM     15  N   UNL d   1      27.032 -15.447   1.219  0.00  0.00    -0.183 NA
ATOM     16  C   UNL d   1      27.118 -16.414   0.361  0.00  0.00     0.150 C 
BRANCH  16  17
ATOM     17  C   UNL d   1      25.898 -17.071  -0.194  0.00  0.00    -0.017 A 
ATOM     18  C   UNL d   1      25.466 -16.808  -1.501  0.00  0.00     0.015 A 
ATOM     19  C   UNL d   1      24.319 -17.439  -2.012  0.00  0.00     0.037 A 
ATOM     20  C   UNL d   1      23.600 -18.316  -1.206  0.00  0.00     0.065 A 
ATOM     21  C   UNL d   1      24.012 -18.574   0.098  0.00  0.00     0.037 A 
ATOM     22  C   UNL d   1      25.169 -17.964   0.603  0.00  0.00     0.015 A 
BRANCH  20  23
ATOM     23  O   UNL d   1      22.477 -18.955  -1.645  0.00  0.00    -0.361 OA
ATOM     24  H   UNL d   1      22.051 -19.416  -0.903  0.00  0.00     0.217 HD
ENDBRANCH  20  23
ENDBRANCH  16  17
ENDBRANCH  13  15
ENDBRANCH   3  11
BRANCH   4  25
ATOM     25  C   UNL d   1      28.971 -10.451   2.973  0.00  0.00    -0.028 A 
ATOM     26  C   UNL d   1      29.303  -9.957   4.252  0.00  0.00     0.010 A 
ATOM     27  C   UNL d   1      28.439  -9.118   4.953  0.00  0.00     0.003 A 
ATOM     28  C   UNL d   1      27.262  -8.680   4.355  0.00  0.00     0.036 A 
ATOM     29  C   UNL d   1      26.948  -9.119   3.062  0.00  0.00     0.103 A 
ATOM     30  C   UNL d   1      27.797  -9.991   2.367  0.00  0.00     0.045 A 
BRANCH  29  31
ATOM     31  N   UNL d   1      25.675  -8.725   2.450  0.00  0.00    -0.116 N 
ATOM     32  O   UNL d   1      25.572  -7.573   2.016  0.00  0.00    -0.532 OA
ATOM     33  O   UNL d   1      24.770  -9.575   2.425  0.00  0.00    -0.532 OA
ENDBRANCH  29  31
ENDBRANCH   4  25
TORSDOF 6
ENDMDL
MODEL 3
REMARK VINA RESULT:    -7.420      3.364      4.825
REMARK INTER + INTRA:         -10.183
REMARK INTER:                  -9.210
REMARK INTRA:                  -0.974
REMARK CONF_INDEPENDENT:        1.790
REMARK UNBOUND:                -0.974
REMARK  6 active torsions:
REMARK  status: ('A' for Active; 'I' for Inactive)
REMARK    1  A    between atoms: C_3  and  C_4 
REMARK       I    between atoms: C_4  and  N_6 
REMARK    2  A    between atoms: N_6  and  N_7 
REMARK    3  A    between atoms: C_8  and  C_9 
REMARK    4  A    between atoms: C_12  and  O_13 
REMARK    5  A    between atoms: C_16  and  C_17 
REMARK    6  A    between atoms: C_21  and  N_22 
ROOT
ATOM      1  C   UNL d   1      30.756 -14.821   2.174  0.00  0.00     0.069 C 
ATOM      2  C   UNL d   1      29.467 -14.457   1.490  0.00  0.00     0.021 C 
ATOM      3  C   UNL d   1      28.288 -14.050   2.034  0.00  0.00     0.060 C 
ATOM      4  C   UNL d   1      27.151 -13.729   1.086  0.00  0.00     0.158 C 
ATOM      5  N   UNL d   1      27.278 -14.462  -0.164  0.00  0.00    -0.354 N 
ATOM      6  C   UNL d   1      28.491 -14.690  -0.730  0.00  0.00     0.172 C 
ATOM      7  S   UNL d   1      28.657 -15.106  -2.328  0.00  0.00    -0.041 SA
ATOM      8  N   UNL d   1      29.560 -14.601   0.108  0.00  0.00    -0.337 N 
ATOM      9  H   UNL d   1      26.479 -14.551  -0.778  0.00  0.00     0.163 HD
ATOM     10  H   UNL d   1      30.466 -14.797  -0.309  0.00  0.00     0.168 HD
ENDROOT
BRANCH   3  11
ATOM     11  C   UNL d   1      28.119 -13.837   3.534  0.00  0.00     0.272 C 
ATOM     12  O   UNL d   1      27.638 -12.780   3.960  0.00  0.00    -0.266 OA
ATOM     13  N   UNL d   1      28.501 -14.837   4.429  0.00  0.00    -0.243 N 
ATOM     14  H   UNL d   1      28.905 -15.720   4.157  0.00  0.00     0.192 HD
BRANCH  13  15
ATOM     15  N   UNL d   1      28.302 -14.597   5.784  0.00  0.00    -0.183 NA
ATOM     16  C   UNL d   1      29.098 -13.781   6.403  0.00  0.00     0.150 C 
BRANCH  16  17
ATOM     17  C   UNL d   1      28.905 -13.453   7.846  0.00  0.00    -0.017 A 
ATOM     18  C   UNL d   1      29.040 -14.436   8.835  0.00  0.00     0.015 A 
ATOM     19  C   UNL d   1      28.862 -14.110  10.191  0.00  0.00     0.037 A 
ATOM     20  C   UNL d   1      28.531 -12.806  10.548  0.00  0.00     0.065 A 
ATOM     21  C   UNL d   1      28.380 -11.826   9.572  0.00  0.00     0.037 A 
ATOM     22  C   UNL d   1      28.580 -12.142   8.220  0.00  0.00     0.015 A 
BRANCH  20  23
ATOM     23  O   UNL d   1      28.342 -12.431  11.845  0.00  0.00    -0.361 OA
ATOM     24  H   UNL d   1      28.480 -11.473  11.933  0.00  0.00     0.217 HD
ENDBRANCH  20  23
ENDBRANCH  16  17
ENDBRANCH  13  15
ENDBRANCH   3  11
BRANCH   4  25
ATOM     25  C   UNL d   1      27.058 -12.231   0.815  0.00  0.00    -0.028 A 
ATOM     26  C   UNL d   1      27.658 -11.642  -0.317  0.00  0.00     0.010 A 
ATOM     27  C   UNL d   1      27.747 -10.258  -0.455  0.00  0.00     0.003 A 
ATOM     28  C   UNL d   1      27.157  -9.429   0.492  0.00  0.00     0.036 A 
ATOM     29  C   UNL d   1      26.508 -10.002   1.593  0.00  0.00     0.103 A 
ATOM     30  C   UNL d   1      26.447 -11.393   1.754  0.00  0.00     0.045 A 
BRANCH  29  31
ATOM     31  N   UNL d   1      25.948  -9.138   2.637  0.00  0.00    -0.116 N 
ATOM     32  O   UNL d   1      25.903  -9.576   3.791  0.00  0.00    -0.532 OA
ATOM     33  O   UNL d   1      25.532  -8.021   2.288  0.00  0.00    -0.532 OA
ENDBRANCH  29  31
ENDBRANCH   4  25
TORSDOF 6
ENDMDL
MODEL 4
REMARK VINA RESULT:    -7.350      3.590      9.002
REMARK INTER + INTRA:          -9.925
REMARK INTER:                  -9.140
REMARK INTRA:                  -0.785
REMARK CONF_INDEPENDENT:        1.790
REMARK UNBOUND:                -0.785
REMARK  6 active torsions:
REMARK  status: ('A' for Active; 'I' for Inactive)
REMARK    1  A    between atoms: C_3  and  C_4 
REMARK       I    between atoms: C_4  and  N_6 
REMARK    2  A    between atoms: N_6  and  N_7 
REMARK    3  A    between atoms: C_8  and  C_9 
REMARK    4  A    between atoms: C_12  and  O_13 
REMARK    5  A    between atoms: C_16  and  C_17 
REMARK    6  A    between atoms: C_21  and  N_22 
ROOT
ATOM      1  C   UNL d   1      27.633 -15.201   5.069  0.00  0.00     0.069 C 
ATOM      2  C   UNL d   1      28.706 -14.158   5.218  0.00  0.00     0.021 C 
ATOM      3  C   UNL d   1      29.254 -13.346   4.273  0.00  0.00     0.060 C 
ATOM      4  C   UNL d   1      30.317 -12.365   4.722  0.00  0.00     0.158 C 
ATOM      5  N   UNL d   1      31.010 -12.839   5.911  0.00  0.00    -0.354 N 
ATOM      6  C   UNL d   1      30.352 -13.509   6.892  0.00  0.00     0.172 C 
ATOM      7  S   UNL d   1      30.972 -13.666   8.423  0.00  0.00    -0.041 SA
ATOM      8  N   UNL d   1      29.173 -14.084   6.527  0.00  0.00    -0.337 N 
ATOM      9  H   UNL d   1      31.898 -12.431   6.172  0.00  0.00     0.163 HD
ATOM     10  H   UNL d   1      28.693 -14.608   7.254  0.00  0.00     0.168 HD
ENDROOT
BRANCH   3  11
ATOM     11  C   UNL d   1      28.773 -13.345   2.827  0.00  0.00     0.272 C 
ATOM     12  O   UNL d   1      28.632 -12.277   2.221  0.00  0.00    -0.266 OA
ATOM     13  N   UNL d   1      28.496 -14.551   2.182  0.00  0.00    -0.243 N 
ATOM     14  H   UNL d   1      28.581 -15.459   2.613  0.00  0.00     0.192 HD
BRANCH  13  15
ATOM     15  N   UNL d   1      28.082 -14.492   0.856  0.00  0.00    -0.183 NA
ATOM     16  C   UNL d   1      26.835 -14.703   0.575  0.00  0.00     0.150 C 
BRANCH  16  17
ATOM     17  C   UNL d   1      26.326 -14.608  -0.824  0.00  0.00    -0.017 A 
ATOM     18  C   UNL d   1      26.509 -13.444  -1.582  0.00  0.00     0.015 A 
ATOM     19  C   UNL d   1      26.030 -13.371  -2.902  0.00  0.00     0.037 A 
ATOM     20  C   UNL d   1      25.355 -14.457  -3.450  0.00  0.00     0.065 A 
ATOM     21  C   UNL d   1      25.155 -15.613  -2.701  0.00  0.00     0.037 A 
ATOM     22  C   UNL d   1      25.652 -15.697  -1.392  0.00  0.00     0.015 A 
BRANCH  20  23
ATOM     23  O   UNL d   1      24.864 -14.445  -4.722  0.00  0.00    -0.361 OA
ATOM     24  H   UNL d   1      24.002 -13.996  -4.737  0.00  0.00     0.217 HD
ENDBRANCH  20  23
ENDBRANCH  16  17
ENDBRANCH  13  15
ENDBRANCH   3  11
BRANCH   4  25
ATOM     25  C   UNL d   1      29.731 -10.979   4.968  0.00  0.00    -0.028 A 
ATOM     26  C   UNL d   1      30.170 -10.164   6.032  0.00  0.00     0.010 A 
ATOM     27  C   UNL d   1      29.496  -8.994   6.377  0.00  0.00     0.003 A 
ATOM     28  C   UNL d   1      28.419  -8.563   5.610  0.00  0.00     0.036 A 
ATOM     29  C   UNL d   1      28.008  -9.335   4.516  0.00  0.00     0.103 A 
ATOM     30  C   UNL d   1      28.661 -10.531   4.186  0.00  0.00     0.045 A 
BRANCH  29  31
ATOM     31  N   UNL d   1      26.828  -8.931   3.745  0.00  0.00    -0.116 N 
ATOM     32  O   UNL d   1      26.091  -9.819   3.303  0.00  0.00    -0.532 OA
ATOM     33  O   UNL d   1      26.655  -7.714   3.567  0.00  0.00    -0.532 OA
ENDBRANCH  29  31
ENDBRANCH   4  25
TORSDOF 6
ENDMDL
MODEL 5
REMARK VINA RESULT:    -7.184      5.863      8.964
REMARK INTER + INTRA:         -10.019
REMARK INTER:                  -8.974
REMARK INTRA:                  -1.045
REMARK CONF_INDEPENDENT:        1.790
REMARK UNBOUND:                -1.045
REMARK  6 active torsions:
REMARK  status: ('A' for Active; 'I' for Inactive)
REMARK    1  A    between atoms: C_3  and  C_4 
REMARK       I    between atoms: C_4  and  N_6 
REMARK    2  A    between atoms: N_6  and  N_7 
REMARK    3  A    between atoms: C_8  and  C_9 
REMARK    4  A    between atoms: C_12  and  O_13 
REMARK    5  A    between atoms: C_16  and  C_17 
REMARK    6  A    between atoms: C_21  and  N_22 
ROOT
ATOM      1  C   UNL d   1      27.448 -10.585  -6.409  0.00  0.00     0.069 C 
ATOM      2  C   UNL d   1      26.586  -9.852  -5.417  0.00  0.00     0.021 C 
ATOM      3  C   UNL d   1      26.059 -10.293  -4.243  0.00  0.00     0.060 C 
ATOM      4  C   UNL d   1      25.237  -9.314  -3.431  0.00  0.00     0.158 C 
ATOM      5  N   UNL d   1      24.638  -8.292  -4.278  0.00  0.00    -0.354 N 
ATOM      6  C   UNL d   1      25.302  -7.783  -5.347  0.00  0.00     0.172 C 
ATOM      7  S   UNL d   1      24.871  -6.344  -6.051  0.00  0.00    -0.041 SA
ATOM      8  N   UNL d   1      26.314  -8.552  -5.835  0.00  0.00    -0.337 N 
ATOM      9  H   UNL d   1      23.870  -7.735  -3.926  0.00  0.00     0.163 HD
ATOM     10  H   UNL d   1      26.793  -8.185  -6.652  0.00  0.00     0.168 HD
ENDROOT
BRANCH   3  11
ATOM     11  C   UNL d   1      26.340 -11.691  -3.702  0.00  0.00     0.272 C 
ATOM     12  O   UNL d   1      27.454 -11.964  -3.241  0.00  0.00    -0.266 OA
ATOM     13  N   UNL d   1      25.338 -12.662  -3.721  0.00  0.00    -0.243 N 
ATOM     14  H   UNL d   1      24.409 -12.514  -4.086  0.00  0.00     0.192 HD
BRANCH  13  15
ATOM     15  N   UNL d   1      25.644 -13.911  -3.194  0.00  0.00    -0.183 NA
ATOM     16  C   UNL d   1      25.817 -14.030  -1.915  0.00  0.00     0.150 C 
BRANCH  16  17
ATOM     17  C   UNL d   1      26.104 -15.355  -1.290  0.00  0.00    -0.017 A 
ATOM     18  C   UNL d   1      25.073 -16.267  -1.025  0.00  0.00     0.015 A 
ATOM     19  C   UNL d   1      25.359 -17.513  -0.441  0.00  0.00     0.037 A 
ATOM     20  C   UNL d   1      26.672 -17.833  -0.109  0.00  0.00     0.065 A 
ATOM     21  C   UNL d   1      27.701 -16.928  -0.355  0.00  0.00     0.037 A 
ATOM     22  C   UNL d   1      27.422 -15.693  -0.958  0.00  0.00     0.015 A 
BRANCH  20  23
ATOM     23  O   UNL d   1      27.011 -19.024   0.463  0.00  0.00    -0.361 OA
ATOM     24  H   UNL d   1      27.978 -19.109   0.496  0.00  0.00     0.217 HD
ENDBRANCH  20  23
ENDBRANCH  16  17
ENDBRANCH  13  15
ENDBRANCH   3  11
BRANCH   4  25
ATOM     25  C   UNL d   1      26.067  -8.668  -2.327  0.00  0.00    -0.028 A 
ATOM     26  C   UNL d   1      27.472  -8.578  -2.412  0.00  0.00     0.010 A 
ATOM     27  C   UNL d   1      28.241  -8.177  -1.320  0.00  0.00     0.003 A 
ATOM     28  C   UNL d   1      27.617  -7.770  -0.146  0.00  0.00     0.036 A 
ATOM     29  C   UNL d   1      26.219  -7.802  -0.069  0.00  0.00     0.103 A 
ATOM     30  C   UNL d   1      25.443  -8.237  -1.152  0.00  0.00     0.045 A 
BRANCH  29  31
ATOM     31  N   UNL d   1      25.552  -7.447   1.188  0.00  0.00    -0.116 N 
ATOM     32  O   UNL d   1      25.077  -6.311   1.293  0.00  0.00    -0.532 OA
ATOM     33  O   UNL d   1      25.526  -8.310   2.080  0.00  0.00    -0.532 OA
ENDBRANCH  29  31
ENDBRANCH   4  25
TORSDOF 6
ENDMDL
MODEL 6
REMARK VINA RESULT:    -7.166      5.795      9.621
REMARK INTER + INTRA:          -9.903
REMARK INTER:                  -8.956
REMARK INTRA:                  -0.947
REMARK CONF_INDEPENDENT:        1.790
REMARK UNBOUND:                -0.947
REMARK  6 active torsions:
REMARK  status: ('A' for Active; 'I' for Inactive)
REMARK    1  A    between atoms: C_3  and  C_4 
REMARK       I    between atoms: C_4  and  N_6 
REMARK    2  A    between atoms: N_6  and  N_7 
REMARK    3  A    between atoms: C_8  and  C_9 
REMARK    4  A    between atoms: C_12  and  O_13 
REMARK    5  A    between atoms: C_16  and  C_17 
REMARK    6  A    between atoms: C_21  and  N_22 
ROOT
ATOM      1  C   UNL d   1      29.338 -12.241  -4.989  0.00  0.00     0.069 C 
ATOM      2  C   UNL d   1      27.935 -12.481  -4.503  0.00  0.00     0.021 C 
ATOM      3  C   UNL d   1      27.149 -13.583  -4.646  0.00  0.00     0.060 C 
ATOM      4  C   UNL d   1      25.768 -13.546  -4.026  0.00  0.00     0.158 C 
ATOM      5  N   UNL d   1      25.272 -12.183  -3.913  0.00  0.00    -0.354 N 
ATOM      6  C   UNL d   1      26.100 -11.152  -3.605  0.00  0.00     0.172 C 
ATOM      7  S   UNL d   1      25.532  -9.702  -3.034  0.00  0.00    -0.041 SA
ATOM      8  N   UNL d   1      27.424 -11.368  -3.839  0.00  0.00    -0.337 N 
ATOM      9  H   UNL d   1      24.285 -12.019  -3.763  0.00  0.00     0.163 HD
ATOM     10  H   UNL d   1      28.042 -10.588  -3.634  0.00  0.00     0.168 HD
ENDROOT
BRANCH   3  11
ATOM     11  C   UNL d   1      27.649 -14.851  -5.330  0.00  0.00     0.272 C 
ATOM     12  O   UNL d   1      26.860 -15.574  -5.947  0.00  0.00    -0.266 OA
ATOM     13  N   UNL d   1      29.001 -15.193  -5.265  0.00  0.00    -0.243 N 
ATOM     14  H   UNL d   1      29.700 -14.656  -4.776  0.00  0.00     0.192 HD
BRANCH  13  15
ATOM     15  N   UNL d   1      29.404 -16.347  -5.926  0.00  0.00    -0.183 NA
ATOM     16  C   UNL d   1      30.092 -17.236  -5.280  0.00  0.00     0.150 C 
BRANCH  16  17
ATOM     17  C   UNL d   1      30.513 -18.513  -5.926  0.00  0.00    -0.017 A 
ATOM     18  C   UNL d   1      30.766 -18.578  -7.302  0.00  0.00     0.015 A 
ATOM     19  C   UNL d   1      31.169 -19.786  -7.896  0.00  0.00     0.037 A 
ATOM     20  C   UNL d   1      31.298 -20.929  -7.112  0.00  0.00     0.065 A 
ATOM     21  C   UNL d   1      31.035 -20.879  -5.746  0.00  0.00     0.037 A 
ATOM     22  C   UNL d   1      30.655 -19.669  -5.147  0.00  0.00     0.015 A 
BRANCH  20  23
ATOM     23  O   UNL d   1      31.681 -22.131  -7.632  0.00  0.00    -0.361 OA
ATOM     24  H   UNL d   1      31.157 -22.843  -7.230  0.00  0.00     0.217 HD
ENDBRANCH  20  23
ENDBRANCH  16  17
ENDBRANCH  13  15
ENDBRANCH   3  11
BRANCH   4  25
ATOM     25  C   UNL d   1      25.751 -14.231  -2.663  0.00  0.00    -0.028 A 
ATOM     26  C   UNL d   1      26.745 -13.982  -1.694  0.00  0.00     0.010 A 
ATOM     27  C   UNL d   1      26.842 -14.756  -0.539  0.00  0.00     0.003 A 
ATOM     28  C   UNL d   1      25.893 -15.739  -0.281  0.00  0.00     0.036 A 
ATOM     29  C   UNL d   1      24.867 -15.958  -1.209  0.00  0.00     0.103 A 
ATOM     30  C   UNL d   1      24.785 -15.206  -2.389  0.00  0.00     0.045 A 
BRANCH  29  31
ATOM     31  N   UNL d   1      23.904 -17.041  -0.986  0.00  0.00    -0.116 N 
ATOM     32  O   UNL d   1      24.339 -18.191  -0.874  0.00  0.00    -0.532 OA
ATOM     33  O   UNL d   1      22.702 -16.731  -0.945  0.00  0.00    -0.532 OA
ENDBRANCH  29  31
ENDBRANCH   4  25
TORSDOF 6
ENDMDL
MODEL 7
REMARK VINA RESULT:    -7.084      1.889      2.270
REMARK INTER + INTRA:          -9.880
REMARK INTER:                  -8.874
REMARK INTRA:                  -1.006
REMARK CONF_INDEPENDENT:        1.790
REMARK UNBOUND:                -1.006
REMARK  6 active torsions:
REMARK  status: ('A' for Active; 'I' for Inactive)
REMARK    1  A    between atoms: C_3  and  C_4 
REMARK       I    between atoms: C_4  and  N_6 
REMARK    2  A    between atoms: N_6  and  N_7 
REMARK    3  A    between atoms: C_8  and  C_9 
REMARK    4  A    between atoms: C_12  and  O_13 
REMARK    5  A    between atoms: C_16  and  C_17 
REMARK    6  A    between atoms: C_21  and  N_22 
ROOT
ATOM      1  C   UNL d   1      27.172 -11.776  -0.564  0.00  0.00     0.069 C 
ATOM      2  C   UNL d   1      27.439 -13.249  -0.711  0.00  0.00     0.021 C 
ATOM      3  C   UNL d   1      27.660 -14.185   0.253  0.00  0.00     0.060 C 
ATOM      4  C   UNL d   1      27.883 -15.614  -0.195  0.00  0.00     0.158 C 
ATOM      5  N   UNL d   1      28.424 -15.670  -1.545  0.00  0.00    -0.354 N 
ATOM      6  C   UNL d   1      28.028 -14.792  -2.502  0.00  0.00     0.172 C 
ATOM      7  S   UNL d   1      28.259 -15.084  -4.119  0.00  0.00    -0.041 SA
ATOM      8  N   UNL d   1      27.472 -13.635  -2.048  0.00  0.00    -0.337 N 
ATOM      9  H   UNL d   1      28.859 -16.521  -1.877  0.00  0.00     0.163 HD
ATOM     10  H   UNL d   1      27.200 -12.965  -2.763  0.00  0.00     0.168 HD
ENDROOT
BRANCH   3  11
ATOM     11  C   UNL d   1      27.606 -13.846   1.738  0.00  0.00     0.272 C 
ATOM     12  O   UNL d   1      27.136 -12.765   2.111  0.00  0.00    -0.266 OA
ATOM     13  N   UNL d   1      28.082 -14.759   2.680  0.00  0.00    -0.243 N 
ATOM     14  H   UNL d   1      28.484 -15.655   2.452  0.00  0.00     0.192 HD
BRANCH  13  15
ATOM     15  N   UNL d   1      27.987 -14.407   4.022  0.00  0.00    -0.183 NA
ATOM     16  C   UNL d   1      28.917 -13.673   4.548  0.00  0.00     0.150 C 
BRANCH  16  17
ATOM     17  C   UNL d   1      28.844 -13.228   5.971  0.00  0.00    -0.017 A 
ATOM     18  C   UNL d   1      28.997 -14.142   7.022  0.00  0.00     0.015 A 
ATOM     19  C   UNL d   1      28.932 -13.707   8.357  0.00  0.00     0.037 A 
ATOM     20  C   UNL d   1      28.695 -12.364   8.633  0.00  0.00     0.065 A 
ATOM     21  C   UNL d   1      28.528 -11.451   7.597  0.00  0.00     0.037 A 
ATOM     22  C   UNL d   1      28.615 -11.877   6.263  0.00  0.00     0.015 A 
BRANCH  20  23
ATOM     23  O   UNL d   1      28.618 -11.883   9.908  0.00  0.00    -0.361 OA
ATOM     24  H   UNL d   1      28.511 -10.918   9.888  0.00  0.00     0.217 HD
ENDBRANCH  20  23
ENDBRANCH  16  17
ENDBRANCH  13  15
ENDBRANCH   3  11
BRANCH   4  25
ATOM     25  C   UNL d   1      26.601 -16.434  -0.103  0.00  0.00    -0.028 A 
ATOM     26  C   UNL d   1      26.605 -17.771   0.346  0.00  0.00     0.010 A 
ATOM     27  C   UNL d   1      25.473 -18.578   0.235  0.00  0.00     0.003 A 
ATOM     28  C   UNL d   1      24.284 -18.041  -0.245  0.00  0.00     0.036 A 
ATOM     29  C   UNL d   1      24.252 -16.698  -0.641  0.00  0.00     0.103 A 
ATOM     30  C   UNL d   1      25.396 -15.892  -0.564  0.00  0.00     0.045 A 
BRANCH  29  31
ATOM     31  N   UNL d   1      23.025 -16.139  -1.219  0.00  0.00    -0.116 N 
ATOM     32  O   UNL d   1      21.947 -16.646  -0.893  0.00  0.00    -0.532 OA
ATOM     33  O   UNL d   1      23.152 -15.198  -2.019  0.00  0.00    -0.532 OA
ENDBRANCH  29  31
ENDBRANCH   4  25
TORSDOF 6
ENDMDL
MODEL 8
REMARK VINA RESULT:    -6.841      4.614      9.221
REMARK INTER + INTRA:          -9.565
REMARK INTER:                  -8.631
REMARK INTRA:                  -0.934
REMARK CONF_INDEPENDENT:        1.790
REMARK UNBOUND:                -0.934
REMARK  6 active torsions:
REMARK  status: ('A' for Active; 'I' for Inactive)
REMARK    1  A    between atoms: C_3  and  C_4 
REMARK       I    between atoms: C_4  and  N_6 
REMARK    2  A    between atoms: N_6  and  N_7 
REMARK    3  A    between atoms: C_8  and  C_9 
REMARK    4  A    between atoms: C_12  and  O_13 
REMARK    5  A    between atoms: C_16  and  C_17 
REMARK    6  A    between atoms: C_21  and  N_22 
ROOT
ATOM      1  C   UNL d   1      30.378 -15.171  -0.500  0.00  0.00     0.069 C 
ATOM      2  C   UNL d   1      28.891 -14.990  -0.371  0.00  0.00     0.021 C 
ATOM      3  C   UNL d   1      27.917 -15.169  -1.305  0.00  0.00     0.060 C 
ATOM      4  C   UNL d   1      26.484 -14.930  -0.878  0.00  0.00     0.158 C 
ATOM      5  N   UNL d   1      26.408 -13.989   0.230  0.00  0.00    -0.354 N 
ATOM      6  C   UNL d   1      27.341 -13.982   1.216  0.00  0.00     0.172 C 
ATOM      7  S   UNL d   1      27.066 -13.266   2.687  0.00  0.00    -0.041 SA
ATOM      8  N   UNL d   1      28.534 -14.559   0.904  0.00  0.00    -0.337 N 
ATOM      9  H   UNL d   1      25.528 -13.541   0.448  0.00  0.00     0.163 HD
ATOM     10  H   UNL d   1      29.243 -14.531   1.632  0.00  0.00     0.168 HD
ENDROOT
BRANCH   3  11
ATOM     11  C   UNL d   1      28.225 -15.672  -2.711  0.00  0.00     0.272 C 
ATOM     12  O   UNL d   1      27.566 -15.263  -3.673  0.00  0.00    -0.266 OA
ATOM     13  N   UNL d   1      29.256 -16.590  -2.914  0.00  0.00    -0.243 N 
ATOM     14  H   UNL d   1      29.832 -16.971  -2.178  0.00  0.00     0.192 HD
BRANCH  13  15
ATOM     15  N   UNL d   1      29.507 -16.995  -4.219  0.00  0.00    -0.183 NA
ATOM     16  C   UNL d   1      30.425 -17.884  -4.438  0.00  0.00     0.150 C 
BRANCH  16  17
ATOM     17  C   UNL d   1      30.707 -18.389  -5.813  0.00  0.00    -0.017 A 
ATOM     18  C   UNL d   1      30.500 -19.735  -6.146  0.00  0.00     0.015 A 
ATOM     19  C   UNL d   1      30.764 -20.195  -7.447  0.00  0.00     0.037 A 
ATOM     20  C   UNL d   1      31.251 -19.310  -8.405  0.00  0.00     0.065 A 
ATOM     21  C   UNL d   1      31.473 -17.975  -8.082  0.00  0.00     0.037 A 
ATOM     22  C   UNL d   1      31.189 -17.507  -6.790  0.00  0.00     0.015 A 
BRANCH  20  23
ATOM     23  O   UNL d   1      31.528 -19.698  -9.683  0.00  0.00    -0.361 OA
ATOM     24  H   UNL d   1      32.119 -19.050 -10.101  0.00  0.00     0.217 HD
ENDBRANCH  20  23
ENDBRANCH  16  17
ENDBRANCH  13  15
ENDBRANCH   3  11
BRANCH   4  25
ATOM     25  C   UNL d   1      25.785 -16.236  -0.513  0.00  0.00    -0.028 A 
ATOM     26  C   UNL d   1      26.487 -17.322   0.049  0.00  0.00     0.010 A 
ATOM     27  C   UNL d   1      25.894 -18.575   0.190  0.00  0.00     0.003 A 
ATOM     28  C   UNL d   1      24.556 -18.750  -0.145  0.00  0.00     0.036 A 
ATOM     29  C   UNL d   1      23.831 -17.663  -0.651  0.00  0.00     0.103 A 
ATOM     30  C   UNL d   1      24.433 -16.410  -0.827  0.00  0.00     0.045 A 
BRANCH  29  31
ATOM     31  N   UNL d   1      22.441 -17.852  -1.078  0.00  0.00    -0.116 N 
ATOM     32  O   UNL d   1      21.646 -16.924  -0.895  0.00  0.00    -0.532 OA
ATOM     33  O   UNL d   1      22.145 -18.949  -1.580  0.00  0.00    -0.532 OA
ENDBRANCH  29  31
ENDBRANCH   4  25
TORSDOF 6
ENDMDL
MODEL 9
REMARK VINA RESULT:    -6.804      6.265      7.836
REMARK INTER + INTRA:          -9.753
REMARK INTER:                  -8.594
REMARK INTRA:                  -1.159
REMARK CONF_INDEPENDENT:        1.790
REMARK UNBOUND:                -1.159
REMARK  6 active torsions:
REMARK  status: ('A' for Active; 'I' for Inactive)
REMARK    1  A    between atoms: C_3  and  C_4 
REMARK       I    between atoms: C_4  and  N_6 
REMARK    2  A    between atoms: N_6  and  N_7 
REMARK    3  A    between atoms: C_8  and  C_9 
REMARK    4  A    between atoms: C_12  and  O_13 
REMARK    5  A    between atoms: C_16  and  C_17 
REMARK    6  A    between atoms: C_21  and  N_22 
ROOT
ATOM      1  C   UNL d   1      30.052 -15.591  -3.877  0.00  0.00     0.069 C 
ATOM      2  C   UNL d   1      29.583 -14.843  -5.096  0.00  0.00     0.021 C 
ATOM      3  C   UNL d   1      28.317 -14.663  -5.562  0.00  0.00     0.060 C 
ATOM      4  C   UNL d   1      28.143 -13.837  -6.819  0.00  0.00     0.158 C 
ATOM      5  N   UNL d   1      29.336 -13.878  -7.652  0.00  0.00    -0.354 N 
ATOM      6  C   UNL d   1      30.579 -13.893  -7.106  0.00  0.00     0.172 C 
ATOM      7  S   UNL d   1      31.932 -13.492  -7.978  0.00  0.00    -0.041 SA
ATOM      8  N   UNL d   1      30.649 -14.304  -5.810  0.00  0.00    -0.337 N 
ATOM      9  H   UNL d   1      29.281 -13.596  -8.622  0.00  0.00     0.163 HD
ATOM     10  H   UNL d   1      31.583 -14.342  -5.409  0.00  0.00     0.168 HD
ENDROOT
BRANCH   3  11
ATOM     11  C   UNL d   1      27.097 -15.194  -4.818  0.00  0.00     0.272 C 
ATOM     12  O   UNL d   1      26.302 -15.948  -5.390  0.00  0.00    -0.266 OA
ATOM     13  N   UNL d   1      26.878 -14.833  -3.488  0.00  0.00    -0.243 N 
ATOM     14  H   UNL d   1      27.479 -14.219  -2.959  0.00  0.00     0.192 HD
BRANCH  13  15
ATOM     15  N   UNL d   1      25.762 -15.365  -2.853  0.00  0.00    -0.183 NA
ATOM     16  C   UNL d   1      25.924 -16.311  -1.981  0.00  0.00     0.150 C 
BRANCH  16  17
ATOM     17  C   UNL d   1      24.766 -16.888  -1.237  0.00  0.00    -0.017 A 
ATOM     18  C   UNL d   1      23.506 -16.275  -1.272  0.00  0.00     0.015 A 
ATOM     19  C   UNL d   1      22.424 -16.834  -0.571  0.00  0.00     0.037 A 
ATOM     20  C   UNL d   1      22.612 -17.993   0.176  0.00  0.00     0.065 A 
ATOM     21  C   UNL d   1      23.862 -18.602   0.229  0.00  0.00     0.037 A 
ATOM     22  C   UNL d   1      24.939 -18.060  -0.488  0.00  0.00     0.015 A 
BRANCH  20  23
ATOM     23  O   UNL d   1      21.601 -18.579   0.880  0.00  0.00    -0.361 OA
ATOM     24  H   UNL d   1      21.467 -18.106   1.718  0.00  0.00     0.217 HD
ENDBRANCH  20  23
ENDBRANCH  16  17
ENDBRANCH  13  15
ENDBRANCH   3  11
BRANCH   4  25
ATOM     25  C   UNL d   1      27.775 -12.393  -6.491  0.00  0.00    -0.028 A 
ATOM     26  C   UNL d   1      28.356 -11.305  -7.174  0.00  0.00     0.010 A 
ATOM     27  C   UNL d   1      28.176  -9.994  -6.738  0.00  0.00     0.003 A 
ATOM     28  C   UNL d   1      27.335  -9.731  -5.662  0.00  0.00     0.036 A 
ATOM     29  C   UNL d   1      26.707 -10.800  -5.009  0.00  0.00     0.103 A 
ATOM     30  C   UNL d   1      26.913 -12.123  -5.423  0.00  0.00     0.045 A 
BRANCH  29  31
ATOM     31  N   UNL d   1      25.878 -10.544  -3.827  0.00  0.00    -0.116 N 
ATOM     32  O   UNL d   1      25.581  -9.373  -3.568  0.00  0.00    -0.532 OA
ATOM     33  O   UNL d   1      25.542 -11.527  -3.146  0.00  0.00    -0.532 OA
ENDBRANCH  29  31
ENDBRANCH   4  25
TORSDOF 6
ENDMDL
