MODEL 1
REMARK VINA RESULT:   -13.179      0.000      0.000
REMARK INTER + INTRA:         -17.545
REMARK INTER:                 -16.162
REMARK INTRA:                  -1.384
REMARK CONF_INDEPENDENT:        2.983
REMARK UNBOUND:                -1.384
REMARK  10 active torsions:
REMARK  status: ('A' for Active; 'I' for Inactive)
REMARK    1  A    between atoms: C_2  and  C_10 
REMARK    2  A    between atoms: C_3  and  C_4 
REMARK    3  A    between atoms: C_10  and  N_11 
REMARK    4  A    between atoms: C_12  and  N_11 
REMARK    5  A    between atoms: C_14  and  C_15 
REMARK       I    between atoms: C_15  and  N_17 
REMARK    6  A    between atoms: N_17  and  C_18 
REMARK    7  A    between atoms: C_18  and  C_19 
REMARK    8  A    between atoms: C_19  and  C_20 
REMARK    9  A    between atoms: N_29  and  C_30 
REMARK   10  A    between atoms: C_30  and  C_31 
ROOT
ATOM      1  C   UNL d   1      29.002 -16.525  -0.034  0.00  0.00     0.249 C 
ATOM      2  C   UNL d   1      27.758 -17.261   0.375  0.00  0.00     0.080 C 
ATOM      3  C   UNL d   1      26.972 -17.588  -0.857  0.00  0.00     0.281 C 
ATOM      4  N   UNL d   1      27.291 -16.383  -1.825  0.00  0.00    -0.052 N 
ATOM      5  C   UNL d   1      28.678 -15.873  -1.394  0.00  0.00     0.271 C 
ATOM      6  H   UNL d   1      27.379 -16.702  -2.798  0.00  0.00     0.281 HD
ENDROOT
BRANCH   3   7
ATOM      7  C   UNL d   1      25.559 -17.773  -0.224  0.00  0.00     0.248 C 
ATOM      8  O   UNL d   1      25.418 -17.996   0.959  0.00  0.00    -0.271 OA
ATOM      9  N   UNL d   1      24.474 -17.723  -1.091  0.00  0.00    -0.359 N 
ATOM     10  H   UNL d   1      24.538 -18.081  -2.034  0.00  0.00     0.162 HD
BRANCH   9  11
ATOM     11  C   UNL d   1      23.141 -17.536  -0.537  0.00  0.00     0.127 C 
BRANCH  11  12
ATOM     12  C   UNL d   1      22.707 -18.571   0.480  0.00  0.00     0.058 C 
BRANCH  12  13
ATOM     13  C   UNL d   1      21.347 -19.085   0.103  0.00  0.00    -0.054 C 
ATOM     14  C   UNL d   1      20.755 -19.134  -1.159  0.00  0.00     0.007 C 
ATOM     15  C   UNL d   1      19.463 -19.700  -1.270  0.00  0.00     0.022 C 
ATOM     16  C   UNL d   1      18.773 -20.026  -0.089  0.00  0.00     0.170 C 
ATOM     17  C   UNL d   1      19.170 -19.420   1.061  0.00  0.00     0.092 C 
ATOM     18  O   UNL d   1      18.523 -21.374   0.374  0.00  0.00    -0.341 OA
ATOM     19  C   UNL d   1      20.534 -19.325   1.198  0.00  0.00     0.043 C 
ATOM     20  O   UNL d   1      18.437 -19.823   2.147  0.00  0.00    -0.327 OA
ATOM     21  C   UNL d   1      18.569 -21.204   1.844  0.00  0.00     0.346 C 
ENDBRANCH  12  13
ENDBRANCH  11  12
ENDBRANCH   9  11
ENDBRANCH   3   7
BRANCH   4  22
ATOM     22  C   UNL d   1      26.255 -15.277  -1.904  0.00  0.00     0.274 C 
BRANCH  22  23
ATOM     23  C   UNL d   1      26.519 -14.165  -2.921  0.00  0.00    -0.031 C 
ATOM     24  C   UNL d   1      25.611 -13.110  -3.065  0.00  0.00     0.009 C 
ATOM     25  C   UNL d   1      25.565 -12.361  -4.251  0.00  0.00     0.002 C 
ATOM     26  C   UNL d   1      26.386 -12.678  -5.323  0.00  0.00     0.024 C 
ATOM     27  C   UNL d   1      27.358 -13.629  -5.150  0.00  0.00     0.034 C 
ATOM     28 CL   UNL d   1      28.303 -14.023  -6.523  0.00  0.00    -0.084 Cl
ATOM     29  C   UNL d   1      27.517 -14.241  -3.907  0.00  0.00     0.032 C 
ENDBRANCH  22  23
ENDBRANCH   4  22
BRANCH   1  30
ATOM     30  N   UNL d   1      29.266 -15.528   0.991  0.00  0.00     0.093 N 
ATOM     31  H   UNL d   1      29.972 -15.830   1.661  0.00  0.00     0.316 HD
BRANCH  30  32
ATOM     32  C   UNL d   1      28.080 -15.089   1.739  0.00  0.00     0.304 C 
BRANCH  32  33
ATOM     33  C   UNL d   1      28.450 -14.314   2.978  0.00  0.00    -0.055 C 
ATOM     34  C   UNL d   1      29.210 -13.033   2.690  0.00  0.00     0.045 C 
ATOM     35  C   UNL d   1      28.133 -14.728   4.227  0.00  0.00     0.015 C 
BRANCH  35  36
ATOM     36  C   UNL d   1      28.345 -13.929   5.431  0.00  0.00    -0.036 A 
ATOM     37  C   UNL d   1      27.780 -12.662   5.572  0.00  0.00     0.011 A 
ATOM     38  C   UNL d   1      28.001 -11.943   6.746  0.00  0.00     0.001 A 
ATOM     39  C   UNL d   1      28.704 -12.523   7.806  0.00  0.00     0.000 A 
ATOM     40  C   UNL d   1      29.275 -13.781   7.661  0.00  0.00     0.001 A 
ATOM     41  C   UNL d   1      29.152 -14.446   6.453  0.00  0.00     0.011 A 
ENDBRANCH  35  36
ENDBRANCH  32  33
ENDBRANCH  30  32
ENDBRANCH   1  30
TORSDOF 10
ENDMDL
MODEL 2
REMARK VINA RESULT:   -12.652      4.501      7.628
REMARK INTER + INTRA:         -17.612
REMARK INTER:                 -15.635
REMARK INTRA:                  -1.977
REMARK CONF_INDEPENDENT:        2.983
REMARK UNBOUND:                -1.977
REMARK  10 active torsions:
REMARK  status: ('A' for Active; 'I' for Inactive)
REMARK    1  A    between atoms: C_2  and  C_10 
REMARK    2  A    between atoms: C_3  and  C_4 
REMARK    3  A    between atoms: C_10  and  N_11 
REMARK    4  A    between atoms: C_12  and  N_11 
REMARK    5  A    between atoms: C_14  and  C_15 
REMARK       I    between atoms: C_15  and  N_17 
REMARK    6  A    between atoms: N_17  and  C_18 
REMARK    7  A    between atoms: C_18  and  C_19 
REMARK    8  A    between atoms: C_19  and  C_20 
REMARK    9  A    between atoms: N_29  and  C_30 
REMARK   10  A    between atoms: C_30  and  C_31 
ROOT
ATOM      1  C   UNL d   1      32.044 -15.898   1.342  0.00  0.00     0.249 C 
ATOM      2  C   UNL d   1      30.899 -14.962   1.083  0.00  0.00     0.080 C 
ATOM      3  C   UNL d   1      30.883 -13.919   2.158  0.00  0.00     0.281 C 
ATOM      4  N   UNL d   1      31.435 -14.688   3.421  0.00  0.00    -0.052 N 
ATOM      5  C   UNL d   1      32.328 -15.808   2.855  0.00  0.00     0.271 C 
ATOM      6  H   UNL d   1      32.039 -14.082   3.990  0.00  0.00     0.281 HD
ENDROOT
BRANCH   3   7
ATOM      7  C   UNL d   1      29.393 -13.469   2.063  0.00  0.00     0.248 C 
ATOM      8  O   UNL d   1      29.067 -12.315   2.233  0.00  0.00    -0.271 OA
ATOM      9  N   UNL d   1      28.453 -14.466   1.828  0.00  0.00    -0.359 N 
ATOM     10  H   UNL d   1      28.565 -15.394   2.210  0.00  0.00     0.162 HD
BRANCH   9  11
ATOM     11  C   UNL d   1      27.121 -14.082   1.385  0.00  0.00     0.127 C 
BRANCH  11  12
ATOM     12  C   UNL d   1      26.744 -14.531  -0.012  0.00  0.00     0.058 C 
BRANCH  12  13
ATOM     13  C   UNL d   1      26.280 -15.958   0.042  0.00  0.00    -0.054 C 
ATOM     14  C   UNL d   1      26.976 -17.083   0.487  0.00  0.00     0.007 C 
ATOM     15  C   UNL d   1      26.308 -18.330   0.472  0.00  0.00     0.022 C 
ATOM     16  C   UNL d   1      25.047 -18.406  -0.145  0.00  0.00     0.170 C 
ATOM     17  C   UNL d   1      24.722 -17.434  -1.038  0.00  0.00     0.092 C 
ATOM     18  O   UNL d   1      23.794 -18.572   0.559  0.00  0.00    -0.341 OA
ATOM     19  C   UNL d   1      25.098 -16.171  -0.646  0.00  0.00     0.043 C 
ATOM     20  O   UNL d   1      23.468 -17.602  -1.565  0.00  0.00    -0.327 OA
ATOM     21  C   UNL d   1      22.860 -17.808  -0.298  0.00  0.00     0.346 C 
ENDBRANCH  12  13
ENDBRANCH  11  12
ENDBRANCH   9  11
ENDBRANCH   3   7
BRANCH   4  22
ATOM     22  C   UNL d   1      30.406 -15.199   4.413  0.00  0.00     0.274 C 
BRANCH  22  23
ATOM     23  C   UNL d   1      29.607 -14.139   5.174  0.00  0.00    -0.031 C 
ATOM     24  C   UNL d   1      28.241 -14.323   5.415  0.00  0.00     0.009 C 
ATOM     25  C   UNL d   1      27.405 -13.225   5.673  0.00  0.00     0.002 C 
ATOM     26  C   UNL d   1      27.904 -11.932   5.650  0.00  0.00     0.024 C 
ATOM     27  C   UNL d   1      29.258 -11.750   5.534  0.00  0.00     0.034 C 
ATOM     28 CL   UNL d   1      29.814 -10.132   5.451  0.00  0.00    -0.084 Cl
ATOM     29  C   UNL d   1      30.104 -12.857   5.461  0.00  0.00     0.032 C 
ENDBRANCH  22  23
ENDBRANCH   4  22
BRANCH   1  30
ATOM     30  N   UNL d   1      31.605 -17.229   0.955  0.00  0.00     0.093 N 
ATOM     31  H   UNL d   1      30.908 -17.614   1.592  0.00  0.00     0.316 HD
BRANCH  30  32
ATOM     32  C   UNL d   1      32.687 -18.212   0.808  0.00  0.00     0.304 C 
BRANCH  32  33
ATOM     33  C   UNL d   1      32.962 -18.944   2.098  0.00  0.00    -0.055 C 
ATOM     34  C   UNL d   1      34.073 -18.325   2.924  0.00  0.00     0.045 C 
ATOM     35  C   UNL d   1      32.279 -20.050   2.476  0.00  0.00     0.015 C 
BRANCH  35  36
ATOM     36  C   UNL d   1      32.420 -20.691   3.781  0.00  0.00    -0.036 A 
ATOM     37  C   UNL d   1      33.675 -20.966   4.323  0.00  0.00     0.011 A 
ATOM     38  C   UNL d   1      33.758 -21.568   5.579  0.00  0.00     0.001 A 
ATOM     39  C   UNL d   1      32.600 -21.807   6.324  0.00  0.00     0.000 A 
ATOM     40  C   UNL d   1      31.350 -21.541   5.779  0.00  0.00     0.001 A 
ATOM     41  C   UNL d   1      31.265 -21.051   4.486  0.00  0.00     0.011 A 
ENDBRANCH  35  36
ENDBRANCH  32  33
ENDBRANCH  30  32
ENDBRANCH   1  30
TORSDOF 10
ENDMDL
MODEL 3
REMARK VINA RESULT:   -12.156      3.613      5.563
REMARK INTER + INTRA:         -17.690
REMARK INTER:                 -15.139
REMARK INTRA:                  -2.551
REMARK CONF_INDEPENDENT:        2.983
REMARK UNBOUND:                -2.551
REMARK  10 active torsions:
REMARK  status: ('A' for Active; 'I' for Inactive)
REMARK    1  A    between atoms: C_2  and  C_10 
REMARK    2  A    between atoms: C_3  and  C_4 
REMARK    3  A    between atoms: C_10  and  N_11 
REMARK    4  A    between atoms: C_12  and  N_11 
REMARK    5  A    between atoms: C_14  and  C_15 
REMARK       I    between atoms: C_15  and  N_17 
REMARK    6  A    between atoms: N_17  and  C_18 
REMARK    7  A    between atoms: C_18  and  C_19 
REMARK    8  A    between atoms: C_19  and  C_20 
REMARK    9  A    between atoms: N_29  and  C_30 
REMARK   10  A    between atoms: C_30  and  C_31 
ROOT
ATOM      1  C   UNL d   1      30.972 -13.482   2.539  0.00  0.00     0.249 C 
ATOM      2  C   UNL d   1      30.314 -14.594   1.774  0.00  0.00     0.080 C 
ATOM      3  C   UNL d   1      29.432 -13.992   0.724  0.00  0.00     0.281 C 
ATOM      4  N   UNL d   1      28.941 -12.646   1.387  0.00  0.00    -0.052 N 
ATOM      5  C   UNL d   1      30.048 -12.257   2.383  0.00  0.00     0.271 C 
ATOM      6  H   UNL d   1      28.884 -11.890   0.693  0.00  0.00     0.281 HD
ENDROOT
BRANCH   3   7
ATOM      7  C   UNL d   1      28.459 -15.186   0.484  0.00  0.00     0.248 C 
ATOM      8  O   UNL d   1      27.261 -15.023   0.406  0.00  0.00    -0.271 OA
ATOM      9  N   UNL d   1      29.028 -16.453   0.418  0.00  0.00    -0.359 N 
ATOM     10  H   UNL d   1      29.829 -16.699   0.982  0.00  0.00     0.162 HD
BRANCH   9  11
ATOM     11  C   UNL d   1      28.247 -17.544  -0.144  0.00  0.00     0.127 C 
BRANCH  11  12
ATOM     12  C   UNL d   1      27.031 -17.958   0.660  0.00  0.00     0.058 C 
BRANCH  12  13
ATOM     13  C   UNL d   1      25.802 -17.768  -0.182  0.00  0.00    -0.054 C 
ATOM     14  C   UNL d   1      25.671 -17.077  -1.387  0.00  0.00     0.007 C 
ATOM     15  C   UNL d   1      24.404 -17.066  -2.017  0.00  0.00     0.022 C 
ATOM     16  C   UNL d   1      23.307 -17.600  -1.319  0.00  0.00     0.170 C 
ATOM     17  C   UNL d   1      23.410 -17.709   0.032  0.00  0.00     0.092 C 
ATOM     18  O   UNL d   1      22.645 -18.843  -1.651  0.00  0.00    -0.341 OA
ATOM     19  C   UNL d   1      24.638 -18.151   0.462  0.00  0.00     0.043 C 
ATOM     20  O   UNL d   1      22.289 -18.253   0.603  0.00  0.00    -0.327 OA
ATOM     21  C   UNL d   1      22.228 -19.333  -0.317  0.00  0.00     0.346 C 
ENDBRANCH  12  13
ENDBRANCH  11  12
ENDBRANCH   9  11
ENDBRANCH   3   7
BRANCH   4  22
ATOM     22  C   UNL d   1      27.559 -12.659   2.015  0.00  0.00     0.274 C 
BRANCH  22  23
ATOM     23  C   UNL d   1      27.194 -11.455   2.886  0.00  0.00    -0.031 C 
ATOM     24  C   UNL d   1      26.480 -10.382   2.342  0.00  0.00     0.009 C 
ATOM     25  C   UNL d   1      26.534  -9.111   2.937  0.00  0.00     0.002 C 
ATOM     26  C   UNL d   1      27.331  -8.880   4.048  0.00  0.00     0.024 C 
ATOM     27  C   UNL d   1      27.938  -9.948   4.657  0.00  0.00     0.034 C 
ATOM     28 CL   UNL d   1      28.957  -9.599   5.988  0.00  0.00    -0.084 Cl
ATOM     29  C   UNL d   1      27.731 -11.237   4.166  0.00  0.00     0.032 C 
ENDBRANCH  22  23
ENDBRANCH   4  22
BRANCH   1  30
ATOM     30  N   UNL d   1      31.065 -13.913   3.926  0.00  0.00     0.093 N 
ATOM     31  H   UNL d   1      31.962 -14.344   4.144  0.00  0.00     0.316 HD
BRANCH  30  32
ATOM     32  C   UNL d   1      29.998 -14.826   4.356  0.00  0.00     0.304 C 
BRANCH  32  33
ATOM     33  C   UNL d   1      29.270 -14.309   5.572  0.00  0.00    -0.055 C 
ATOM     34  C   UNL d   1      27.762 -14.287   5.414  0.00  0.00     0.045 C 
ATOM     35  C   UNL d   1      29.909 -13.903   6.693  0.00  0.00     0.015 C 
BRANCH  35  36
ATOM     36  C   UNL d   1      29.230 -13.540   7.934  0.00  0.00    -0.036 A 
ATOM     37  C   UNL d   1      29.088 -14.454   8.979  0.00  0.00     0.011 A 
ATOM     38  C   UNL d   1      28.443 -14.056  10.150  0.00  0.00     0.001 A 
ATOM     39  C   UNL d   1      28.025 -12.732  10.309  0.00  0.00     0.000 A 
ATOM     40  C   UNL d   1      28.157 -11.825   9.265  0.00  0.00     0.001 A 
ATOM     41  C   UNL d   1      28.694 -12.252   8.061  0.00  0.00     0.011 A 
ENDBRANCH  35  36
ENDBRANCH  32  33
ENDBRANCH  30  32
ENDBRANCH   1  30
TORSDOF 10
ENDMDL
MODEL 4
REMARK VINA RESULT:   -12.085      4.163      6.990
REMARK INTER + INTRA:         -17.313
REMARK INTER:                 -15.068
REMARK INTRA:                  -2.245
REMARK CONF_INDEPENDENT:        2.983
REMARK UNBOUND:                -2.245
REMARK  10 active torsions:
REMARK  status: ('A' for Active; 'I' for Inactive)
REMARK    1  A    between atoms: C_2  and  C_10 
REMARK    2  A    between atoms: C_3  and  C_4 
REMARK    3  A    between atoms: C_10  and  N_11 
REMARK    4  A    between atoms: C_12  and  N_11 
REMARK    5  A    between atoms: C_14  and  C_15 
REMARK       I    between atoms: C_15  and  N_17 
REMARK    6  A    between atoms: N_17  and  C_18 
REMARK    7  A    between atoms: C_18  and  C_19 
REMARK    8  A    between atoms: C_19  and  C_20 
REMARK    9  A    between atoms: N_29  and  C_30 
REMARK   10  A    between atoms: C_30  and  C_31 
ROOT
ATOM      1  C   UNL d   1      29.318 -14.198   2.564  0.00  0.00     0.249 C 
ATOM      2  C   UNL d   1      30.140 -14.808   1.466  0.00  0.00     0.080 C 
ATOM      3  C   UNL d   1      29.272 -14.972   0.257  0.00  0.00     0.281 C 
ATOM      4  N   UNL d   1      27.842 -15.244   0.867  0.00  0.00    -0.052 N 
ATOM      5  C   UNL d   1      27.853 -14.559   2.246  0.00  0.00     0.271 C 
ATOM      6  H   UNL d   1      27.108 -14.787   0.312  0.00  0.00     0.281 HD
ENDROOT
BRANCH   3   7
ATOM      7  C   UNL d   1      30.068 -16.088  -0.487  0.00  0.00     0.248 C 
ATOM      8  O   UNL d   1      29.961 -17.255  -0.180  0.00  0.00    -0.271 OA
ATOM      9  N   UNL d   1      30.944 -15.672  -1.483  0.00  0.00    -0.359 N 
ATOM     10  H   UNL d   1      31.455 -14.804  -1.405  0.00  0.00     0.162 HD
BRANCH   9  11
ATOM     11  C   UNL d   1      31.440 -16.655  -2.435  0.00  0.00     0.127 C 
BRANCH  11  12
ATOM     12  C   UNL d   1      30.377 -17.459  -3.156  0.00  0.00     0.058 C 
BRANCH  12  13
ATOM     13  C   UNL d   1      29.723 -16.588  -4.188  0.00  0.00    -0.054 C 
ATOM     14  C   UNL d   1      30.164 -16.284  -5.477  0.00  0.00     0.007 C 
ATOM     15  C   UNL d   1      29.349 -15.457  -6.285  0.00  0.00     0.022 C 
ATOM     16  C   UNL d   1      28.228 -14.845  -5.697  0.00  0.00     0.170 C 
ATOM     17  C   UNL d   1      28.211 -14.728  -4.342  0.00  0.00     0.092 C 
ATOM     18  O   UNL d   1      26.854 -15.211  -5.965  0.00  0.00    -0.341 OA
ATOM     19  C   UNL d   1      28.673 -15.840  -3.682  0.00  0.00     0.043 C 
ATOM     20  O   UNL d   1      27.067 -14.129  -3.881  0.00  0.00    -0.327 OA
ATOM     21  C   UNL d   1      26.209 -14.953  -4.657  0.00  0.00     0.346 C 
ENDBRANCH  12  13
ENDBRANCH  11  12
ENDBRANCH   9  11
ENDBRANCH   3   7
BRANCH   4  22
ATOM     22  C   UNL d   1      27.392 -16.692   0.932  0.00  0.00     0.274 C 
BRANCH  22  23
ATOM     23  C   UNL d   1      26.360 -17.133  -0.108  0.00  0.00    -0.031 C 
ATOM     24  C   UNL d   1      26.304 -16.505  -1.357  0.00  0.00     0.009 C 
ATOM     25  C   UNL d   1      25.130 -16.543  -2.126  0.00  0.00     0.002 C 
ATOM     26  C   UNL d   1      23.986 -17.162  -1.646  0.00  0.00     0.024 C 
ATOM     27  C   UNL d   1      24.065 -17.880  -0.481  0.00  0.00     0.034 C 
ATOM     28 CL   UNL d   1      22.611 -18.575   0.097  0.00  0.00    -0.084 Cl
ATOM     29  C   UNL d   1      25.286 -17.991   0.185  0.00  0.00     0.032 C 
ENDBRANCH  22  23
ENDBRANCH   4  22
BRANCH   1  30
ATOM     30  N   UNL d   1      29.761 -14.796   3.814  0.00  0.00     0.093 N 
ATOM     31  H   UNL d   1      30.349 -15.616   3.671  0.00  0.00     0.316 HD
BRANCH  30  32
ATOM     32  C   UNL d   1      28.677 -15.163   4.735  0.00  0.00     0.304 C 
BRANCH  32  33
ATOM     33  C   UNL d   1      28.617 -14.244   5.929  0.00  0.00    -0.055 C 
ATOM     34  C   UNL d   1      27.668 -13.075   5.750  0.00  0.00     0.045 C 
ATOM     35  C   UNL d   1      29.346 -14.449   7.051  0.00  0.00     0.015 C 
BRANCH  35  36
ATOM     36  C   UNL d   1      29.199 -13.665   8.275  0.00  0.00    -0.036 A 
ATOM     37  C   UNL d   1      29.446 -12.292   8.292  0.00  0.00     0.011 A 
ATOM     38  C   UNL d   1      29.280 -11.584   9.483  0.00  0.00     0.001 A 
ATOM     39  C   UNL d   1      28.783 -12.226  10.620  0.00  0.00     0.000 A 
ATOM     40  C   UNL d   1      28.546 -13.595  10.605  0.00  0.00     0.001 A 
ATOM     41  C   UNL d   1      28.821 -14.317   9.455  0.00  0.00     0.011 A 
ENDBRANCH  35  36
ENDBRANCH  32  33
ENDBRANCH  30  32
ENDBRANCH   1  30
TORSDOF 10
ENDMDL
MODEL 5
REMARK VINA RESULT:   -11.731      3.527      8.698
REMARK INTER + INTRA:         -17.509
REMARK INTER:                 -14.714
REMARK INTRA:                  -2.795
REMARK CONF_INDEPENDENT:        2.983
REMARK UNBOUND:                -2.795
REMARK  10 active torsions:
REMARK  status: ('A' for Active; 'I' for Inactive)
REMARK    1  A    between atoms: C_2  and  C_10 
REMARK    2  A    between atoms: C_3  and  C_4 
REMARK    3  A    between atoms: C_10  and  N_11 
REMARK    4  A    between atoms: C_12  and  N_11 
REMARK    5  A    between atoms: C_14  and  C_15 
REMARK       I    between atoms: C_15  and  N_17 
REMARK    6  A    between atoms: N_17  and  C_18 
REMARK    7  A    between atoms: C_18  and  C_19 
REMARK    8  A    between atoms: C_19  and  C_20 
REMARK    9  A    between atoms: N_29  and  C_30 
REMARK   10  A    between atoms: C_30  and  C_31 
ROOT
ATOM      1  C   UNL d   1      26.919 -17.886  -0.424  0.00  0.00     0.249 C 
ATOM      2  C   UNL d   1      27.930 -17.111  -1.218  0.00  0.00     0.080 C 
ATOM      3  C   UNL d   1      28.889 -16.465  -0.266  0.00  0.00     0.281 C 
ATOM      4  N   UNL d   1      28.000 -16.171   1.005  0.00  0.00    -0.052 N 
ATOM      5  C   UNL d   1      26.881 -17.227   0.970  0.00  0.00     0.271 C 
ATOM      6  H   UNL d   1      28.530 -16.325   1.872  0.00  0.00     0.281 HD
ENDROOT
BRANCH   3   7
ATOM      7  C   UNL d   1      29.423 -15.314  -1.172  0.00  0.00     0.248 C 
ATOM      8  O   UNL d   1      29.880 -15.533  -2.273  0.00  0.00    -0.271 OA
ATOM      9  N   UNL d   1      29.397 -14.033  -0.634  0.00  0.00    -0.359 N 
ATOM     10  H   UNL d   1      29.560 -13.872   0.349  0.00  0.00     0.162 HD
BRANCH   9  11
ATOM     11  C   UNL d   1      29.543 -12.894  -1.529  0.00  0.00     0.127 C 
BRANCH  11  12
ATOM     12  C   UNL d   1      28.262 -12.150  -1.851  0.00  0.00     0.058 C 
BRANCH  12  13
ATOM     13  C   UNL d   1      27.250 -13.127  -2.375  0.00  0.00    -0.054 C 
ATOM     14  C   UNL d   1      26.020 -13.485  -1.823  0.00  0.00     0.007 C 
ATOM     15  C   UNL d   1      25.216 -14.413  -2.526  0.00  0.00     0.022 C 
ATOM     16  C   UNL d   1      25.766 -15.056  -3.650  0.00  0.00     0.170 C 
ATOM     17  C   UNL d   1      27.121 -15.085  -3.760  0.00  0.00     0.092 C 
ATOM     18  O   UNL d   1      25.378 -14.796  -5.019  0.00  0.00    -0.341 OA
ATOM     19  C   UNL d   1      27.732 -13.905  -3.414  0.00  0.00     0.043 C 
ATOM     20  O   UNL d   1      27.542 -15.724  -4.897  0.00  0.00    -0.327 OA
ATOM     21  C   UNL d   1      26.652 -15.009  -5.743  0.00  0.00     0.346 C 
ENDBRANCH  12  13
ENDBRANCH  11  12
ENDBRANCH   9  11
ENDBRANCH   3   7
BRANCH   4  22
ATOM     22  C   UNL d   1      27.472 -14.756   1.156  0.00  0.00     0.274 C 
BRANCH  22  23
ATOM     23  C   UNL d   1      27.930 -13.985   2.396  0.00  0.00    -0.031 C 
ATOM     24  C   UNL d   1      28.115 -14.651   3.613  0.00  0.00     0.009 C 
ATOM     25  C   UNL d   1      28.072 -13.948   4.827  0.00  0.00     0.002 C 
ATOM     26  C   UNL d   1      27.800 -12.589   4.852  0.00  0.00     0.024 C 
ATOM     27  C   UNL d   1      27.737 -11.908   3.664  0.00  0.00     0.034 C 
ATOM     28 CL   UNL d   1      27.341 -10.244   3.749  0.00  0.00    -0.084 Cl
ATOM     29  C   UNL d   1      27.963 -12.582   2.464  0.00  0.00     0.032 C 
ENDBRANCH  22  23
ENDBRANCH   4  22
BRANCH   1  30
ATOM     30  N   UNL d   1      25.645 -17.760  -1.114  0.00  0.00     0.093 N 
ATOM     31  H   UNL d   1      25.753 -17.607  -2.115  0.00  0.00     0.316 HD
BRANCH  30  32
ATOM     32  C   UNL d   1      24.761 -16.714  -0.581  0.00  0.00     0.304 C 
BRANCH  32  33
ATOM     33  C   UNL d   1      23.333 -17.184  -0.472  0.00  0.00    -0.055 C 
ATOM     34  C   UNL d   1      22.314 -16.138  -0.880  0.00  0.00     0.045 C 
ATOM     35  C   UNL d   1      22.998 -18.425  -0.047  0.00  0.00     0.015 C 
BRANCH  35  36
ATOM     36  C   UNL d   1      21.638 -18.958  -0.072  0.00  0.00    -0.036 A 
ATOM     37  C   UNL d   1      20.966 -19.176  -1.275  0.00  0.00     0.011 A 
ATOM     38  C   UNL d   1      19.672 -19.699  -1.247  0.00  0.00     0.001 A 
ATOM     39  C   UNL d   1      19.094 -20.085  -0.035  0.00  0.00     0.000 A 
ATOM     40  C   UNL d   1      19.760 -19.857   1.163  0.00  0.00     0.001 A 
ATOM     41  C   UNL d   1      20.996 -19.232   1.142  0.00  0.00     0.011 A 
ENDBRANCH  35  36
ENDBRANCH  32  33
ENDBRANCH  30  32
ENDBRANCH   1  30
TORSDOF 10
ENDMDL
MODEL 6
REMARK VINA RESULT:   -11.312      4.364      8.566
REMARK INTER + INTRA:         -18.021
REMARK INTER:                 -14.295
REMARK INTRA:                  -3.726
REMARK CONF_INDEPENDENT:        2.983
REMARK UNBOUND:                -3.726
REMARK  10 active torsions:
REMARK  status: ('A' for Active; 'I' for Inactive)
REMARK    1  A    between atoms: C_2  and  C_10 
REMARK    2  A    between atoms: C_3  and  C_4 
REMARK    3  A    between atoms: C_10  and  N_11 
REMARK    4  A    between atoms: C_12  and  N_11 
REMARK    5  A    between atoms: C_14  and  C_15 
REMARK       I    between atoms: C_15  and  N_17 
REMARK    6  A    between atoms: N_17  and  C_18 
REMARK    7  A    between atoms: C_18  and  C_19 
REMARK    8  A    between atoms: C_19  and  C_20 
REMARK    9  A    between atoms: N_29  and  C_30 
REMARK   10  A    between atoms: C_30  and  C_31 
ROOT
ATOM      1  C   UNL d   1      31.096 -15.887   0.494  0.00  0.00     0.249 C 
ATOM      2  C   UNL d   1      30.819 -14.769  -0.469  0.00  0.00     0.080 C 
ATOM      3  C   UNL d   1      31.550 -13.548  -0.005  0.00  0.00     0.281 C 
ATOM      4  N   UNL d   1      31.549 -13.696   1.567  0.00  0.00    -0.052 N 
ATOM      5  C   UNL d   1      31.464 -15.210   1.830  0.00  0.00     0.271 C 
ATOM      6  H   UNL d   1      32.436 -13.371   1.971  0.00  0.00     0.281 HD
ENDROOT
BRANCH   3   7
ATOM      7  C   UNL d   1      30.707 -12.449  -0.721  0.00  0.00     0.248 C 
ATOM      8  O   UNL d   1      31.225 -11.469  -1.209  0.00  0.00    -0.271 OA
ATOM      9  N   UNL d   1      29.328 -12.624  -0.726  0.00  0.00    -0.359 N 
ATOM     10  H   UNL d   1      28.849 -13.046   0.057  0.00  0.00     0.162 HD
BRANCH   9  11
ATOM     11  C   UNL d   1      28.525 -11.846  -1.659  0.00  0.00     0.127 C 
BRANCH  11  12
ATOM     12  C   UNL d   1      27.034 -12.111  -1.614  0.00  0.00     0.058 C 
BRANCH  12  13
ATOM     13  C   UNL d   1      26.694 -13.156  -2.637  0.00  0.00    -0.054 C 
ATOM     14  C   UNL d   1      25.458 -13.429  -3.224  0.00  0.00     0.007 C 
ATOM     15  C   UNL d   1      25.392 -14.453  -4.199  0.00  0.00     0.022 C 
ATOM     16  C   UNL d   1      26.529 -15.255  -4.403  0.00  0.00     0.170 C 
ATOM     17  C   UNL d   1      27.457 -15.299  -3.410  0.00  0.00     0.092 C 
ATOM     18  O   UNL d   1      27.374 -15.201  -5.576  0.00  0.00    -0.341 OA
ATOM     19  C   UNL d   1      27.708 -14.079  -2.829  0.00  0.00     0.043 C 
ATOM     20  O   UNL d   1      28.525 -16.099  -3.725  0.00  0.00    -0.327 OA
ATOM     21  C   UNL d   1      28.705 -15.518  -5.008  0.00  0.00     0.346 C 
ENDBRANCH  12  13
ENDBRANCH  11  12
ENDBRANCH   9  11
ENDBRANCH   3   7
BRANCH   4  22
ATOM     22  C   UNL d   1      30.499 -12.906   2.326  0.00  0.00     0.274 C 
BRANCH  22  23
ATOM     23  C   UNL d   1      29.649 -13.688   3.329  0.00  0.00    -0.031 C 
ATOM     24  C   UNL d   1      28.290 -13.912   3.080  0.00  0.00     0.009 C 
ATOM     25  C   UNL d   1      27.405 -14.192   4.134  0.00  0.00     0.002 C 
ATOM     26  C   UNL d   1      27.847 -14.207   5.447  0.00  0.00     0.024 C 
ATOM     27  C   UNL d   1      29.193 -14.109   5.691  0.00  0.00     0.034 C 
ATOM     28 CL   UNL d   1      29.679 -14.075   7.333  0.00  0.00    -0.084 Cl
ATOM     29  C   UNL d   1      30.087 -14.014   4.624  0.00  0.00     0.032 C 
ENDBRANCH  22  23
ENDBRANCH   4  22
BRANCH   1  30
ATOM     30  N   UNL d   1      29.875 -16.669   0.605  0.00  0.00     0.093 N 
ATOM     31  H   UNL d   1      30.046 -17.623   0.921  0.00  0.00     0.316 HD
BRANCH  30  32
ATOM     32  C   UNL d   1      29.072 -16.729  -0.624  0.00  0.00     0.304 C 
BRANCH  32  33
ATOM     33  C   UNL d   1      27.592 -16.701  -0.332  0.00  0.00    -0.055 C 
ATOM     34  C   UNL d   1      27.179 -15.589   0.613  0.00  0.00     0.045 C 
ATOM     35  C   UNL d   1      26.721 -17.589  -0.865  0.00  0.00     0.015 C 
BRANCH  35  36
ATOM     36  C   UNL d   1      25.271 -17.497  -0.721  0.00  0.00    -0.036 A 
ATOM     37  C   UNL d   1      24.571 -16.360  -1.125  0.00  0.00     0.011 A 
ATOM     38  C   UNL d   1      23.184 -16.326  -0.979  0.00  0.00     0.001 A 
ATOM     39  C   UNL d   1      22.496 -17.451  -0.518  0.00  0.00     0.000 A 
ATOM     40  C   UNL d   1      23.194 -18.580  -0.107  0.00  0.00     0.001 A 
ATOM     41  C   UNL d   1      24.579 -18.570  -0.145  0.00  0.00     0.011 A 
ENDBRANCH  35  36
ENDBRANCH  32  33
ENDBRANCH  30  32
ENDBRANCH   1  30
TORSDOF 10
ENDMDL
MODEL 7
REMARK VINA RESULT:   -11.312      3.443      8.755
REMARK INTER + INTRA:         -17.706
REMARK INTER:                 -14.295
REMARK INTRA:                  -3.411
REMARK CONF_INDEPENDENT:        2.983
REMARK UNBOUND:                -3.411
REMARK  10 active torsions:
REMARK  status: ('A' for Active; 'I' for Inactive)
REMARK    1  A    between atoms: C_2  and  C_10 
REMARK    2  A    between atoms: C_3  and  C_4 
REMARK    3  A    between atoms: C_10  and  N_11 
REMARK    4  A    between atoms: C_12  and  N_11 
REMARK    5  A    between atoms: C_14  and  C_15 
REMARK       I    between atoms: C_15  and  N_17 
REMARK    6  A    between atoms: N_17  and  C_18 
REMARK    7  A    between atoms: C_18  and  C_19 
REMARK    8  A    between atoms: C_19  and  C_20 
REMARK    9  A    between atoms: N_29  and  C_30 
REMARK   10  A    between atoms: C_30  and  C_31 
ROOT
ATOM      1  C   UNL d   1      26.838 -17.598  -0.661  0.00  0.00     0.249 C 
ATOM      2  C   UNL d   1      27.932 -17.060  -1.539  0.00  0.00     0.080 C 
ATOM      3  C   UNL d   1      29.031 -16.540  -0.665  0.00  0.00     0.281 C 
ATOM      4  N   UNL d   1      28.267 -16.020   0.614  0.00  0.00    -0.052 N 
ATOM      5  C   UNL d   1      26.980 -16.863   0.687  0.00  0.00     0.271 C 
ATOM      6  H   UNL d   1      28.801 -16.215   1.470  0.00  0.00     0.281 HD
ENDROOT
BRANCH   3   7
ATOM      7  C   UNL d   1      29.715 -15.555  -1.663  0.00  0.00     0.248 C 
ATOM      8  O   UNL d   1      30.130 -14.475  -1.305  0.00  0.00    -0.271 OA
ATOM      9  N   UNL d   1      29.776 -15.956  -2.993  0.00  0.00    -0.359 N 
ATOM     10  H   UNL d   1      29.034 -16.498  -3.413  0.00  0.00     0.162 HD
BRANCH   9  11
ATOM     11  C   UNL d   1      30.691 -15.268  -3.891  0.00  0.00     0.127 C 
BRANCH  11  12
ATOM     12  C   UNL d   1      30.038 -14.430  -4.971  0.00  0.00     0.058 C 
BRANCH  12  13
ATOM     13  C   UNL d   1      28.546 -14.549  -4.846  0.00  0.00    -0.054 C 
ATOM     14  C   UNL d   1      27.651 -15.200  -5.696  0.00  0.00     0.007 C 
ATOM     15  C   UNL d   1      26.280 -15.203  -5.345  0.00  0.00     0.022 C 
ATOM     16  C   UNL d   1      25.865 -14.411  -4.260  0.00  0.00     0.170 C 
ATOM     17  C   UNL d   1      26.678 -13.391  -3.877  0.00  0.00     0.092 C 
ATOM     18  O   UNL d   1      25.440 -14.929  -2.977  0.00  0.00    -0.341 OA
ATOM     19  C   UNL d   1      28.014 -13.713  -3.879  0.00  0.00     0.043 C 
ATOM     20  O   UNL d   1      26.181 -12.698  -2.804  0.00  0.00    -0.327 OA
ATOM     21  C   UNL d   1      25.905 -13.871  -2.052  0.00  0.00     0.346 C 
ENDBRANCH  12  13
ENDBRANCH  11  12
ENDBRANCH   9  11
ENDBRANCH   3   7
BRANCH   4  22
ATOM     22  C   UNL d   1      28.000 -14.528   0.691  0.00  0.00     0.274 C 
BRANCH  22  23
ATOM     23  C   UNL d   1      27.627 -13.972   2.067  0.00  0.00    -0.031 C 
ATOM     24  C   UNL d   1      27.302 -12.619   2.216  0.00  0.00     0.009 C 
ATOM     25  C   UNL d   1      27.414 -11.989   3.466  0.00  0.00     0.002 C 
ATOM     26  C   UNL d   1      27.891 -12.681   4.569  0.00  0.00     0.024 C 
ATOM     27  C   UNL d   1      28.098 -14.032   4.462  0.00  0.00     0.034 C 
ATOM     28 CL   UNL d   1      28.743 -14.825   5.836  0.00  0.00    -0.084 Cl
ATOM     29  C   UNL d   1      27.809 -14.685   3.264  0.00  0.00     0.032 C 
ENDBRANCH  22  23
ENDBRANCH   4  22
BRANCH   1  30
ATOM     30  N   UNL d   1      25.575 -17.288  -1.312  0.00  0.00     0.093 N 
ATOM     31  H   UNL d   1      25.699 -16.884  -2.239  0.00  0.00     0.316 HD
BRANCH  30  32
ATOM     32  C   UNL d   1      24.688 -16.407  -0.541  0.00  0.00     0.304 C 
BRANCH  32  33
ATOM     33  C   UNL d   1      23.286 -16.956  -0.452  0.00  0.00    -0.055 C 
ATOM     34  C   UNL d   1      22.219 -15.975  -0.896  0.00  0.00     0.045 C 
ATOM     35  C   UNL d   1      23.014 -18.207  -0.016  0.00  0.00     0.015 C 
BRANCH  35  36
ATOM     36  C   UNL d   1      21.687 -18.817  -0.059  0.00  0.00    -0.036 A 
ATOM     37  C   UNL d   1      21.059 -19.105  -1.271  0.00  0.00     0.011 A 
ATOM     38  C   UNL d   1      19.797 -19.699  -1.261  0.00  0.00     0.001 A 
ATOM     39  C   UNL d   1      19.209 -20.084  -0.053  0.00  0.00     0.000 A 
ATOM     40  C   UNL d   1      19.831 -19.788   1.154  0.00  0.00     0.001 A 
ATOM     41  C   UNL d   1      21.030 -19.095   1.146  0.00  0.00     0.011 A 
ENDBRANCH  35  36
ENDBRANCH  32  33
ENDBRANCH  30  32
ENDBRANCH   1  30
TORSDOF 10
ENDMDL
MODEL 8
REMARK VINA RESULT:   -10.989      3.686      8.098
REMARK INTER + INTRA:         -17.477
REMARK INTER:                 -13.972
REMARK INTRA:                  -3.505
REMARK CONF_INDEPENDENT:        2.983
REMARK UNBOUND:                -3.505
REMARK  10 active torsions:
REMARK  status: ('A' for Active; 'I' for Inactive)
REMARK    1  A    between atoms: C_2  and  C_10 
REMARK    2  A    between atoms: C_3  and  C_4 
REMARK    3  A    between atoms: C_10  and  N_11 
REMARK    4  A    between atoms: C_12  and  N_11 
REMARK    5  A    between atoms: C_14  and  C_15 
REMARK       I    between atoms: C_15  and  N_17 
REMARK    6  A    between atoms: N_17  and  C_18 
REMARK    7  A    between atoms: C_18  and  C_19 
REMARK    8  A    between atoms: C_19  and  C_20 
REMARK    9  A    between atoms: N_29  and  C_30 
REMARK   10  A    between atoms: C_30  and  C_31 
ROOT
ATOM      1  C   UNL d   1      31.794 -15.808   1.320  0.00  0.00     0.249 C 
ATOM      2  C   UNL d   1      30.713 -14.777   1.172  0.00  0.00     0.080 C 
ATOM      3  C   UNL d   1      30.817 -13.811   2.312  0.00  0.00     0.281 C 
ATOM      4  N   UNL d   1      31.358 -14.702   3.497  0.00  0.00    -0.052 N 
ATOM      5  C   UNL d   1      32.142 -15.842   2.822  0.00  0.00     0.271 C 
ATOM      6  H   UNL d   1      32.028 -14.180   4.077  0.00  0.00     0.281 HD
ENDROOT
BRANCH   3   7
ATOM      7  C   UNL d   1      29.362 -13.248   2.312  0.00  0.00     0.248 C 
ATOM      8  O   UNL d   1      29.137 -12.071   2.489  0.00  0.00    -0.271 OA
ATOM      9  N   UNL d   1      28.336 -14.172   2.152  0.00  0.00    -0.359 N 
ATOM     10  H   UNL d   1      28.402 -15.104   2.536  0.00  0.00     0.162 HD
BRANCH   9  11
ATOM     11  C   UNL d   1      27.009 -13.691   1.794  0.00  0.00     0.127 C 
BRANCH  11  12
ATOM     12  C   UNL d   1      26.564 -13.999   0.379  0.00  0.00     0.058 C 
BRANCH  12  13
ATOM     13  C   UNL d   1      26.403 -15.485   0.232  0.00  0.00    -0.054 C 
ATOM     14  C   UNL d   1      27.308 -16.495   0.559  0.00  0.00     0.007 C 
ATOM     15  C   UNL d   1      26.912 -17.838   0.357  0.00  0.00     0.022 C 
ATOM     16  C   UNL d   1      25.704 -18.085  -0.318  0.00  0.00     0.170 C 
ATOM     17  C   UNL d   1      25.199 -17.087  -1.092  0.00  0.00     0.092 C 
ATOM     18  O   UNL d   1      24.501 -18.593   0.305  0.00  0.00    -0.341 OA
ATOM     19  C   UNL d   1      25.301 -15.839  -0.528  0.00  0.00     0.043 C 
ATOM     20  O   UNL d   1      24.015 -17.434  -1.690  0.00  0.00    -0.327 OA
ATOM     21  C   UNL d   1      23.442 -17.926  -0.487  0.00  0.00     0.346 C 
ENDBRANCH  12  13
ENDBRANCH  11  12
ENDBRANCH   9  11
ENDBRANCH   3   7
BRANCH   4  22
ATOM     22  C   UNL d   1      30.333 -15.203   4.498  0.00  0.00     0.274 C 
BRANCH  22  23
ATOM     23  C   UNL d   1      29.570 -14.135   5.285  0.00  0.00    -0.031 C 
ATOM     24  C   UNL d   1      28.190 -14.258   5.485  0.00  0.00     0.009 C 
ATOM     25  C   UNL d   1      27.405 -13.129   5.770  0.00  0.00     0.002 C 
ATOM     26  C   UNL d   1      27.970 -11.864   5.815  0.00  0.00     0.024 C 
ATOM     27  C   UNL d   1      29.334 -11.748   5.740  0.00  0.00     0.034 C 
ATOM     28 CL   UNL d   1      29.974 -10.160   5.741  0.00  0.00    -0.084 Cl
ATOM     29  C   UNL d   1      30.123 -12.894   5.640  0.00  0.00     0.032 C 
ENDBRANCH  22  23
ENDBRANCH   4  22
BRANCH   1  30
ATOM     30  N   UNL d   1      31.241 -17.075   0.868  0.00  0.00     0.093 N 
ATOM     31  H   UNL d   1      31.473 -17.850   1.488  0.00  0.00     0.316 HD
BRANCH  30  32
ATOM     32  C   UNL d   1      31.619 -17.454  -0.501  0.00  0.00     0.304 C 
BRANCH  32  33
ATOM     33  C   UNL d   1      30.877 -16.644  -1.534  0.00  0.00    -0.055 C 
ATOM     34  C   UNL d   1      31.695 -15.509  -2.120  0.00  0.00     0.045 C 
ATOM     35  C   UNL d   1      29.601 -16.908  -1.899  0.00  0.00     0.015 C 
BRANCH  35  36
ATOM     36  C   UNL d   1      28.910 -16.239  -2.998  0.00  0.00    -0.036 A 
ATOM     37  C   UNL d   1      27.715 -15.548  -2.791  0.00  0.00     0.011 A 
ATOM     38  C   UNL d   1      27.099 -14.914  -3.870  0.00  0.00     0.001 A 
ATOM     39  C   UNL d   1      27.718 -14.893  -5.122  0.00  0.00     0.000 A 
ATOM     40  C   UNL d   1      28.903 -15.589  -5.330  0.00  0.00     0.001 A 
ATOM     41  C   UNL d   1      29.454 -16.314  -4.286  0.00  0.00     0.011 A 
ENDBRANCH  35  36
ENDBRANCH  32  33
ENDBRANCH  30  32
ENDBRANCH   1  30
TORSDOF 10
ENDMDL
MODEL 9
REMARK VINA RESULT:   -10.976      4.246      8.472
REMARK INTER + INTRA:         -17.270
REMARK INTER:                 -13.959
REMARK INTRA:                  -3.311
REMARK CONF_INDEPENDENT:        2.983
REMARK UNBOUND:                -3.311
REMARK  10 active torsions:
REMARK  status: ('A' for Active; 'I' for Inactive)
REMARK    1  A    between atoms: C_2  and  C_10 
REMARK    2  A    between atoms: C_3  and  C_4 
REMARK    3  A    between atoms: C_10  and  N_11 
REMARK    4  A    between atoms: C_12  and  N_11 
REMARK    5  A    between atoms: C_14  and  C_15 
REMARK       I    between atoms: C_15  and  N_17 
REMARK    6  A    between atoms: N_17  and  C_18 
REMARK    7  A    between atoms: C_18  and  C_19 
REMARK    8  A    between atoms: C_19  and  C_20 
REMARK    9  A    between atoms: N_29  and  C_30 
REMARK   10  A    between atoms: C_30  and  C_31 
ROOT
ATOM      1  C   UNL d   1      29.736 -15.255   0.553  0.00  0.00     0.249 C 
ATOM      2  C   UNL d   1      28.976 -14.461  -0.471  0.00  0.00     0.080 C 
ATOM      3  C   UNL d   1      28.885 -13.042  -0.001  0.00  0.00     0.281 C 
ATOM      4  N   UNL d   1      28.835 -13.180   1.571  0.00  0.00    -0.052 N 
ATOM      5  C   UNL d   1      29.566 -14.498   1.885  0.00  0.00     0.271 C 
ATOM      6  H   UNL d   1      29.366 -12.427   2.026  0.00  0.00     0.281 HD
ENDROOT
BRANCH   3   7
ATOM      7  C   UNL d   1      27.642 -12.575  -0.819  0.00  0.00     0.248 C 
ATOM      8  O   UNL d   1      26.581 -13.155  -0.747  0.00  0.00    -0.271 OA
ATOM      9  N   UNL d   1      27.828 -11.496  -1.675  0.00  0.00    -0.359 N 
ATOM     10  H   UNL d   1      28.701 -11.355  -2.162  0.00  0.00     0.162 HD
BRANCH   9  11
ATOM     11  C   UNL d   1      26.657 -10.798  -2.188  0.00  0.00     0.127 C 
BRANCH  11  12
ATOM     12  C   UNL d   1      26.321 -11.070  -3.640  0.00  0.00     0.058 C 
BRANCH  12  13
ATOM     13  C   UNL d   1      26.312 -12.553  -3.869  0.00  0.00    -0.054 C 
ATOM     14  C   UNL d   1      25.321 -13.479  -3.542  0.00  0.00     0.007 C 
ATOM     15  C   UNL d   1      25.529 -14.834  -3.893  0.00  0.00     0.022 C 
ATOM     16  C   UNL d   1      26.788 -15.208  -4.394  0.00  0.00     0.170 C 
ATOM     17  C   UNL d   1      27.840 -14.388  -4.133  0.00  0.00     0.092 C 
ATOM     18  O   UNL d   1      27.051 -15.575  -5.769  0.00  0.00    -0.341 OA
ATOM     19  C   UNL d   1      27.547 -13.051  -4.252  0.00  0.00     0.043 C 
ATOM     20  O   UNL d   1      29.011 -14.845  -4.681  0.00  0.00    -0.327 OA
ATOM     21  C   UNL d   1      28.433 -15.079  -5.957  0.00  0.00     0.346 C 
ENDBRANCH  12  13
ENDBRANCH  11  12
ENDBRANCH   9  11
ENDBRANCH   3   7
BRANCH   4  22
ATOM     22  C   UNL d   1      27.466 -13.095   2.220  0.00  0.00     0.274 C 
BRANCH  22  23
ATOM     23  C   UNL d   1      27.035 -11.717   2.725  0.00  0.00    -0.031 C 
ATOM     24  C   UNL d   1      26.281 -10.869   1.906  0.00  0.00     0.009 C 
ATOM     25  C   UNL d   1      26.269  -9.483   2.127  0.00  0.00     0.002 C 
ATOM     26  C   UNL d   1      27.038  -8.918   3.133  0.00  0.00     0.024 C 
ATOM     27  C   UNL d   1      27.684  -9.747   4.014  0.00  0.00     0.034 C 
ATOM     28 CL   UNL d   1      28.667  -8.997   5.199  0.00  0.00    -0.084 Cl
ATOM     29  C   UNL d   1      27.542 -11.130   3.897  0.00  0.00     0.032 C 
ENDBRANCH  22  23
ENDBRANCH   4  22
BRANCH   1  30
ATOM     30  N   UNL d   1      29.132 -16.577   0.604  0.00  0.00     0.093 N 
ATOM     31  H   UNL d   1      29.784 -17.296   0.915  0.00  0.00     0.316 HD
BRANCH  30  32
ATOM     32  C   UNL d   1      28.524 -17.022  -0.657  0.00  0.00     0.304 C 
BRANCH  32  33
ATOM     33  C   UNL d   1      27.088 -17.444  -0.472  0.00  0.00    -0.055 C 
ATOM     34  C   UNL d   1      26.868 -18.345   0.728  0.00  0.00     0.045 C 
ATOM     35  C   UNL d   1      26.094 -17.053  -1.303  0.00  0.00     0.015 C 
BRANCH  35  36
ATOM     36  C   UNL d   1      24.678 -17.321  -1.066  0.00  0.00    -0.036 A 
ATOM     37  C   UNL d   1      24.228 -18.594  -0.717  0.00  0.00     0.011 A 
ATOM     38  C   UNL d   1      22.867 -18.798  -0.488  0.00  0.00     0.001 A 
ATOM     39  C   UNL d   1      21.979 -17.720  -0.519  0.00  0.00     0.000 A 
ATOM     40  C   UNL d   1      22.426 -16.454  -0.877  0.00  0.00     0.001 A 
ATOM     41  C   UNL d   1      23.757 -16.277  -1.216  0.00  0.00     0.011 A 
ENDBRANCH  35  36
ENDBRANCH  32  33
ENDBRANCH  30  32
ENDBRANCH   1  30
TORSDOF 10
ENDMDL
