MODEL 1
REMARK VINA RESULT:   -30.508      0.000      0.000
REMARK INTER + INTRA:         -33.222
REMARK INTER:                 -32.298
REMARK INTRA:                  -0.924
REMARK CONF_INDEPENDENT:        1.790
REMARK UNBOUND:                -0.924
REMARK  6 active torsions:
REMARK  status: ('A' for Active; 'I' for Inactive)
REMARK    1  A    between atoms: C_2  and  O_3 
REMARK    2  A    between atoms: O_3  and  C_4 
REMARK    3  A    between atoms: C_6  and  C_7 
REMARK    4  A    between atoms: N_8  and  N_9 
REMARK       I    between atoms: N_9  and  C_10 
REMARK    5  A    between atoms: C_12  and  C_10 
REMARK    6  A    between atoms: C_21  and  O_22 
ROOT
ATOM      1  C   UNL d   1      27.224 -14.686  -2.326  0.00  0.00     0.104 A 
ATOM      2  C   UNL d   1      26.262 -15.711  -2.314  0.00  0.00     0.052 A 
ATOM      3  C   UNL d   1      25.909 -16.364  -1.120  0.00  0.00    -0.013 A 
ATOM      4  C   UNL d   1      26.520 -15.978   0.078  0.00  0.00     0.035 A 
ATOM      5  C   UNL d   1      27.465 -14.942   0.069  0.00  0.00     0.047 A 
ATOM      6 BR   UNL d   1      28.280 -14.426   1.707  0.00  0.00    -0.048 Br
ATOM      7  C   UNL d   1      27.808 -14.284  -1.120  0.00  0.00     0.116 A 
ENDROOT
BRANCH   3   8
ATOM      8  C   UNL d   1      24.886 -17.456  -1.122  0.00  0.00     0.150 C 
ATOM      9  N   UNL d   1      24.192 -17.723  -0.061  0.00  0.00    -0.184 NA
BRANCH   9  10
ATOM     10  N   UNL d   1      23.285 -18.750  -0.117  0.00  0.00    -0.245 N 
ATOM     11  C   UNL d   1      21.988 -18.491  -0.553  0.00  0.00     0.268 C 
ATOM     12  O   UNL d   1      21.605 -17.389  -0.967  0.00  0.00    -0.269 OA
ATOM     13  H   UNL d   1      23.542 -19.696   0.154  0.00  0.00     0.192 HD
BRANCH  11  14
ATOM     14  C   UNL d   1      21.017 -19.679  -0.531  0.00  0.00     0.249 A 
ATOM     15  C   UNL d   1      20.605 -20.008   0.854  0.00  0.00     0.040 A 
ATOM     16  C   UNL d   1      19.286 -19.831   0.885  0.00  0.00     0.051 A 
ATOM     17  C   UNL d   1      18.406 -20.007   2.070  0.00  0.00     0.072 C 
ATOM     18  N   UNL d   1      18.781 -19.435  -0.328  0.00  0.00    -0.160 NA
ATOM     19  N   UNL d   1      19.717 -19.325  -1.173  0.00  0.00    -0.174 NA
ENDBRANCH  11  14
ENDBRANCH   9  10
ENDBRANCH   3   8
BRANCH   1  20
ATOM     20  O   UNL d   1      27.444 -14.094  -3.546  0.00  0.00    -0.349 OA
BRANCH  20  21
ATOM     21  C   UNL d   1      26.548 -14.479  -4.595  0.00  0.00     0.171 C 
ATOM     22  C   UNL d   1      25.219 -13.771  -4.391  0.00  0.00     0.034 C 
ENDBRANCH  20  21
ENDBRANCH   1  20
BRANCH   7  23
ATOM     23  O   UNL d   1      28.675 -13.224  -1.095  0.00  0.00    -0.357 OA
ATOM     24  H   UNL d   1      28.523 -12.669  -1.878  0.00  0.00     0.218 HD
ENDBRANCH   7  23
TORSDOF 6
ENDMDL
MODEL 2
REMARK VINA RESULT:   -30.368      1.689      3.081
REMARK INTER + INTRA:         -33.224
REMARK INTER:                 -32.158
REMARK INTRA:                  -1.066
REMARK CONF_INDEPENDENT:        1.790
REMARK UNBOUND:                -1.066
REMARK  6 active torsions:
REMARK  status: ('A' for Active; 'I' for Inactive)
REMARK    1  A    between atoms: C_2  and  O_3 
REMARK    2  A    between atoms: O_3  and  C_4 
REMARK    3  A    between atoms: C_6  and  C_7 
REMARK    4  A    between atoms: N_8  and  N_9 
REMARK       I    between atoms: N_9  and  C_10 
REMARK    5  A    between atoms: C_12  and  C_10 
REMARK    6  A    between atoms: C_21  and  O_22 
ROOT
ATOM      1  C   UNL d   1      27.388 -14.998   0.296  0.00  0.00     0.104 A 
ATOM      2  C   UNL d   1      26.437 -16.029   0.211  0.00  0.00     0.052 A 
ATOM      3  C   UNL d   1      25.610 -16.166  -0.918  0.00  0.00    -0.013 A 
ATOM      4  C   UNL d   1      25.745 -15.263  -1.978  0.00  0.00     0.035 A 
ATOM      5  C   UNL d   1      26.707 -14.246  -1.902  0.00  0.00     0.047 A 
ATOM      6 BR   UNL d   1      26.881 -13.033  -3.356  0.00  0.00    -0.048 Br
ATOM      7  C   UNL d   1      27.539 -14.118  -0.781  0.00  0.00     0.116 A 
ENDROOT
BRANCH   3   8
ATOM      8  C   UNL d   1      24.600 -17.266  -0.994  0.00  0.00     0.150 C 
ATOM      9  N   UNL d   1      24.125 -17.812   0.080  0.00  0.00    -0.184 NA
BRANCH   9  10
ATOM     10  N   UNL d   1      23.216 -18.832  -0.053  0.00  0.00    -0.245 N 
ATOM     11  C   UNL d   1      21.937 -18.547  -0.524  0.00  0.00     0.268 C 
ATOM     12  O   UNL d   1      21.573 -17.427  -0.902  0.00  0.00    -0.269 OA
ATOM     13  H   UNL d   1      23.461 -19.790   0.186  0.00  0.00     0.192 HD
BRANCH  11  14
ATOM     14  C   UNL d   1      20.962 -19.731  -0.588  0.00  0.00     0.249 A 
ATOM     15  C   UNL d   1      20.556 -20.165   0.769  0.00  0.00     0.040 A 
ATOM     16  C   UNL d   1      19.238 -19.987   0.821  0.00  0.00     0.051 A 
ATOM     17  C   UNL d   1      18.363 -20.252   1.992  0.00  0.00     0.072 C 
ATOM     18  N   UNL d   1      18.728 -19.496  -0.356  0.00  0.00    -0.160 NA
ATOM     19  N   UNL d   1      19.660 -19.325  -1.194  0.00  0.00    -0.174 NA
ENDBRANCH  11  14
ENDBRANCH   9  10
ENDBRANCH   3   8
BRANCH   1  20
ATOM     20  O   UNL d   1      28.168 -15.002   1.427  0.00  0.00    -0.349 OA
BRANCH  20  21
ATOM     21  C   UNL d   1      27.793 -14.066   2.444  0.00  0.00     0.171 C 
ATOM     22  C   UNL d   1      28.439 -14.481   3.755  0.00  0.00     0.034 C 
ENDBRANCH  20  21
ENDBRANCH   1  20
BRANCH   7  23
ATOM     23  O   UNL d   1      28.523 -13.165  -0.760  0.00  0.00    -0.357 OA
ATOM     24  H   UNL d   1      29.081 -13.301   0.025  0.00  0.00     0.218 HD
ENDBRANCH   7  23
TORSDOF 6
ENDMDL
MODEL 3
REMARK VINA RESULT:   -30.128      2.062      2.406
REMARK INTER + INTRA:         -32.939
REMARK INTER:                 -31.917
REMARK INTRA:                  -1.021
REMARK CONF_INDEPENDENT:        1.790
REMARK UNBOUND:                -1.021
REMARK  6 active torsions:
REMARK  status: ('A' for Active; 'I' for Inactive)
REMARK    1  A    between atoms: C_2  and  O_3 
REMARK    2  A    between atoms: O_3  and  C_4 
REMARK    3  A    between atoms: C_6  and  C_7 
REMARK    4  A    between atoms: N_8  and  N_9 
REMARK       I    between atoms: N_9  and  C_10 
REMARK    5  A    between atoms: C_12  and  C_10 
REMARK    6  A    between atoms: C_21  and  O_22 
ROOT
ATOM      1  C   UNL d   1      28.943 -15.912  -0.521  0.00  0.00     0.104 A 
ATOM      2  C   UNL d   1      27.867 -16.665  -1.023  0.00  0.00     0.052 A 
ATOM      3  C   UNL d   1      26.546 -16.411  -0.615  0.00  0.00    -0.013 A 
ATOM      4  C   UNL d   1      26.299 -15.382   0.301  0.00  0.00     0.035 A 
ATOM      5  C   UNL d   1      27.369 -14.617   0.788  0.00  0.00     0.047 A 
ATOM      6 BR   UNL d   1      27.013 -13.220   2.025  0.00  0.00    -0.048 Br
ATOM      7  C   UNL d   1      28.684 -14.865   0.371  0.00  0.00     0.116 A 
ENDROOT
BRANCH   3   8
ATOM      8  C   UNL d   1      25.412 -17.223  -1.155  0.00  0.00     0.150 C 
ATOM      9  N   UNL d   1      24.276 -17.279  -0.534  0.00  0.00    -0.184 NA
BRANCH   9  10
ATOM     10  N   UNL d   1      23.280 -18.058  -1.067  0.00  0.00    -0.245 N 
ATOM     11  C   UNL d   1      22.189 -18.404  -0.274  0.00  0.00     0.268 C 
ATOM     12  O   UNL d   1      22.016 -17.994   0.881  0.00  0.00    -0.269 OA
ATOM     13  H   UNL d   1      23.326 -18.387  -2.028  0.00  0.00     0.192 HD
BRANCH  11  14
ATOM     14  C   UNL d   1      21.147 -19.325  -0.923  0.00  0.00     0.249 A 
ATOM     15  C   UNL d   1      20.648 -20.332   0.043  0.00  0.00     0.040 A 
ATOM     16  C   UNL d   1      19.342 -20.100   0.158  0.00  0.00     0.051 A 
ATOM     17  C   UNL d   1      18.395 -20.833   1.038  0.00  0.00     0.072 C 
ATOM     18  N   UNL d   1      18.923 -19.060  -0.635  0.00  0.00    -0.160 NA
ATOM     19  N   UNL d   1      19.905 -18.575  -1.270  0.00  0.00    -0.174 NA
ENDBRANCH  11  14
ENDBRANCH   9  10
ENDBRANCH   3   8
BRANCH   1  20
ATOM     20  O   UNL d   1      30.178 -16.224  -1.035  0.00  0.00    -0.349 OA
BRANCH  20  21
ATOM     21  C   UNL d   1      30.349 -15.976  -2.435  0.00  0.00     0.171 C 
ATOM     22  C   UNL d   1      31.485 -16.843  -2.952  0.00  0.00     0.034 C 
ENDBRANCH  20  21
ENDBRANCH   1  20
BRANCH   7  23
ATOM     23  O   UNL d   1      29.705 -14.057   0.799  0.00  0.00    -0.357 OA
ATOM     24  H   UNL d   1      30.549 -14.410   0.471  0.00  0.00     0.218 HD
ENDBRANCH   7  23
TORSDOF 6
ENDMDL
MODEL 4
REMARK VINA RESULT:   -29.972      2.262      2.859
REMARK INTER + INTRA:         -32.817
REMARK INTER:                 -31.762
REMARK INTRA:                  -1.055
REMARK CONF_INDEPENDENT:        1.790
REMARK UNBOUND:                -1.055
REMARK  6 active torsions:
REMARK  status: ('A' for Active; 'I' for Inactive)
REMARK    1  A    between atoms: C_2  and  O_3 
REMARK    2  A    between atoms: O_3  and  C_4 
REMARK    3  A    between atoms: C_6  and  C_7 
REMARK    4  A    between atoms: N_8  and  N_9 
REMARK       I    between atoms: N_9  and  C_10 
REMARK    5  A    between atoms: C_12  and  C_10 
REMARK    6  A    between atoms: C_21  and  O_22 
ROOT
ATOM      1  C   UNL d   1      27.336 -14.700   0.427  0.00  0.00     0.104 A 
ATOM      2  C   UNL d   1      26.274 -15.588   0.179  0.00  0.00     0.052 A 
ATOM      3  C   UNL d   1      26.510 -16.891  -0.294  0.00  0.00    -0.013 A 
ATOM      4  C   UNL d   1      27.826 -17.312  -0.512  0.00  0.00     0.035 A 
ATOM      5  C   UNL d   1      28.887 -16.434  -0.246  0.00  0.00     0.047 A 
ATOM      6 BR   UNL d   1      30.669 -17.027  -0.541  0.00  0.00    -0.048 Br
ATOM      7  C   UNL d   1      28.651 -15.139   0.236  0.00  0.00     0.116 A 
ENDROOT
BRANCH   3   8
ATOM      8  C   UNL d   1      25.371 -17.824  -0.558  0.00  0.00     0.150 C 
ATOM      9  N   UNL d   1      24.447 -18.018   0.330  0.00  0.00    -0.184 NA
BRANCH   9  10
ATOM     10  N   UNL d   1      23.439 -18.902   0.040  0.00  0.00    -0.245 N 
ATOM     11  C   UNL d   1      22.235 -18.419  -0.466  0.00  0.00     0.268 C 
ATOM     12  O   UNL d   1      22.028 -17.231  -0.742  0.00  0.00    -0.269 OA
ATOM     13  H   UNL d   1      23.556 -19.901   0.188  0.00  0.00     0.192 HD
BRANCH  11  14
ATOM     14  C   UNL d   1      21.137 -19.464  -0.709  0.00  0.00     0.249 A 
ATOM     15  C   UNL d   1      20.650 -20.035   0.568  0.00  0.00     0.040 A 
ATOM     16  C   UNL d   1      19.358 -19.718   0.631  0.00  0.00     0.051 A 
ATOM     17  C   UNL d   1      18.428 -20.044   1.743  0.00  0.00     0.072 C 
ATOM     18  N   UNL d   1      18.938 -19.013  -0.470  0.00  0.00    -0.160 NA
ATOM     19  N   UNL d   1      19.905 -18.832  -1.265  0.00  0.00    -0.174 NA
ENDBRANCH  11  14
ENDBRANCH   9  10
ENDBRANCH   3   8
BRANCH   1  20
ATOM     20  O   UNL d   1      26.979 -13.475   0.934  0.00  0.00    -0.349 OA
BRANCH  20  21
ATOM     21  C   UNL d   1      27.128 -13.320   2.350  0.00  0.00     0.171 C 
ATOM     22  C   UNL d   1      27.276 -11.842   2.670  0.00  0.00     0.034 C 
ENDBRANCH  20  21
ENDBRANCH   1  20
BRANCH   7  23
ATOM     23  O   UNL d   1      29.703 -14.324   0.563  0.00  0.00    -0.357 OA
ATOM     24  H   UNL d   1      29.372 -13.423   0.715  0.00  0.00     0.218 HD
ENDBRANCH   7  23
TORSDOF 6
ENDMDL
MODEL 5
REMARK VINA RESULT:   -29.549      1.978      2.896
REMARK INTER + INTRA:         -33.031
REMARK INTER:                 -31.339
REMARK INTRA:                  -1.692
REMARK CONF_INDEPENDENT:        1.790
REMARK UNBOUND:                -1.692
REMARK  6 active torsions:
REMARK  status: ('A' for Active; 'I' for Inactive)
REMARK    1  A    between atoms: C_2  and  O_3 
REMARK    2  A    between atoms: O_3  and  C_4 
REMARK    3  A    between atoms: C_6  and  C_7 
REMARK    4  A    between atoms: N_8  and  N_9 
REMARK       I    between atoms: N_9  and  C_10 
REMARK    5  A    between atoms: C_12  and  C_10 
REMARK    6  A    between atoms: C_21  and  O_22 
ROOT
ATOM      1  C   UNL d   1      26.912 -14.490  -0.702  0.00  0.00     0.104 A 
ATOM      2  C   UNL d   1      25.924 -15.490  -0.664  0.00  0.00     0.052 A 
ATOM      3  C   UNL d   1      24.945 -15.584  -1.668  0.00  0.00    -0.013 A 
ATOM      4  C   UNL d   1      24.962 -14.671  -2.729  0.00  0.00     0.035 A 
ATOM      5  C   UNL d   1      25.958 -13.686  -2.777  0.00  0.00     0.047 A 
ATOM      6 BR   UNL d   1      25.969 -12.458  -4.229  0.00  0.00    -0.048 Br
ATOM      7  C   UNL d   1      26.941 -13.600  -1.781  0.00  0.00     0.116 A 
ENDROOT
BRANCH   3   8
ATOM      8  C   UNL d   1      23.897 -16.651  -1.614  0.00  0.00     0.150 C 
ATOM      9  N   UNL d   1      22.738 -16.422  -1.084  0.00  0.00    -0.184 NA
BRANCH   9  10
ATOM     10  N   UNL d   1      21.826 -17.446  -1.044  0.00  0.00    -0.245 N 
ATOM     11  C   UNL d   1      22.192 -18.662  -0.474  0.00  0.00     0.268 C 
ATOM     12  O   UNL d   1      23.284 -18.869   0.072  0.00  0.00    -0.269 OA
ATOM     13  H   UNL d   1      20.888 -17.332  -1.423  0.00  0.00     0.192 HD
BRANCH  11  14
ATOM     14  C   UNL d   1      21.137 -19.775  -0.520  0.00  0.00     0.249 A 
ATOM     15  C   UNL d   1      20.640 -20.098   0.838  0.00  0.00     0.040 A 
ATOM     16  C   UNL d   1      19.337 -19.824   0.815  0.00  0.00     0.051 A 
ATOM     17  C   UNL d   1      18.393 -19.956   1.955  0.00  0.00     0.072 C 
ATOM     18  N   UNL d   1      18.918 -19.370  -0.411  0.00  0.00    -0.160 NA
ATOM     19  N   UNL d   1      19.897 -19.315  -1.211  0.00  0.00    -0.174 NA
ENDBRANCH  11  14
ENDBRANCH   9  10
ENDBRANCH   3   8
BRANCH   1  20
ATOM     20  O   UNL d   1      27.841 -14.535   0.309  0.00  0.00    -0.349 OA
BRANCH  20  21
ATOM     21  C   UNL d   1      28.178 -15.843   0.786  0.00  0.00     0.171 C 
ATOM     22  C   UNL d   1      29.019 -16.547  -0.265  0.00  0.00     0.034 C 
ENDBRANCH  20  21
ENDBRANCH   1  20
BRANCH   7  23
ATOM     23  O   UNL d   1      27.950 -12.680  -1.888  0.00  0.00    -0.357 OA
ATOM     24  H   UNL d   1      28.741 -13.021  -1.438  0.00  0.00     0.218 HD
ENDBRANCH   7  23
TORSDOF 6
ENDMDL
