MODEL 1
REMARK VINA RESULT:   -23.020      0.000      0.000
REMARK INTER + INTRA:         -26.002
REMARK INTER:                 -24.512
REMARK INTRA:                  -1.490
REMARK CONF_INDEPENDENT:        1.492
REMARK UNBOUND:                -1.490
REMARK  5 active torsions:
REMARK  status: ('A' for Active; 'I' for Inactive)
REMARK    1  A    between atoms: C_2  and  C_4 
REMARK    2  A    between atoms: C_4  and  N_5 
REMARK       I    between atoms: N_5  and  C_6 
REMARK       I    between atoms: C_6  and  N_8 
REMARK    3  A    between atoms: N_8  and  N_9 
REMARK       I    between atoms: N_9  and  C_10 
REMARK    4  A    between atoms: C_12  and  C_10 
REMARK    5  A    between atoms: C_14  and  C_15 
ROOT
ATOM      1  N   UNL d   1      24.356 -17.156  -0.937  0.00  0.00    -0.264 N 
ATOM      2  C   UNL d   1      23.256 -17.927  -1.277  0.00  0.00     0.268 C 
ATOM      3  O   UNL d   1      23.359 -18.907  -2.023  0.00  0.00    -0.269 OA
ATOM      4  H   UNL d   1      24.322 -16.375  -0.285  0.00  0.00     0.190 HD
ENDROOT
BRANCH   2   5
ATOM      5  C   UNL d   1      21.889 -17.515  -0.672  0.00  0.00     0.253 C 
ATOM      6  C   UNL d   1      21.425 -18.297   0.543  0.00  0.00     0.107 C 
ATOM      7  C   UNL d   1      20.221 -18.950  -0.037  0.00  0.00     0.075 C 
ATOM      8  N   UNL d   1      19.904 -18.575  -1.231  0.00  0.00    -0.137 NA
ATOM      9  O   UNL d   1      20.846 -17.606  -1.642  0.00  0.00    -0.241 OA
BRANCH   7  10
ATOM     10  C   UNL d   1      19.462 -19.984   0.690  0.00  0.00    -0.006 A 
ATOM     11  C   UNL d   1      18.560 -20.824   0.027  0.00  0.00     0.014 A 
ATOM     12  C   UNL d   1      17.908 -21.841   0.736  0.00  0.00     0.004 A 
ATOM     13  C   UNL d   1      18.143 -22.001   2.103  0.00  0.00     0.042 A 
ATOM     14  C   UNL d   1      19.037 -21.152   2.749  0.00  0.00     0.117 A 
ATOM     15  F   UNL d   1      19.259 -21.310   4.060  0.00  0.00    -0.206 F 
ATOM     16  C   UNL d   1      19.706 -20.151   2.055  0.00  0.00     0.055 A 
ENDBRANCH   7  10
ENDBRANCH   2   5
BRANCH   1  17
ATOM     17  N   UNL d   1      25.645 -17.450  -1.473  0.00  0.00    -0.249 N 
ATOM     18  C   UNL d   1      26.704 -16.628  -1.131  0.00  0.00     0.334 C 
ATOM     19  N   UNL d   1      27.918 -16.989  -1.671  0.00  0.00    -0.341 N 
ATOM     20  O   UNL d   1      26.551 -15.641  -0.409  0.00  0.00    -0.246 OA
ATOM     21  H   UNL d   1      27.978 -17.820  -2.240  0.00  0.00     0.164 HD
ATOM     22  H   UNL d   1      25.729 -18.301  -2.022  0.00  0.00     0.192 HD
BRANCH  19  23
ATOM     23  C   UNL d   1      29.142 -16.232  -1.387  0.00  0.00     0.128 C 
BRANCH  23  24
ATOM     24  C   UNL d   1      30.370 -16.659  -2.222  0.00  0.00    -0.005 C 
ATOM     25  C   UNL d   1      30.916 -18.018  -1.756  0.00  0.00     0.011 C 
ATOM     26  C   UNL d   1      30.022 -16.755  -3.708  0.00  0.00     0.011 C 
ENDBRANCH  23  24
ENDBRANCH  19  23
ENDBRANCH   1  17
TORSDOF 5
ENDMDL
