MODEL 1
REMARK VINA RESULT:   -11.353      0.000      0.000
REMARK INTER + INTRA:         -19.099
REMARK INTER:                 -15.231
REMARK INTRA:                  -3.867
REMARK CONF_INDEPENDENT:        3.878
REMARK UNBOUND:                -3.867
REMARK  13 active torsions:
REMARK  status: ('A' for Active; 'I' for Inactive)
REMARK    1  A    between atoms: C_2  and  N_3 
REMARK    2  A    between atoms: N_3  and  C_4 
REMARK    3  A    between atoms: N_3  and  C_6 
REMARK    4  A    between atoms: C_6  and  C_7 
REMARK    5  A    between atoms: C_7  and  C_8 
REMARK    6  A    between atoms: C_8  and  N_9 
REMARK       I    between atoms: N_9  and  C_10 
REMARK    7  A    between atoms: C_23  and  N_9 
REMARK    8  A    between atoms: C_10  and  C_12 
REMARK    9  A    between atoms: C_15  and  C_16 
REMARK   10  A    between atoms: C_23  and  C_33 
REMARK   11  A    between atoms: C_23  and  C_24 
REMARK       I    between atoms: C_24  and  N_26 
REMARK   12  A    between atoms: N_26  and  C_27 
REMARK   13  A    between atoms: C_36  and  O_37 
ROOT
ATOM      1  N   UNL d   1      26.051 -15.848   0.214  0.00  0.00    -0.329 N 
ATOM      2  C   UNL d   1      24.931 -16.186  -0.635  0.00  0.00     0.271 C 
ATOM      3  O   UNL d   1      24.532 -15.481  -1.532  0.00  0.00    -0.266 OA
ENDROOT
BRANCH   1   4
ATOM      4  C   UNL d   1      27.040 -16.825   0.722  0.00  0.00     0.129 C 
BRANCH   4   5
ATOM      5  C   UNL d   1      27.852 -17.506  -0.327  0.00  0.00     0.048 C 
BRANCH   5   6
ATOM      6  C   UNL d   1      29.101 -16.886  -0.852  0.00  0.00     0.236 C 
BRANCH   6   7
ATOM      7  N   UNL d   1      30.332 -17.526  -0.144  0.00  0.00    -0.072 N 
ATOM      8  H   UNL d   1      30.014 -17.824   0.795  0.00  0.00     0.279 HD
BRANCH   7   9
ATOM      9  C   UNL d   1      30.730 -18.708  -0.974  0.00  0.00     0.230 C 
ATOM     10  C   UNL d   1      31.923 -18.432  -1.851  0.00  0.00     0.034 C 
ENDBRANCH   7   9
BRANCH   7  11
ATOM     11  C   UNL d   1      31.524 -16.581   0.025  0.00  0.00     0.230 C 
ATOM     12  C   UNL d   1      32.118 -16.547   1.436  0.00  0.00     0.034 C 
ENDBRANCH   7  11
ENDBRANCH   6   7
ENDBRANCH   5   6
ENDBRANCH   4   5
ENDBRANCH   1   4
BRANCH   1  13
ATOM     13  C   UNL d   1      26.524 -14.404   0.315  0.00  0.00     0.212 C 
BRANCH  13  14
ATOM     14  C   UNL d   1      27.506 -14.131   1.451  0.00  0.00    -0.026 C 
ATOM     15  C   UNL d   1      28.882 -14.348   1.254  0.00  0.00     0.012 C 
ATOM     16  C   UNL d   1      29.740 -14.448   2.339  0.00  0.00     0.037 C 
ATOM     17  C   UNL d   1      29.289 -14.045   3.586  0.00  0.00     0.065 C 
ATOM     18  C   UNL d   1      27.972 -13.643   3.773  0.00  0.00     0.037 C 
ATOM     19  C   UNL d   1      27.066 -13.709   2.711  0.00  0.00     0.012 C 
BRANCH  17  20
ATOM     20  O   UNL d   1      30.139 -14.017   4.650  0.00  0.00    -0.361 OA
ATOM     21  H   UNL d   1      30.998 -14.364   4.355  0.00  0.00     0.217 HD
ENDBRANCH  17  20
ENDBRANCH  13  14
BRANCH  13  22
ATOM     22  C   UNL d   1      27.218 -13.935  -1.023  0.00  0.00     0.245 C 
ATOM     23  O   UNL d   1      27.862 -12.887  -1.075  0.00  0.00    -0.271 OA
ATOM     24  N   UNL d   1      27.136 -14.767  -2.141  0.00  0.00    -0.354 N 
ATOM     25  H   UNL d   1      26.616 -15.631  -2.117  0.00  0.00     0.162 HD
BRANCH  24  26
ATOM     26  C   UNL d   1      27.815 -14.404  -3.390  0.00  0.00     0.084 C 
ATOM     27  C   UNL d   1      28.643 -15.577  -3.951  0.00  0.00     0.025 C 
ATOM     28  C   UNL d   1      29.234 -15.265  -5.330  0.00  0.00     0.002 C 
ATOM     29  C   UNL d   1      28.160 -14.809  -6.314  0.00  0.00     0.000 C 
ATOM     30  C   UNL d   1      27.404 -13.614  -5.764  0.00  0.00     0.002 C 
ATOM     31  C   UNL d   1      26.783 -13.939  -4.422  0.00  0.00     0.025 C 
ENDBRANCH  24  26
ENDBRANCH  13  22
ENDBRANCH   1  13
BRANCH   2  32
ATOM     32  C   UNL d   1      24.207 -17.443  -0.453  0.00  0.00     0.101 C 
ATOM     33  C   UNL d   1      24.579 -18.772  -0.520  0.00  0.00     0.037 C 
ATOM     34  C   UNL d   1      23.393 -19.521  -0.487  0.00  0.00     0.033 C 
ATOM     35  C   UNL d   1      22.348 -18.696  -0.180  0.00  0.00     0.043 C 
ATOM     36  N   UNL d   1      22.897 -17.454   0.012  0.00  0.00    -0.351 N 
ATOM     37  H   UNL d   1      22.445 -16.650   0.429  0.00  0.00     0.166 HD
BRANCH  35  38
ATOM     38  C   UNL d   1      21.030 -19.143   0.209  0.00  0.00    -0.009 C 
ATOM     39  C   UNL d   1      20.657 -19.325   1.533  0.00  0.00     0.013 C 
ATOM     40  C   UNL d   1      19.427 -19.918   1.805  0.00  0.00     0.001 C 
ATOM     41  C   UNL d   1      18.534 -20.216   0.769  0.00  0.00     0.000 C 
ATOM     42  C   UNL d   1      18.868 -19.940  -0.550  0.00  0.00     0.001 C 
ATOM     43  C   UNL d   1      20.112 -19.402  -0.826  0.00  0.00     0.013 C 
ENDBRANCH  35  38
ENDBRANCH   2  32
TORSDOF 13
ENDMDL
MODEL 2
REMARK VINA RESULT:   -11.316      2.467      5.082
REMARK INTER + INTRA:         -17.936
REMARK INTER:                 -15.193
REMARK INTRA:                  -2.743
REMARK CONF_INDEPENDENT:        3.878
REMARK UNBOUND:                -2.743
REMARK  13 active torsions:
REMARK  status: ('A' for Active; 'I' for Inactive)
REMARK    1  A    between atoms: C_2  and  N_3 
REMARK    2  A    between atoms: N_3  and  C_4 
REMARK    3  A    between atoms: N_3  and  C_6 
REMARK    4  A    between atoms: C_6  and  C_7 
REMARK    5  A    between atoms: C_7  and  C_8 
REMARK    6  A    between atoms: C_8  and  N_9 
REMARK       I    between atoms: N_9  and  C_10 
REMARK    7  A    between atoms: C_23  and  N_9 
REMARK    8  A    between atoms: C_10  and  C_12 
REMARK    9  A    between atoms: C_15  and  C_16 
REMARK   10  A    between atoms: C_23  and  C_33 
REMARK   11  A    between atoms: C_23  and  C_24 
REMARK       I    between atoms: C_24  and  N_26 
REMARK   12  A    between atoms: N_26  and  C_27 
REMARK   13  A    between atoms: C_36  and  O_37 
ROOT
ATOM      1  N   UNL d   1      27.006 -15.755  -1.678  0.00  0.00    -0.329 N 
ATOM      2  C   UNL d   1      25.688 -16.246  -2.012  0.00  0.00     0.271 C 
ATOM      3  O   UNL d   1      25.152 -16.055  -3.079  0.00  0.00    -0.266 OA
ENDROOT
BRANCH   1   4
ATOM      4  C   UNL d   1      27.994 -16.498  -0.863  0.00  0.00     0.129 C 
BRANCH   4   5
ATOM      5  C   UNL d   1      28.051 -16.107   0.574  0.00  0.00     0.048 C 
BRANCH   5   6
ATOM      6  C   UNL d   1      28.924 -14.988   1.029  0.00  0.00     0.236 C 
BRANCH   6   7
ATOM      7  N   UNL d   1      28.647 -14.696   2.533  0.00  0.00    -0.072 N 
ATOM      8  H   UNL d   1      28.521 -15.613   2.997  0.00  0.00     0.279 HD
BRANCH   7   9
ATOM      9  C   UNL d   1      29.861 -13.993   3.059  0.00  0.00     0.230 C 
ATOM     10  C   UNL d   1      30.097 -14.250   4.524  0.00  0.00     0.034 C 
ENDBRANCH   7   9
BRANCH   7  11
ATOM     11  C   UNL d   1      27.400 -13.847   2.791  0.00  0.00     0.230 C 
ATOM     12  C   UNL d   1      26.972 -12.965   1.616  0.00  0.00     0.034 C 
ENDBRANCH   7  11
ENDBRANCH   6   7
ENDBRANCH   5   6
ENDBRANCH   4   5
ENDBRANCH   1   4
BRANCH   1  13
ATOM     13  C   UNL d   1      27.621 -14.613  -2.476  0.00  0.00     0.212 C 
BRANCH  13  14
ATOM     14  C   UNL d   1      28.173 -15.013  -3.842  0.00  0.00    -0.026 C 
ATOM     15  C   UNL d   1      29.329 -15.810  -3.924  0.00  0.00     0.012 C 
ATOM     16  C   UNL d   1      30.041 -15.894  -5.111  0.00  0.00     0.037 C 
ATOM     17  C   UNL d   1      29.454 -15.432  -6.277  0.00  0.00     0.065 C 
ATOM     18  C   UNL d   1      28.214 -14.802  -6.251  0.00  0.00     0.037 C 
ATOM     19  C   UNL d   1      27.579 -14.566  -5.029  0.00  0.00     0.012 C 
BRANCH  17  20
ATOM     20  O   UNL d   1      30.073 -15.606  -7.478  0.00  0.00    -0.361 OA
ATOM     21  H   UNL d   1      29.668 -14.992  -8.114  0.00  0.00     0.217 HD
ENDBRANCH  17  20
ENDBRANCH  13  14
BRANCH  13  22
ATOM     22  C   UNL d   1      26.577 -13.455  -2.717  0.00  0.00     0.245 C 
ATOM     23  O   UNL d   1      25.396 -13.581  -2.391  0.00  0.00    -0.271 OA
ATOM     24  N   UNL d   1      27.032 -12.252  -3.260  0.00  0.00    -0.354 N 
ATOM     25  H   UNL d   1      27.996 -12.129  -3.531  0.00  0.00     0.162 HD
BRANCH  24  26
ATOM     26  C   UNL d   1      26.113 -11.124  -3.447  0.00  0.00     0.084 C 
ATOM     27  C   UNL d   1      26.536  -9.899  -2.613  0.00  0.00     0.025 C 
ATOM     28  C   UNL d   1      25.676  -8.666  -2.912  0.00  0.00     0.002 C 
ATOM     29  C   UNL d   1      25.644  -8.350  -4.405  0.00  0.00     0.000 C 
ATOM     30  C   UNL d   1      25.164  -9.553  -5.196  0.00  0.00     0.002 C 
ATOM     31  C   UNL d   1      26.042 -10.758  -4.932  0.00  0.00     0.025 C 
ENDBRANCH  24  26
ENDBRANCH  13  22
ENDBRANCH   1  13
BRANCH   2  32
ATOM     32  C   UNL d   1      24.916 -17.031  -1.051  0.00  0.00     0.101 C 
ATOM     33  C   UNL d   1      25.198 -17.545   0.200  0.00  0.00     0.037 C 
ATOM     34  C   UNL d   1      24.141 -18.410   0.524  0.00  0.00     0.033 C 
ATOM     35  C   UNL d   1      23.138 -18.256  -0.390  0.00  0.00     0.043 C 
ATOM     36  N   UNL d   1      23.562 -17.274  -1.249  0.00  0.00    -0.351 N 
ATOM     37  H   UNL d   1      22.999 -16.781  -1.930  0.00  0.00     0.166 HD
BRANCH  35  38
ATOM     38  C   UNL d   1      21.795 -18.767  -0.236  0.00  0.00    -0.009 C 
ATOM     39  C   UNL d   1      20.974 -19.065  -1.315  0.00  0.00     0.013 C 
ATOM     40  C   UNL d   1      19.642 -19.389  -1.071  0.00  0.00     0.001 C 
ATOM     41  C   UNL d   1      19.170 -19.528   0.239  0.00  0.00     0.000 C 
ATOM     42  C   UNL d   1      20.019 -19.328   1.320  0.00  0.00     0.001 C 
ATOM     43  C   UNL d   1      21.329 -18.950   1.079  0.00  0.00     0.013 C 
ENDBRANCH  35  38
ENDBRANCH   2  32
TORSDOF 13
ENDMDL
MODEL 3
REMARK VINA RESULT:   -11.130      2.011      5.620
REMARK INTER + INTRA:         -18.457
REMARK INTER:                 -15.008
REMARK INTRA:                  -3.448
REMARK CONF_INDEPENDENT:        3.878
REMARK UNBOUND:                -3.448
REMARK  13 active torsions:
REMARK  status: ('A' for Active; 'I' for Inactive)
REMARK    1  A    between atoms: C_2  and  N_3 
REMARK    2  A    between atoms: N_3  and  C_4 
REMARK    3  A    between atoms: N_3  and  C_6 
REMARK    4  A    between atoms: C_6  and  C_7 
REMARK    5  A    between atoms: C_7  and  C_8 
REMARK    6  A    between atoms: C_8  and  N_9 
REMARK       I    between atoms: N_9  and  C_10 
REMARK    7  A    between atoms: C_23  and  N_9 
REMARK    8  A    between atoms: C_10  and  C_12 
REMARK    9  A    between atoms: C_15  and  C_16 
REMARK   10  A    between atoms: C_23  and  C_33 
REMARK   11  A    between atoms: C_23  and  C_24 
REMARK       I    between atoms: C_24  and  N_26 
REMARK   12  A    between atoms: N_26  and  C_27 
REMARK   13  A    between atoms: C_36  and  O_37 
ROOT
ATOM      1  N   UNL d   1      25.944 -16.449  -0.533  0.00  0.00    -0.329 N 
ATOM      2  C   UNL d   1      25.340 -17.595   0.108  0.00  0.00     0.271 C 
ATOM      3  O   UNL d   1      25.815 -18.153   1.070  0.00  0.00    -0.266 OA
ENDROOT
BRANCH   1   4
ATOM      4  C   UNL d   1      25.183 -15.312  -1.100  0.00  0.00     0.129 C 
BRANCH   4   5
ATOM      5  C   UNL d   1      25.066 -15.309  -2.587  0.00  0.00     0.048 C 
BRANCH   5   6
ATOM      6  C   UNL d   1      24.565 -14.107  -3.313  0.00  0.00     0.236 C 
BRANCH   6   7
ATOM      7  N   UNL d   1      25.388 -13.914  -4.621  0.00  0.00    -0.072 N 
ATOM      8  H   UNL d   1      24.707 -13.704  -5.373  0.00  0.00     0.279 HD
BRANCH   7   9
ATOM      9  C   UNL d   1      26.297 -12.748  -4.381  0.00  0.00     0.230 C 
ATOM     10  C   UNL d   1      25.913 -11.532  -5.181  0.00  0.00     0.034 C 
ENDBRANCH   7   9
BRANCH   7  11
ATOM     11  C   UNL d   1      26.206 -15.138  -5.037  0.00  0.00     0.230 C 
ATOM     12  C   UNL d   1      27.463 -14.821  -5.853  0.00  0.00     0.034 C 
ENDBRANCH   7  11
ENDBRANCH   6   7
ENDBRANCH   5   6
ENDBRANCH   4   5
ENDBRANCH   1   4
BRANCH   1  13
ATOM     13  C   UNL d   1      27.417 -16.137  -0.311  0.00  0.00     0.212 C 
BRANCH  13  14
ATOM     14  C   UNL d   1      28.160 -15.643  -1.549  0.00  0.00    -0.026 C 
ATOM     15  C   UNL d   1      28.720 -16.571  -2.447  0.00  0.00     0.012 C 
ATOM     16  C   UNL d   1      29.678 -16.170  -3.365  0.00  0.00     0.037 C 
ATOM     17  C   UNL d   1      29.865 -14.816  -3.588  0.00  0.00     0.065 C 
ATOM     18  C   UNL d   1      29.179 -13.868  -2.837  0.00  0.00     0.037 C 
ATOM     19  C   UNL d   1      28.343 -14.276  -1.795  0.00  0.00     0.012 C 
BRANCH  17  20
ATOM     20  O   UNL d   1      30.711 -14.387  -4.565  0.00  0.00    -0.361 OA
ATOM     21  H   UNL d   1      30.426 -14.788  -5.403  0.00  0.00     0.217 HD
ENDBRANCH  17  20
ENDBRANCH  13  14
BRANCH  13  22
ATOM     22  C   UNL d   1      27.608 -15.045   0.812  0.00  0.00     0.245 C 
ATOM     23  O   UNL d   1      26.778 -14.152   0.982  0.00  0.00    -0.271 OA
ATOM     24  N   UNL d   1      28.716 -15.146   1.656  0.00  0.00    -0.354 N 
ATOM     25  H   UNL d   1      29.404 -15.874   1.536  0.00  0.00     0.162 HD
BRANCH  24  26
ATOM     26  C   UNL d   1      28.905 -14.192   2.755  0.00  0.00     0.084 C 
ATOM     27  C   UNL d   1      28.807 -12.733   2.266  0.00  0.00     0.025 C 
ATOM     28  C   UNL d   1      28.851 -11.729   3.423  0.00  0.00     0.002 C 
ATOM     29  C   UNL d   1      27.798 -12.043   4.483  0.00  0.00     0.000 C 
ATOM     30  C   UNL d   1      27.959 -13.463   4.991  0.00  0.00     0.002 C 
ATOM     31  C   UNL d   1      27.871 -14.457   3.852  0.00  0.00     0.025 C 
ENDBRANCH  24  26
ENDBRANCH  13  22
ENDBRANCH   1  13
BRANCH   2  32
ATOM     32  C   UNL d   1      24.081 -18.152  -0.383  0.00  0.00     0.101 C 
ATOM     33  C   UNL d   1      23.608 -18.462  -1.644  0.00  0.00     0.037 C 
ATOM     34  C   UNL d   1      22.240 -18.741  -1.499  0.00  0.00     0.033 C 
ATOM     35  C   UNL d   1      21.936 -18.823  -0.170  0.00  0.00     0.043 C 
ATOM     36  N   UNL d   1      23.120 -18.634   0.496  0.00  0.00    -0.351 N 
ATOM     37  H   UNL d   1      23.298 -18.812   1.476  0.00  0.00     0.166 HD
BRANCH  35  38
ATOM     38  C   UNL d   1      20.704 -19.359   0.363  0.00  0.00    -0.009 C 
ATOM     39  C   UNL d   1      20.447 -19.443   1.725  0.00  0.00     0.013 C 
ATOM     40  C   UNL d   1      19.310 -20.127   2.149  0.00  0.00     0.001 C 
ATOM     41  C   UNL d   1      18.385 -20.618   1.220  0.00  0.00     0.000 C 
ATOM     42  C   UNL d   1      18.595 -20.446  -0.142  0.00  0.00     0.001 C 
ATOM     43  C   UNL d   1      19.751 -19.816  -0.566  0.00  0.00     0.013 C 
ENDBRANCH  35  38
ENDBRANCH   2  32
TORSDOF 13
ENDMDL
MODEL 4
REMARK VINA RESULT:   -11.106      1.794      4.986
REMARK INTER + INTRA:         -18.347
REMARK INTER:                 -14.984
REMARK INTRA:                  -3.363
REMARK CONF_INDEPENDENT:        3.878
REMARK UNBOUND:                -3.363
REMARK  13 active torsions:
REMARK  status: ('A' for Active; 'I' for Inactive)
REMARK    1  A    between atoms: C_2  and  N_3 
REMARK    2  A    between atoms: N_3  and  C_4 
REMARK    3  A    between atoms: N_3  and  C_6 
REMARK    4  A    between atoms: C_6  and  C_7 
REMARK    5  A    between atoms: C_7  and  C_8 
REMARK    6  A    between atoms: C_8  and  N_9 
REMARK       I    between atoms: N_9  and  C_10 
REMARK    7  A    between atoms: C_23  and  N_9 
REMARK    8  A    between atoms: C_10  and  C_12 
REMARK    9  A    between atoms: C_15  and  C_16 
REMARK   10  A    between atoms: C_23  and  C_33 
REMARK   11  A    between atoms: C_23  and  C_24 
REMARK       I    between atoms: C_24  and  N_26 
REMARK   12  A    between atoms: N_26  and  C_27 
REMARK   13  A    between atoms: C_36  and  O_37 
ROOT
ATOM      1  N   UNL d   1      26.924 -15.609  -1.488  0.00  0.00    -0.329 N 
ATOM      2  C   UNL d   1      25.493 -15.786  -1.576  0.00  0.00     0.271 C 
ATOM      3  O   UNL d   1      24.755 -15.020  -2.151  0.00  0.00    -0.266 OA
ENDROOT
BRANCH   1   4
ATOM      4  C   UNL d   1      27.909 -16.713  -1.544  0.00  0.00     0.129 C 
BRANCH   4   5
ATOM      5  C   UNL d   1      28.747 -16.875  -0.321  0.00  0.00     0.048 C 
BRANCH   5   6
ATOM      6  C   UNL d   1      30.214 -16.616  -0.359  0.00  0.00     0.236 C 
BRANCH   6   7
ATOM      7  N   UNL d   1      30.657 -15.955   0.980  0.00  0.00    -0.072 N 
ATOM      8  H   UNL d   1      30.031 -16.325   1.717  0.00  0.00     0.279 HD
BRANCH   7   9
ATOM      9  C   UNL d   1      32.073 -16.383   1.217  0.00  0.00     0.230 C 
ATOM     10  C   UNL d   1      32.315 -17.826   0.861  0.00  0.00     0.034 C 
ENDBRANCH   7   9
BRANCH   7  11
ATOM     11  C   UNL d   1      30.565 -14.427   0.989  0.00  0.00     0.230 C 
ATOM     12  C   UNL d   1      31.055 -13.749  -0.294  0.00  0.00     0.034 C 
ENDBRANCH   7  11
ENDBRANCH   6   7
ENDBRANCH   5   6
ENDBRANCH   4   5
ENDBRANCH   1   4
BRANCH   1  13
ATOM     13  C   UNL d   1      27.541 -14.239  -1.739  0.00  0.00     0.212 C 
BRANCH  13  14
ATOM     14  C   UNL d   1      26.839 -13.408  -2.810  0.00  0.00    -0.026 C 
ATOM     15  C   UNL d   1      26.756 -13.892  -4.128  0.00  0.00     0.012 C 
ATOM     16  C   UNL d   1      26.449 -13.034  -5.173  0.00  0.00     0.037 C 
ATOM     17  C   UNL d   1      25.944 -11.778  -4.880  0.00  0.00     0.065 C 
ATOM     18  C   UNL d   1      25.838 -11.341  -3.564  0.00  0.00     0.037 C 
ATOM     19  C   UNL d   1      26.310 -12.144  -2.523  0.00  0.00     0.012 C 
BRANCH  17  20
ATOM     20  O   UNL d   1      25.521 -10.954  -5.879  0.00  0.00    -0.361 OA
ATOM     21  H   UNL d   1      24.556 -10.864  -5.802  0.00  0.00     0.217 HD
ENDBRANCH  17  20
ENDBRANCH  13  14
BRANCH  13  22
ATOM     22  C   UNL d   1      27.566 -13.372  -0.421  0.00  0.00     0.245 C 
ATOM     23  O   UNL d   1      28.332 -12.416  -0.299  0.00  0.00    -0.271 OA
ATOM     24  N   UNL d   1      26.655 -13.677   0.592  0.00  0.00    -0.354 N 
ATOM     25  H   UNL d   1      26.017 -14.454   0.510  0.00  0.00     0.162 HD
BRANCH  24  26
ATOM     26  C   UNL d   1      26.597 -12.863   1.812  0.00  0.00     0.084 C 
ATOM     27  C   UNL d   1      27.736 -13.217   2.789  0.00  0.00     0.025 C 
ATOM     28  C   UNL d   1      27.780 -12.274   3.996  0.00  0.00     0.002 C 
ATOM     29  C   UNL d   1      27.838 -10.811   3.567  0.00  0.00     0.000 C 
ATOM     30  C   UNL d   1      26.671 -10.473   2.658  0.00  0.00     0.002 C 
ATOM     31  C   UNL d   1      26.654 -11.378   1.443  0.00  0.00     0.025 C 
ENDBRANCH  24  26
ENDBRANCH  13  22
ENDBRANCH   1  13
BRANCH   2  32
ATOM     32  C   UNL d   1      24.843 -16.943  -0.962  0.00  0.00     0.101 C 
ATOM     33  C   UNL d   1      25.317 -18.049  -0.283  0.00  0.00     0.037 C 
ATOM     34  C   UNL d   1      24.232 -18.928  -0.145  0.00  0.00     0.033 C 
ATOM     35  C   UNL d   1      23.085 -18.290  -0.521  0.00  0.00     0.043 C 
ATOM     36  N   UNL d   1      23.459 -17.012  -0.851  0.00  0.00    -0.351 N 
ATOM     37  H   UNL d   1      22.847 -16.220  -0.994  0.00  0.00     0.166 HD
BRANCH  35  38
ATOM     38  C   UNL d   1      21.747 -18.773  -0.261  0.00  0.00    -0.009 C 
ATOM     39  C   UNL d   1      20.832 -19.036  -1.271  0.00  0.00     0.013 C 
ATOM     40  C   UNL d   1      19.518 -19.334  -0.920  0.00  0.00     0.001 C 
ATOM     41  C   UNL d   1      19.154 -19.480   0.423  0.00  0.00     0.000 C 
ATOM     42  C   UNL d   1      20.095 -19.315   1.431  0.00  0.00     0.001 C 
ATOM     43  C   UNL d   1      21.388 -18.964   1.086  0.00  0.00     0.013 C 
ENDBRANCH  35  38
ENDBRANCH   2  32
TORSDOF 13
ENDMDL
MODEL 5
REMARK VINA RESULT:   -10.843      1.427      2.044
REMARK INTER + INTRA:         -18.338
REMARK INTER:                 -14.721
REMARK INTRA:                  -3.617
REMARK CONF_INDEPENDENT:        3.878
REMARK UNBOUND:                -3.617
REMARK  13 active torsions:
REMARK  status: ('A' for Active; 'I' for Inactive)
REMARK    1  A    between atoms: C_2  and  N_3 
REMARK    2  A    between atoms: N_3  and  C_4 
REMARK    3  A    between atoms: N_3  and  C_6 
REMARK    4  A    between atoms: C_6  and  C_7 
REMARK    5  A    between atoms: C_7  and  C_8 
REMARK    6  A    between atoms: C_8  and  N_9 
REMARK       I    between atoms: N_9  and  C_10 
REMARK    7  A    between atoms: C_23  and  N_9 
REMARK    8  A    between atoms: C_10  and  C_12 
REMARK    9  A    between atoms: C_15  and  C_16 
REMARK   10  A    between atoms: C_23  and  C_33 
REMARK   11  A    between atoms: C_23  and  C_24 
REMARK       I    between atoms: C_24  and  N_26 
REMARK   12  A    between atoms: N_26  and  C_27 
REMARK   13  A    between atoms: C_36  and  O_37 
ROOT
ATOM      1  N   UNL d   1      25.889 -15.676  -1.474  0.00  0.00    -0.329 N 
ATOM      2  C   UNL d   1      24.469 -15.942  -1.503  0.00  0.00     0.271 C 
ATOM      3  O   UNL d   1      23.660 -15.212  -2.027  0.00  0.00    -0.266 OA
ENDROOT
BRANCH   1   4
ATOM      4  C   UNL d   1      26.938 -16.714  -1.599  0.00  0.00     0.129 C 
BRANCH   4   5
ATOM      5  C   UNL d   1      27.790 -16.900  -0.390  0.00  0.00     0.048 C 
BRANCH   5   6
ATOM      6  C   UNL d   1      29.162 -17.472  -0.502  0.00  0.00     0.236 C 
BRANCH   6   7
ATOM      7  N   UNL d   1      30.150 -16.612   0.340  0.00  0.00    -0.072 N 
ATOM      8  H   UNL d   1      30.234 -17.072   1.264  0.00  0.00     0.279 HD
BRANCH   7   9
ATOM      9  C   UNL d   1      31.459 -16.634  -0.390  0.00  0.00     0.230 C 
ATOM     10  C   UNL d   1      31.411 -17.451  -1.653  0.00  0.00     0.034 C 
ENDBRANCH   7   9
BRANCH   7  11
ATOM     11  C   UNL d   1      29.699 -15.167   0.558  0.00  0.00     0.230 C 
ATOM     12  C   UNL d   1      30.839 -14.159   0.735  0.00  0.00     0.034 C 
ENDBRANCH   7  11
ENDBRANCH   6   7
ENDBRANCH   5   6
ENDBRANCH   4   5
ENDBRANCH   1   4
BRANCH   1  13
ATOM     13  C   UNL d   1      26.407 -14.265  -1.718  0.00  0.00     0.212 C 
BRANCH  13  14
ATOM     14  C   UNL d   1      26.737 -13.476  -0.454  0.00  0.00    -0.026 C 
ATOM     15  C   UNL d   1      26.621 -14.092   0.806  0.00  0.00     0.012 C 
ATOM     16  C   UNL d   1      26.571 -13.326   1.960  0.00  0.00     0.037 C 
ATOM     17  C   UNL d   1      26.926 -11.990   1.891  0.00  0.00     0.065 C 
ATOM     18  C   UNL d   1      27.231 -11.394   0.672  0.00  0.00     0.037 C 
ATOM     19  C   UNL d   1      27.112 -12.128  -0.510  0.00  0.00     0.012 C 
BRANCH  17  20
ATOM     20  O   UNL d   1      27.003 -11.236   3.023  0.00  0.00    -0.361 OA
ATOM     21  H   UNL d   1      27.908 -11.313   3.371  0.00  0.00     0.217 HD
ENDBRANCH  17  20
ENDBRANCH  13  14
BRANCH  13  22
ATOM     22  C   UNL d   1      27.708 -14.279  -2.611  0.00  0.00     0.245 C 
ATOM     23  O   UNL d   1      28.710 -13.640  -2.290  0.00  0.00    -0.271 OA
ATOM     24  N   UNL d   1      27.723 -15.084  -3.751  0.00  0.00    -0.354 N 
ATOM     25  H   UNL d   1      26.913 -15.618  -4.029  0.00  0.00     0.162 HD
BRANCH  24  26
ATOM     26  C   UNL d   1      28.930 -15.179  -4.581  0.00  0.00     0.084 C 
ATOM     27  C   UNL d   1      29.630 -16.542  -4.415  0.00  0.00     0.025 C 
ATOM     28  C   UNL d   1      30.803 -16.714  -5.386  0.00  0.00     0.002 C 
ATOM     29  C   UNL d   1      30.381 -16.467  -6.831  0.00  0.00     0.000 C 
ATOM     30  C   UNL d   1      29.752 -15.094  -6.978  0.00  0.00     0.002 C 
ATOM     31  C   UNL d   1      28.566 -14.942  -6.049  0.00  0.00     0.025 C 
ENDBRANCH  24  26
ENDBRANCH  13  22
ENDBRANCH   1  13
BRANCH   2  32
ATOM     32  C   UNL d   1      23.921 -17.151  -0.890  0.00  0.00     0.101 C 
ATOM     33  C   UNL d   1      24.495 -18.297  -0.373  0.00  0.00     0.037 C 
ATOM     34  C   UNL d   1      23.446 -19.200  -0.145  0.00  0.00     0.033 C 
ATOM     35  C   UNL d   1      22.253 -18.553  -0.299  0.00  0.00     0.043 C 
ATOM     36  N   UNL d   1      22.570 -17.249  -0.583  0.00  0.00    -0.351 N 
ATOM     37  H   UNL d   1      21.939 -16.457  -0.575  0.00  0.00     0.166 HD
BRANCH  35  38
ATOM     38  C   UNL d   1      20.970 -19.074   0.117  0.00  0.00    -0.009 C 
ATOM     39  C   UNL d   1      20.655 -19.326   1.445  0.00  0.00     0.013 C 
ATOM     40  C   UNL d   1      19.462 -19.984   1.734  0.00  0.00     0.001 C 
ATOM     41  C   UNL d   1      18.546 -20.281   0.718  0.00  0.00     0.000 C 
ATOM     42  C   UNL d   1      18.819 -19.937  -0.599  0.00  0.00     0.001 C 
ATOM     43  C   UNL d   1      20.028 -19.334  -0.895  0.00  0.00     0.013 C 
ENDBRANCH  35  38
ENDBRANCH   2  32
TORSDOF 13
ENDMDL
MODEL 6
REMARK VINA RESULT:   -10.398      2.374      6.772
REMARK INTER + INTRA:         -18.550
REMARK INTER:                 -14.276
REMARK INTRA:                  -4.274
REMARK CONF_INDEPENDENT:        3.878
REMARK UNBOUND:                -4.274
REMARK  13 active torsions:
REMARK  status: ('A' for Active; 'I' for Inactive)
REMARK    1  A    between atoms: C_2  and  N_3 
REMARK    2  A    between atoms: N_3  and  C_4 
REMARK    3  A    between atoms: N_3  and  C_6 
REMARK    4  A    between atoms: C_6  and  C_7 
REMARK    5  A    between atoms: C_7  and  C_8 
REMARK    6  A    between atoms: C_8  and  N_9 
REMARK       I    between atoms: N_9  and  C_10 
REMARK    7  A    between atoms: C_23  and  N_9 
REMARK    8  A    between atoms: C_10  and  C_12 
REMARK    9  A    between atoms: C_15  and  C_16 
REMARK   10  A    between atoms: C_23  and  C_33 
REMARK   11  A    between atoms: C_23  and  C_24 
REMARK       I    between atoms: C_24  and  N_26 
REMARK   12  A    between atoms: N_26  and  C_27 
REMARK   13  A    between atoms: C_36  and  O_37 
ROOT
ATOM      1  N   UNL d   1      27.252 -15.167  -0.423  0.00  0.00    -0.329 N 
ATOM      2  C   UNL d   1      27.369 -15.538   0.969  0.00  0.00     0.271 C 
ATOM      3  O   UNL d   1      27.452 -16.682   1.354  0.00  0.00    -0.266 OA
ENDROOT
BRANCH   1   4
ATOM      4  C   UNL d   1      27.893 -13.977  -1.027  0.00  0.00     0.129 C 
BRANCH   4   5
ATOM      5  C   UNL d   1      29.383 -13.964  -0.970  0.00  0.00     0.048 C 
BRANCH   5   6
ATOM      6  C   UNL d   1      30.100 -14.125   0.327  0.00  0.00     0.236 C 
BRANCH   6   7
ATOM      7  N   UNL d   1      30.332 -15.640   0.605  0.00  0.00    -0.072 N 
ATOM      8  H   UNL d   1      29.533 -15.962   1.180  0.00  0.00     0.279 HD
BRANCH   7   9
ATOM      9  C   UNL d   1      30.338 -16.320  -0.730  0.00  0.00     0.230 C 
ATOM     10  C   UNL d   1      29.808 -17.728  -0.672  0.00  0.00     0.034 C 
ENDBRANCH   7   9
BRANCH   7  11
ATOM     11  C   UNL d   1      31.627 -15.952   1.356  0.00  0.00     0.230 C 
ATOM     12  C   UNL d   1      31.798 -15.199   2.679  0.00  0.00     0.034 C 
ENDBRANCH   7  11
ENDBRANCH   6   7
ENDBRANCH   5   6
ENDBRANCH   4   5
ENDBRANCH   1   4
BRANCH   1  13
ATOM     13  C   UNL d   1      26.795 -16.192  -1.451  0.00  0.00     0.212 C 
BRANCH  13  14
ATOM     14  C   UNL d   1      25.483 -16.896  -1.114  0.00  0.00    -0.026 C 
ATOM     15  C   UNL d   1      24.263 -16.214  -1.270  0.00  0.00     0.012 C 
ATOM     16  C   UNL d   1      23.112 -16.684  -0.656  0.00  0.00     0.037 C 
ATOM     17  C   UNL d   1      23.108 -17.968  -0.138  0.00  0.00     0.065 C 
ATOM     18  C   UNL d   1      24.263 -18.742  -0.140  0.00  0.00     0.037 C 
ATOM     19  C   UNL d   1      25.464 -18.200  -0.604  0.00  0.00     0.012 C 
BRANCH  17  20
ATOM     20  O   UNL d   1      21.962 -18.506   0.366  0.00  0.00    -0.361 OA
ATOM     21  H   UNL d   1      22.154 -19.421   0.631  0.00  0.00     0.217 HD
ENDBRANCH  17  20
ENDBRANCH  13  14
BRANCH  13  22
ATOM     22  C   UNL d   1      26.617 -15.535  -2.875  0.00  0.00     0.245 C 
ATOM     23  O   UNL d   1      25.556 -15.007  -3.207  0.00  0.00    -0.271 OA
ATOM     24  N   UNL d   1      27.715 -15.511  -3.737  0.00  0.00    -0.354 N 
ATOM     25  H   UNL d   1      28.594 -15.934  -3.482  0.00  0.00     0.162 HD
BRANCH  24  26
ATOM     26  C   UNL d   1      27.619 -14.858  -5.048  0.00  0.00     0.084 C 
ATOM     27  C   UNL d   1      27.360 -13.344  -4.913  0.00  0.00     0.025 C 
ATOM     28  C   UNL d   1      27.409 -12.624  -6.265  0.00  0.00     0.002 C 
ATOM     29  C   UNL d   1      28.708 -12.912  -7.012  0.00  0.00     0.000 C 
ATOM     30  C   UNL d   1      28.905 -14.406  -7.186  0.00  0.00     0.002 C 
ATOM     31  C   UNL d   1      28.901 -15.111  -5.845  0.00  0.00     0.025 C 
ENDBRANCH  24  26
ENDBRANCH  13  22
ENDBRANCH   1  13
BRANCH   2  32
ATOM     32  C   UNL d   1      27.405 -14.519   2.016  0.00  0.00     0.101 C 
ATOM     33  C   UNL d   1      26.874 -13.247   2.121  0.00  0.00     0.037 C 
ATOM     34  C   UNL d   1      27.447 -12.669   3.264  0.00  0.00     0.033 C 
ATOM     35  C   UNL d   1      28.127 -13.627   3.961  0.00  0.00     0.043 C 
ATOM     36  N   UNL d   1      27.939 -14.797   3.268  0.00  0.00    -0.351 N 
ATOM     37  H   UNL d   1      28.144 -15.732   3.594  0.00  0.00     0.166 HD
BRANCH  35  38
ATOM     38  C   UNL d   1      28.611 -13.477   5.314  0.00  0.00    -0.009 C 
ATOM     39  C   UNL d   1      29.727 -14.150   5.794  0.00  0.00     0.013 C 
ATOM     40  C   UNL d   1      30.018 -14.075   7.154  0.00  0.00     0.001 C 
ATOM     41  C   UNL d   1      29.271 -13.246   7.998  0.00  0.00     0.000 C 
ATOM     42  C   UNL d   1      28.216 -12.495   7.497  0.00  0.00     0.001 C 
ATOM     43  C   UNL d   1      27.891 -12.612   6.158  0.00  0.00     0.013 C 
ENDBRANCH  35  38
ENDBRANCH   2  32
TORSDOF 13
ENDMDL
MODEL 7
REMARK VINA RESULT:   -10.176      1.951      7.405
REMARK INTER + INTRA:         -18.122
REMARK INTER:                 -14.054
REMARK INTRA:                  -4.068
REMARK CONF_INDEPENDENT:        3.878
REMARK UNBOUND:                -4.068
REMARK  13 active torsions:
REMARK  status: ('A' for Active; 'I' for Inactive)
REMARK    1  A    between atoms: C_2  and  N_3 
REMARK    2  A    between atoms: N_3  and  C_4 
REMARK    3  A    between atoms: N_3  and  C_6 
REMARK    4  A    between atoms: C_6  and  C_7 
REMARK    5  A    between atoms: C_7  and  C_8 
REMARK    6  A    between atoms: C_8  and  N_9 
REMARK       I    between atoms: N_9  and  C_10 
REMARK    7  A    between atoms: C_23  and  N_9 
REMARK    8  A    between atoms: C_10  and  C_12 
REMARK    9  A    between atoms: C_15  and  C_16 
REMARK   10  A    between atoms: C_23  and  C_33 
REMARK   11  A    between atoms: C_23  and  C_24 
REMARK       I    between atoms: C_24  and  N_26 
REMARK   12  A    between atoms: N_26  and  C_27 
REMARK   13  A    between atoms: C_36  and  O_37 
ROOT
ATOM      1  N   UNL d   1      27.616 -14.211  -1.429  0.00  0.00    -0.329 N 
ATOM      2  C   UNL d   1      27.227 -13.922  -0.067  0.00  0.00     0.271 C 
ATOM      3  O   UNL d   1      26.078 -13.800   0.292  0.00  0.00    -0.266 OA
ENDROOT
BRANCH   1   4
ATOM      4  C   UNL d   1      28.745 -15.091  -1.807  0.00  0.00     0.129 C 
BRANCH   4   5
ATOM      5  C   UNL d   1      28.540 -16.540  -1.523  0.00  0.00     0.048 C 
BRANCH   5   6
ATOM      6  C   UNL d   1      28.830 -17.105  -0.174  0.00  0.00     0.236 C 
BRANCH   6   7
ATOM      7  N   UNL d   1      30.344 -17.457  -0.077  0.00  0.00    -0.072 N 
ATOM      8  H   UNL d   1      30.426 -18.232   0.605  0.00  0.00     0.279 HD
BRANCH   7   9
ATOM      9  C   UNL d   1      30.765 -17.899  -1.444  0.00  0.00     0.230 C 
ATOM     10  C   UNL d   1      31.250 -19.325  -1.475  0.00  0.00     0.034 C 
ENDBRANCH   7   9
BRANCH   7  11
ATOM     11  C   UNL d   1      31.230 -16.302   0.395  0.00  0.00     0.230 C 
ATOM     12  C   UNL d   1      32.247 -16.676   1.476  0.00  0.00     0.034 C 
ENDBRANCH   7  11
ENDBRANCH   6   7
ENDBRANCH   5   6
ENDBRANCH   4   5
ENDBRANCH   1   4
BRANCH   1  13
ATOM     13  C   UNL d   1      26.642 -13.956  -2.571  0.00  0.00     0.212 C 
BRANCH  13  14
ATOM     14  C   UNL d   1      27.274 -13.950  -3.961  0.00  0.00    -0.026 C 
ATOM     15  C   UNL d   1      27.575 -15.168  -4.599  0.00  0.00     0.012 C 
ATOM     16  C   UNL d   1      28.448 -15.200  -5.675  0.00  0.00     0.037 C 
ATOM     17  C   UNL d   1      28.788 -14.010  -6.295  0.00  0.00     0.065 C 
ATOM     18  C   UNL d   1      28.347 -12.791  -5.792  0.00  0.00     0.037 C 
ATOM     19  C   UNL d   1      27.609 -12.753  -4.606  0.00  0.00     0.012 C 
BRANCH  17  20
ATOM     20  O   UNL d   1      29.547 -14.013  -7.426  0.00  0.00    -0.361 OA
ATOM     21  H   UNL d   1      28.963 -14.213  -8.177  0.00  0.00     0.217 HD
ENDBRANCH  17  20
ENDBRANCH  13  14
BRANCH  13  22
ATOM     22  C   UNL d   1      25.488 -15.032  -2.591  0.00  0.00     0.245 C 
ATOM     23  O   UNL d   1      24.780 -15.192  -3.585  0.00  0.00    -0.271 OA
ATOM     24  N   UNL d   1      25.319 -15.846  -1.469  0.00  0.00    -0.354 N 
ATOM     25  H   UNL d   1      25.891 -15.732  -0.646  0.00  0.00     0.162 HD
BRANCH  24  26
ATOM     26  C   UNL d   1      24.300 -16.901  -1.461  0.00  0.00     0.084 C 
ATOM     27  C   UNL d   1      24.757 -18.130  -0.650  0.00  0.00     0.025 C 
ATOM     28  C   UNL d   1      23.647 -19.176  -0.505  0.00  0.00     0.002 C 
ATOM     29  C   UNL d   1      22.368 -18.567   0.063  0.00  0.00     0.000 C 
ATOM     30  C   UNL d   1      21.906 -17.400  -0.790  0.00  0.00     0.002 C 
ATOM     31  C   UNL d   1      22.989 -16.347  -0.895  0.00  0.00     0.025 C 
ENDBRANCH  24  26
ENDBRANCH  13  22
ENDBRANCH   1  13
BRANCH   2  32
ATOM     32  C   UNL d   1      28.233 -13.768   0.982  0.00  0.00     0.101 C 
ATOM     33  C   UNL d   1      29.599 -13.560   0.964  0.00  0.00     0.037 C 
ATOM     34  C   UNL d   1      30.046 -13.734   2.283  0.00  0.00     0.033 C 
ATOM     35  C   UNL d   1      28.967 -13.818   3.117  0.00  0.00     0.043 C 
ATOM     36  N   UNL d   1      27.864 -13.657   2.317  0.00  0.00    -0.351 N 
ATOM     37  H   UNL d   1      26.916 -13.481   2.623  0.00  0.00     0.166 HD
BRANCH  35  38
ATOM     38  C   UNL d   1      29.028 -13.724   4.558  0.00  0.00    -0.009 C 
ATOM     39  C   UNL d   1      30.030 -14.322   5.310  0.00  0.00     0.013 C 
ATOM     40  C   UNL d   1      29.913 -14.322   6.698  0.00  0.00     0.001 C 
ATOM     41  C   UNL d   1      28.869 -13.633   7.326  0.00  0.00     0.000 C 
ATOM     42  C   UNL d   1      27.922 -12.950   6.574  0.00  0.00     0.001 C 
ATOM     43  C   UNL d   1      28.005 -12.996   5.194  0.00  0.00     0.013 C 
ENDBRANCH  35  38
ENDBRANCH   2  32
TORSDOF 13
ENDMDL
MODEL 8
REMARK VINA RESULT:   -10.110      1.919      5.416
REMARK INTER + INTRA:         -18.207
REMARK INTER:                 -13.988
REMARK INTRA:                  -4.220
REMARK CONF_INDEPENDENT:        3.878
REMARK UNBOUND:                -4.220
REMARK  13 active torsions:
REMARK  status: ('A' for Active; 'I' for Inactive)
REMARK    1  A    between atoms: C_2  and  N_3 
REMARK    2  A    between atoms: N_3  and  C_4 
REMARK    3  A    between atoms: N_3  and  C_6 
REMARK    4  A    between atoms: C_6  and  C_7 
REMARK    5  A    between atoms: C_7  and  C_8 
REMARK    6  A    between atoms: C_8  and  N_9 
REMARK       I    between atoms: N_9  and  C_10 
REMARK    7  A    between atoms: C_23  and  N_9 
REMARK    8  A    between atoms: C_10  and  C_12 
REMARK    9  A    between atoms: C_15  and  C_16 
REMARK   10  A    between atoms: C_23  and  C_33 
REMARK   11  A    between atoms: C_23  and  C_24 
REMARK       I    between atoms: C_24  and  N_26 
REMARK   12  A    between atoms: N_26  and  C_27 
REMARK   13  A    between atoms: C_36  and  O_37 
ROOT
ATOM      1  N   UNL d   1      26.329 -16.631  -0.230  0.00  0.00    -0.329 N 
ATOM      2  C   UNL d   1      25.610 -17.797   0.232  0.00  0.00     0.271 C 
ATOM      3  O   UNL d   1      26.009 -18.527   1.109  0.00  0.00    -0.266 OA
ENDROOT
BRANCH   1   4
ATOM      4  C   UNL d   1      25.688 -15.359  -0.635  0.00  0.00     0.129 C 
BRANCH   4   5
ATOM      5  C   UNL d   1      25.304 -15.276  -2.074  0.00  0.00     0.048 C 
BRANCH   5   6
ATOM      6  C   UNL d   1      25.299 -13.969  -2.790  0.00  0.00     0.236 C 
BRANCH   6   7
ATOM      7  N   UNL d   1      26.755 -13.427  -2.886  0.00  0.00    -0.072 N 
ATOM      8  H   UNL d   1      27.292 -13.877  -2.122  0.00  0.00     0.279 HD
BRANCH   7   9
ATOM      9  C   UNL d   1      27.278 -13.847  -4.225  0.00  0.00     0.230 C 
ATOM     10  C   UNL d   1      26.282 -14.655  -5.015  0.00  0.00     0.034 C 
ENDBRANCH   7   9
BRANCH   7  11
ATOM     11  C   UNL d   1      26.875 -11.909  -2.731  0.00  0.00     0.230 C 
ATOM     12  C   UNL d   1      27.407 -11.444  -1.373  0.00  0.00     0.034 C 
ENDBRANCH   7  11
ENDBRANCH   6   7
ENDBRANCH   5   6
ENDBRANCH   4   5
ENDBRANCH   1   4
BRANCH   1  13
ATOM     13  C   UNL d   1      27.819 -16.490   0.053  0.00  0.00     0.212 C 
BRANCH  13  14
ATOM     14  C   UNL d   1      28.726 -16.779  -1.140  0.00  0.00    -0.026 C 
ATOM     15  C   UNL d   1      29.932 -17.478  -0.949  0.00  0.00     0.012 C 
ATOM     16  C   UNL d   1      30.922 -17.449  -1.919  0.00  0.00     0.037 C 
ATOM     17  C   UNL d   1      30.606 -16.978  -3.182  0.00  0.00     0.065 C 
ATOM     18  C   UNL d   1      29.349 -16.449  -3.453  0.00  0.00     0.037 C 
ATOM     19  C   UNL d   1      28.411 -16.322  -2.425  0.00  0.00     0.012 C 
BRANCH  17  20
ATOM     20  O   UNL d   1      31.518 -17.044  -4.192  0.00  0.00    -0.361 OA
ATOM     21  H   UNL d   1      31.978 -17.898  -4.122  0.00  0.00     0.217 HD
ENDBRANCH  17  20
ENDBRANCH  13  14
BRANCH  13  22
ATOM     22  C   UNL d   1      28.170 -15.039   0.564  0.00  0.00     0.245 C 
ATOM     23  O   UNL d   1      28.305 -14.100  -0.221  0.00  0.00    -0.271 OA
ATOM     24  N   UNL d   1      28.268 -14.824   1.940  0.00  0.00    -0.354 N 
ATOM     25  H   UNL d   1      28.156 -15.580   2.599  0.00  0.00     0.162 HD
BRANCH  24  26
ATOM     26  C   UNL d   1      28.532 -13.481   2.468  0.00  0.00     0.084 C 
ATOM     27  C   UNL d   1      27.343 -12.530   2.228  0.00  0.00     0.025 C 
ATOM     28  C   UNL d   1      27.541 -11.169   2.905  0.00  0.00     0.002 C 
ATOM     29  C   UNL d   1      27.854 -11.320   4.391  0.00  0.00     0.000 C 
ATOM     30  C   UNL d   1      29.066 -12.209   4.595  0.00  0.00     0.002 C 
ATOM     31  C   UNL d   1      28.851 -13.568   3.962  0.00  0.00     0.025 C 
ENDBRANCH  24  26
ENDBRANCH  13  22
ENDBRANCH   1  13
BRANCH   2  32
ATOM     32  C   UNL d   1      24.319 -18.159  -0.350  0.00  0.00     0.101 C 
ATOM     33  C   UNL d   1      23.839 -18.200  -1.645  0.00  0.00     0.037 C 
ATOM     34  C   UNL d   1      22.453 -18.397  -1.550  0.00  0.00     0.033 C 
ATOM     35  C   UNL d   1      22.128 -18.696  -0.258  0.00  0.00     0.043 C 
ATOM     36  N   UNL d   1      23.315 -18.720   0.430  0.00  0.00    -0.351 N 
ATOM     37  H   UNL d   1      23.468 -19.085   1.361  0.00  0.00     0.166 HD
BRANCH  35  38
ATOM     38  C   UNL d   1      20.854 -19.227   0.173  0.00  0.00    -0.009 C 
ATOM     39  C   UNL d   1      20.554 -19.477   1.504  0.00  0.00     0.013 C 
ATOM     40  C   UNL d   1      19.370 -20.145   1.807  0.00  0.00     0.001 C 
ATOM     41  C   UNL d   1      18.446 -20.452   0.801  0.00  0.00     0.000 C 
ATOM     42  C   UNL d   1      18.703 -20.110  -0.520  0.00  0.00     0.001 C 
ATOM     43  C   UNL d   1      19.904 -19.497  -0.830  0.00  0.00     0.013 C 
ENDBRANCH  35  38
ENDBRANCH   2  32
TORSDOF 13
ENDMDL
MODEL 9
REMARK VINA RESULT:    -9.733      2.436      7.730
REMARK INTER + INTRA:         -18.035
REMARK INTER:                 -13.611
REMARK INTRA:                  -4.424
REMARK CONF_INDEPENDENT:        3.878
REMARK UNBOUND:                -4.424
REMARK  13 active torsions:
REMARK  status: ('A' for Active; 'I' for Inactive)
REMARK    1  A    between atoms: C_2  and  N_3 
REMARK    2  A    between atoms: N_3  and  C_4 
REMARK    3  A    between atoms: N_3  and  C_6 
REMARK    4  A    between atoms: C_6  and  C_7 
REMARK    5  A    between atoms: C_7  and  C_8 
REMARK    6  A    between atoms: C_8  and  N_9 
REMARK       I    between atoms: N_9  and  C_10 
REMARK    7  A    between atoms: C_23  and  N_9 
REMARK    8  A    between atoms: C_10  and  C_12 
REMARK    9  A    between atoms: C_15  and  C_16 
REMARK   10  A    between atoms: C_23  and  C_33 
REMARK   11  A    between atoms: C_23  and  C_24 
REMARK       I    between atoms: C_24  and  N_26 
REMARK   12  A    between atoms: N_26  and  C_27 
REMARK   13  A    between atoms: C_36  and  O_37 
ROOT
ATOM      1  N   UNL d   1      27.087 -14.585  -1.776  0.00  0.00    -0.329 N 
ATOM      2  C   UNL d   1      26.569 -14.640  -3.124  0.00  0.00     0.271 C 
ATOM      3  O   UNL d   1      25.394 -14.558  -3.396  0.00  0.00    -0.266 OA
ENDROOT
BRANCH   1   4
ATOM      4  C   UNL d   1      28.355 -13.923  -1.393  0.00  0.00     0.129 C 
BRANCH   4   5
ATOM      5  C   UNL d   1      29.556 -14.807  -1.402  0.00  0.00     0.048 C 
BRANCH   5   6
ATOM      6  C   UNL d   1      30.402 -14.961  -0.185  0.00  0.00     0.236 C 
BRANCH   6   7
ATOM      7  N   UNL d   1      30.252 -16.408   0.369  0.00  0.00    -0.072 N 
ATOM      8  H   UNL d   1      29.652 -16.344   1.212  0.00  0.00     0.279 HD
BRANCH   7   9
ATOM      9  C   UNL d   1      29.580 -17.206  -0.706  0.00  0.00     0.230 C 
ATOM     10  C   UNL d   1      30.546 -18.035  -1.510  0.00  0.00     0.034 C 
ENDBRANCH   7   9
BRANCH   7  11
ATOM     11  C   UNL d   1      31.572 -17.072   0.765  0.00  0.00     0.230 C 
ATOM     12  C   UNL d   1      32.532 -16.173   1.549  0.00  0.00     0.034 C 
ENDBRANCH   7  11
ENDBRANCH   6   7
ENDBRANCH   5   6
ENDBRANCH   4   5
ENDBRANCH   1   4
BRANCH   1  13
ATOM     13  C   UNL d   1      26.166 -14.851  -0.593  0.00  0.00     0.212 C 
BRANCH  13  14
ATOM     14  C   UNL d   1      25.447 -16.197  -0.631  0.00  0.00    -0.026 C 
ATOM     15  C   UNL d   1      24.088 -16.255  -0.992  0.00  0.00     0.012 C 
ATOM     16  C   UNL d   1      23.333 -17.381  -0.702  0.00  0.00     0.037 C 
ATOM     17  C   UNL d   1      23.984 -18.544  -0.327  0.00  0.00     0.065 C 
ATOM     18  C   UNL d   1      25.362 -18.564  -0.144  0.00  0.00     0.037 C 
ATOM     19  C   UNL d   1      26.098 -17.383  -0.269  0.00  0.00     0.012 C 
BRANCH  17  20
ATOM     20  O   UNL d   1      23.285 -19.700  -0.150  0.00  0.00    -0.361 OA
ATOM     21  H   UNL d   1      22.711 -19.586   0.627  0.00  0.00     0.217 HD
ENDBRANCH  17  20
ENDBRANCH  13  14
BRANCH  13  22
ATOM     22  C   UNL d   1      26.954 -14.783   0.773  0.00  0.00     0.245 C 
ATOM     23  O   UNL d   1      27.565 -15.760   1.206  0.00  0.00    -0.271 OA
ATOM     24  N   UNL d   1      26.994 -13.567   1.457  0.00  0.00    -0.354 N 
ATOM     25  H   UNL d   1      26.503 -12.755   1.116  0.00  0.00     0.162 HD
BRANCH  24  26
ATOM     26  C   UNL d   1      27.764 -13.437   2.700  0.00  0.00     0.084 C 
ATOM     27  C   UNL d   1      27.030 -14.075   3.896  0.00  0.00     0.025 C 
ATOM     28  C   UNL d   1      27.886 -14.082   5.167  0.00  0.00     0.002 C 
ATOM     29  C   UNL d   1      29.247 -14.730   4.926  0.00  0.00     0.000 C 
ATOM     30  C   UNL d   1      29.974 -14.042   3.786  0.00  0.00     0.002 C 
ATOM     31  C   UNL d   1      29.144 -14.075   2.520  0.00  0.00     0.025 C 
ENDBRANCH  24  26
ENDBRANCH  13  22
ENDBRANCH   1  13
BRANCH   2  32
ATOM     32  C   UNL d   1      27.469 -14.793  -4.266  0.00  0.00     0.101 C 
ATOM     33  C   UNL d   1      27.684 -14.052  -5.412  0.00  0.00     0.037 C 
ATOM     34  C   UNL d   1      28.506 -14.830  -6.242  0.00  0.00     0.033 C 
ATOM     35  C   UNL d   1      28.965 -15.907  -5.539  0.00  0.00     0.043 C 
ATOM     36  N   UNL d   1      28.458 -15.770  -4.272  0.00  0.00    -0.351 N 
ATOM     37  H   UNL d   1      28.742 -16.283  -3.447  0.00  0.00     0.166 HD
BRANCH  35  38
ATOM     38  C   UNL d   1      30.040 -16.775  -5.965  0.00  0.00    -0.009 C 
ATOM     39  C   UNL d   1      30.695 -16.621  -7.179  0.00  0.00     0.013 C 
ATOM     40  C   UNL d   1      31.599 -17.603  -7.578  0.00  0.00     0.001 C 
ATOM     41  C   UNL d   1      31.928 -18.660  -6.722  0.00  0.00     0.000 C 
ATOM     42  C   UNL d   1      31.346 -18.758  -5.466  0.00  0.00     0.001 C 
ATOM     43  C   UNL d   1      30.406 -17.815  -5.090  0.00  0.00     0.013 C 
ENDBRANCH  35  38
ENDBRANCH   2  32
TORSDOF 13
ENDMDL
