MODEL 1
REMARK VINA RESULT:   -21.912      0.000      0.000
REMARK INTER + INTRA:         -24.811
REMARK INTER:                 -24.001
REMARK INTRA:                  -0.811
REMARK CONF_INDEPENDENT:        2.088
REMARK UNBOUND:                -0.811
REMARK  7 active torsions:
REMARK  status: ('A' for Active; 'I' for Inactive)
REMARK    1  A    between atoms: O_2  and  C_3 
REMARK    2  A    between atoms: C_6  and  C_7 
REMARK    3  A    between atoms: C_7  and  C_8 
REMARK    4  A    between atoms: C_8  and  N_9 
REMARK    5  A    between atoms: N_9  and  S_10 
REMARK    6  A    between atoms: S_10  and  C_13 
REMARK    7  A    between atoms: C_24  and  O_25 
ROOT
ATOM      1  N   UNL d   1      24.731 -15.575  -0.416  0.00  0.00    -0.215 NA
ATOM      2  H   UNL d   1      25.008 -14.643  -0.735  0.00  0.00     0.139 HD
ENDROOT
BRANCH   1   3
ATOM      3  C   UNL d   1      25.957 -16.391  -0.334  0.00  0.00     0.109 C 
BRANCH   3   4
ATOM      4  C   UNL d   1      27.245 -15.628  -0.676  0.00  0.00     0.054 C 
BRANCH   4   5
ATOM      5  C   UNL d   1      27.408 -15.447  -2.177  0.00  0.00    -0.054 A 
ATOM      6  C   UNL d   1      28.645 -15.586  -2.796  0.00  0.00     0.010 A 
ATOM      7  C   UNL d   1      28.783 -15.303  -4.170  0.00  0.00     0.040 A 
ATOM      8  C   UNL d   1      27.683 -14.958  -4.993  0.00  0.00     0.101 A 
ATOM      9  C   UNL d   1      26.432 -14.841  -4.370  0.00  0.00     0.102 A 
ATOM     10  C   UNL d   1      26.328 -15.089  -2.992  0.00  0.00     0.046 A 
BRANCH   8  11
ATOM     11  O   UNL d   1      27.976 -15.065  -6.333  0.00  0.00    -0.353 OA
ATOM     12  C   UNL d   1      29.209 -14.631  -6.900  0.00  0.00     0.210 C 
ENDBRANCH   8  11
BRANCH   9  13
ATOM     13  O   UNL d   1      25.171 -14.562  -4.834  0.00  0.00    -0.353 OA
ATOM     14  C   UNL d   1      24.448 -13.643  -4.080  0.00  0.00     0.210 C 
ENDBRANCH   9  13
ENDBRANCH   4   5
ENDBRANCH   3   4
ENDBRANCH   1   3
BRANCH   1  15
ATOM     15  S   UNL d   1      23.613 -16.263  -1.580  0.00  0.00     0.241 S 
ATOM     16  O   UNL d   1      22.536 -15.323  -1.672  0.00  0.00    -0.206 OA
ATOM     17  O   UNL d   1      24.406 -16.674  -2.737  0.00  0.00    -0.206 OA
BRANCH  15  18
ATOM     18  C   UNL d   1      23.014 -17.727  -0.783  0.00  0.00     0.076 C 
ATOM     19  C   UNL d   1      23.729 -18.917  -0.526  0.00  0.00     0.026 C 
ATOM     20  C   UNL d   1      23.017 -20.146  -0.157  0.00  0.00     0.022 C 
ATOM     21  C   UNL d   1      21.597 -20.094  -0.029  0.00  0.00     0.021 C 
ATOM     22  C   UNL d   1      21.033 -18.910  -0.446  0.00  0.00     0.026 C 
ATOM     23  S   UNL d   1      19.964 -21.219   0.344  0.00  0.00    -0.127 SA
ATOM     24  C   UNL d   1      21.662 -17.724  -0.633  0.00  0.00     0.049 C 
ATOM     25  N   UNL d   1      19.905 -19.069  -1.270  0.00  0.00    -0.291 NA
ATOM     26  C   UNL d   1      18.721 -18.609  -0.630  0.00  0.00     0.103 C 
ATOM     27  H   UNL d   1      19.844 -20.104  -1.181  0.00  0.00     0.127 HD
ATOM     28  C   UNL d   1      18.203 -19.955  -0.135  0.00  0.00     0.094 C 
ENDBRANCH  15  18
ENDBRANCH   1  15
TORSDOF 7
ENDMDL
MODEL 2
REMARK VINA RESULT:   -21.116      1.005      2.049
REMARK INTER + INTRA:         -24.169
REMARK INTER:                 -23.204
REMARK INTRA:                  -0.965
REMARK CONF_INDEPENDENT:        2.088
REMARK UNBOUND:                -0.965
REMARK  7 active torsions:
REMARK  status: ('A' for Active; 'I' for Inactive)
REMARK    1  A    between atoms: O_2  and  C_3 
REMARK    2  A    between atoms: C_6  and  C_7 
REMARK    3  A    between atoms: C_7  and  C_8 
REMARK    4  A    between atoms: C_8  and  N_9 
REMARK    5  A    between atoms: N_9  and  S_10 
REMARK    6  A    between atoms: S_10  and  C_13 
REMARK    7  A    between atoms: C_24  and  O_25 
ROOT
ATOM      1  N   UNL d   1      24.691 -15.442  -0.401  0.00  0.00    -0.215 NA
ATOM      2  H   UNL d   1      25.096 -14.584  -0.785  0.00  0.00     0.139 HD
ENDROOT
BRANCH   1   3
ATOM      3  C   UNL d   1      25.802 -16.385  -0.173  0.00  0.00     0.109 C 
BRANCH   3   4
ATOM      4  C   UNL d   1      27.196 -15.784  -0.404  0.00  0.00     0.054 C 
BRANCH   4   5
ATOM      5  C   UNL d   1      27.513 -15.658  -1.886  0.00  0.00    -0.054 A 
ATOM      6  C   UNL d   1      26.622 -15.065  -2.774  0.00  0.00     0.010 A 
ATOM      7  C   UNL d   1      26.897 -15.066  -4.156  0.00  0.00     0.040 A 
ATOM      8  C   UNL d   1      28.103 -15.575  -4.695  0.00  0.00     0.101 A 
ATOM      9  C   UNL d   1      29.011 -16.153  -3.794  0.00  0.00     0.102 A 
ATOM     10  C   UNL d   1      28.695 -16.177  -2.427  0.00  0.00     0.046 A 
BRANCH   8  11
ATOM     11  O   UNL d   1      28.312 -15.168  -5.993  0.00  0.00    -0.353 OA
ATOM     12  C   UNL d   1      29.301 -14.211  -6.361  0.00  0.00     0.210 C 
ENDBRANCH   8  11
BRANCH   9  13
ATOM     13  O   UNL d   1      30.258 -16.707  -3.939  0.00  0.00    -0.353 OA
ATOM     14  C   UNL d   1      30.384 -17.628  -4.975  0.00  0.00     0.210 C 
ENDBRANCH   9  13
ENDBRANCH   4   5
ENDBRANCH   3   4
ENDBRANCH   1   3
BRANCH   1  15
ATOM     15  S   UNL d   1      23.555 -16.102  -1.563  0.00  0.00     0.241 S 
ATOM     16  O   UNL d   1      22.444 -15.198  -1.561  0.00  0.00    -0.206 OA
ATOM     17  O   UNL d   1      24.318 -16.416  -2.770  0.00  0.00    -0.206 OA
BRANCH  15  18
ATOM     18  C   UNL d   1      23.037 -17.630  -0.833  0.00  0.00     0.076 C 
ATOM     19  C   UNL d   1      23.778 -18.828  -0.734  0.00  0.00     0.026 C 
ATOM     20  C   UNL d   1      23.109 -20.090  -0.401  0.00  0.00     0.022 C 
ATOM     21  C   UNL d   1      21.706 -20.066  -0.145  0.00  0.00     0.021 C 
ATOM     22  C   UNL d   1      21.101 -18.861  -0.418  0.00  0.00     0.026 C 
ATOM     23  S   UNL d   1      20.119 -21.237   0.281  0.00  0.00    -0.127 SA
ATOM     24  C   UNL d   1      21.704 -17.656  -0.566  0.00  0.00     0.049 C 
ATOM     25  N   UNL d   1      19.905 -18.969  -1.149  0.00  0.00    -0.291 NA
ATOM     26  C   UNL d   1      18.780 -18.576  -0.373  0.00  0.00     0.103 C 
ATOM     27  H   UNL d   1      19.858 -20.009  -1.136  0.00  0.00     0.127 HD
ATOM     28  C   UNL d   1      18.315 -19.962   0.058  0.00  0.00     0.094 C 
ENDBRANCH  15  18
ENDBRANCH   1  15
TORSDOF 7
ENDMDL
MODEL 3
REMARK VINA RESULT:   -20.639      1.171      1.944
REMARK INTER + INTRA:         -23.881
REMARK INTER:                 -22.727
REMARK INTRA:                  -1.154
REMARK CONF_INDEPENDENT:        2.088
REMARK UNBOUND:                -1.154
REMARK  7 active torsions:
REMARK  status: ('A' for Active; 'I' for Inactive)
REMARK    1  A    between atoms: O_2  and  C_3 
REMARK    2  A    between atoms: C_6  and  C_7 
REMARK    3  A    between atoms: C_7  and  C_8 
REMARK    4  A    between atoms: C_8  and  N_9 
REMARK    5  A    between atoms: N_9  and  S_10 
REMARK    6  A    between atoms: S_10  and  C_13 
REMARK    7  A    between atoms: C_24  and  O_25 
ROOT
ATOM      1  N   UNL d   1      24.762 -15.558  -0.441  0.00  0.00    -0.215 NA
ATOM      2  H   UNL d   1      24.952 -14.582  -0.681  0.00  0.00     0.139 HD
ENDROOT
BRANCH   1   3
ATOM      3  C   UNL d   1      26.033 -16.296  -0.577  0.00  0.00     0.109 C 
BRANCH   3   4
ATOM      4  C   UNL d   1      27.254 -15.403  -0.833  0.00  0.00     0.054 C 
BRANCH   4   5
ATOM      5  C   UNL d   1      27.106 -14.605  -2.119  0.00  0.00    -0.054 A 
ATOM      6  C   UNL d   1      26.626 -13.300  -2.115  0.00  0.00     0.010 A 
ATOM      7  C   UNL d   1      26.395 -12.629  -3.333  0.00  0.00     0.040 A 
ATOM      8  C   UNL d   1      26.714 -13.196  -4.591  0.00  0.00     0.101 A 
ATOM      9  C   UNL d   1      27.218 -14.505  -4.590  0.00  0.00     0.102 A 
ATOM     10  C   UNL d   1      27.401 -15.167  -3.367  0.00  0.00     0.046 A 
BRANCH   8  11
ATOM     11  O   UNL d   1      26.735 -12.260  -5.600  0.00  0.00    -0.353 OA
ATOM     12  C   UNL d   1      25.606 -11.467  -5.951  0.00  0.00     0.210 C 
ENDBRANCH   8  11
BRANCH   9  13
ATOM     13  O   UNL d   1      27.653 -15.347  -5.583  0.00  0.00    -0.353 OA
ATOM     14  C   UNL d   1      28.844 -16.017  -5.317  0.00  0.00     0.210 C 
ENDBRANCH   9  13
ENDBRANCH   4   5
ENDBRANCH   3   4
ENDBRANCH   1   3
BRANCH   1  15
ATOM     15  S   UNL d   1      23.562 -16.192  -1.553  0.00  0.00     0.241 S 
ATOM     16  O   UNL d   1      22.500 -15.232  -1.552  0.00  0.00    -0.206 OA
ATOM     17  O   UNL d   1      24.275 -16.583  -2.767  0.00  0.00    -0.206 OA
BRANCH  15  18
ATOM     18  C   UNL d   1      22.986 -17.668  -0.762  0.00  0.00     0.076 C 
ATOM     19  C   UNL d   1      23.720 -18.846  -0.502  0.00  0.00     0.026 C 
ATOM     20  C   UNL d   1      23.029 -20.088  -0.140  0.00  0.00     0.022 C 
ATOM     21  C   UNL d   1      21.608 -20.062  -0.020  0.00  0.00     0.021 C 
ATOM     22  C   UNL d   1      21.025 -18.888  -0.439  0.00  0.00     0.026 C 
ATOM     23  S   UNL d   1      19.994 -21.218   0.341  0.00  0.00    -0.127 SA
ATOM     24  C   UNL d   1      21.633 -17.691  -0.620  0.00  0.00     0.049 C 
ATOM     25  N   UNL d   1      19.905 -19.066  -1.270  0.00  0.00    -0.291 NA
ATOM     26  C   UNL d   1      18.709 -18.630  -0.636  0.00  0.00     0.103 C 
ATOM     27  H   UNL d   1      19.862 -20.102  -1.182  0.00  0.00     0.127 HD
ATOM     28  C   UNL d   1      18.212 -19.986  -0.147  0.00  0.00     0.094 C 
ENDBRANCH  15  18
ENDBRANCH   1  15
TORSDOF 7
ENDMDL
MODEL 4
REMARK VINA RESULT:   -20.451      3.383      5.145
REMARK INTER + INTRA:         -23.414
REMARK INTER:                 -22.539
REMARK INTRA:                  -0.875
REMARK CONF_INDEPENDENT:        2.088
REMARK UNBOUND:                -0.875
REMARK  7 active torsions:
REMARK  status: ('A' for Active; 'I' for Inactive)
REMARK    1  A    between atoms: O_2  and  C_3 
REMARK    2  A    between atoms: C_6  and  C_7 
REMARK    3  A    between atoms: C_7  and  C_8 
REMARK    4  A    between atoms: C_8  and  N_9 
REMARK    5  A    between atoms: N_9  and  S_10 
REMARK    6  A    between atoms: S_10  and  C_13 
REMARK    7  A    between atoms: C_24  and  O_25 
ROOT
ATOM      1  N   UNL d   1      24.728 -15.551  -0.444  0.00  0.00    -0.215 NA
ATOM      2  H   UNL d   1      24.974 -14.604  -0.746  0.00  0.00     0.139 HD
ENDROOT
BRANCH   1   3
ATOM      3  C   UNL d   1      25.974 -16.341  -0.429  0.00  0.00     0.109 C 
BRANCH   3   4
ATOM      4  C   UNL d   1      27.255 -15.495  -0.417  0.00  0.00     0.054 C 
BRANCH   4   5
ATOM      5  C   UNL d   1      27.282 -14.534   0.761  0.00  0.00    -0.054 A 
ATOM      6  C   UNL d   1      26.838 -13.223   0.641  0.00  0.00     0.010 A 
ATOM      7  C   UNL d   1      26.980 -12.327   1.720  0.00  0.00     0.040 A 
ATOM      8  C   UNL d   1      27.487 -12.725   2.981  0.00  0.00     0.101 A 
ATOM      9  C   UNL d   1      27.914 -14.055   3.106  0.00  0.00     0.102 A 
ATOM     10  C   UNL d   1      27.799 -14.917   2.004  0.00  0.00     0.046 A 
BRANCH   8  11
ATOM     11  O   UNL d   1      27.219 -11.805   3.969  0.00  0.00    -0.353 OA
ATOM     12  C   UNL d   1      28.181 -10.867   4.443  0.00  0.00     0.210 C 
ENDBRANCH   8  11
BRANCH   9  13
ATOM     13  O   UNL d   1      28.419 -14.787   4.151  0.00  0.00    -0.353 OA
ATOM     14  C   UNL d   1      28.139 -14.288   5.419  0.00  0.00     0.210 C 
ENDBRANCH   9  13
ENDBRANCH   4   5
ENDBRANCH   3   4
ENDBRANCH   1   3
BRANCH   1  15
ATOM     15  S   UNL d   1      23.584 -16.231  -1.587  0.00  0.00     0.241 S 
ATOM     16  O   UNL d   1      22.508 -15.288  -1.653  0.00  0.00    -0.206 OA
ATOM     17  O   UNL d   1      24.352 -16.638  -2.763  0.00  0.00    -0.206 OA
BRANCH  15  18
ATOM     18  C   UNL d   1      22.999 -17.697  -0.785  0.00  0.00     0.076 C 
ATOM     19  C   UNL d   1      23.725 -18.879  -0.520  0.00  0.00     0.026 C 
ATOM     20  C   UNL d   1      23.026 -20.113  -0.147  0.00  0.00     0.022 C 
ATOM     21  C   UNL d   1      21.606 -20.075  -0.021  0.00  0.00     0.021 C 
ATOM     22  C   UNL d   1      21.030 -18.899  -0.445  0.00  0.00     0.026 C 
ATOM     23  S   UNL d   1      19.983 -21.214   0.355  0.00  0.00    -0.127 SA
ATOM     24  C   UNL d   1      21.647 -17.708  -0.637  0.00  0.00     0.049 C 
ATOM     25  N   UNL d   1      19.905 -19.073  -1.270  0.00  0.00    -0.291 NA
ATOM     26  C   UNL d   1      18.716 -18.623  -0.634  0.00  0.00     0.103 C 
ATOM     27  H   UNL d   1      19.854 -20.108  -1.176  0.00  0.00     0.127 HD
ATOM     28  C   UNL d   1      18.210 -19.971  -0.134  0.00  0.00     0.094 C 
ENDBRANCH  15  18
ENDBRANCH   1  15
TORSDOF 7
ENDMDL
MODEL 5
REMARK VINA RESULT:   -20.261      1.724      2.648
REMARK INTER + INTRA:         -23.169
REMARK INTER:                 -22.349
REMARK INTRA:                  -0.820
REMARK CONF_INDEPENDENT:        2.088
REMARK UNBOUND:                -0.820
REMARK  7 active torsions:
REMARK  status: ('A' for Active; 'I' for Inactive)
REMARK    1  A    between atoms: O_2  and  C_3 
REMARK    2  A    between atoms: C_6  and  C_7 
REMARK    3  A    between atoms: C_7  and  C_8 
REMARK    4  A    between atoms: C_8  and  N_9 
REMARK    5  A    between atoms: N_9  and  S_10 
REMARK    6  A    between atoms: S_10  and  C_13 
REMARK    7  A    between atoms: C_24  and  O_25 
ROOT
ATOM      1  N   UNL d   1      24.417 -16.324  -2.734  0.00  0.00    -0.215 NA
ATOM      2  H   UNL d   1      24.639 -17.323  -2.763  0.00  0.00     0.139 HD
ENDROOT
BRANCH   1   3
ATOM      3  C   UNL d   1      25.698 -15.592  -2.753  0.00  0.00     0.109 C 
BRANCH   3   4
ATOM      4  C   UNL d   1      25.556 -14.071  -2.601  0.00  0.00     0.054 C 
BRANCH   4   5
ATOM      5  C   UNL d   1      26.086 -13.333  -3.820  0.00  0.00    -0.054 A 
ATOM      6  C   UNL d   1      25.620 -12.070  -4.166  0.00  0.00     0.010 A 
ATOM      7  C   UNL d   1      26.050 -11.462  -5.363  0.00  0.00     0.040 A 
ATOM      8  C   UNL d   1      27.021 -12.047  -6.211  0.00  0.00     0.101 A 
ATOM      9  C   UNL d   1      27.507 -13.312  -5.848  0.00  0.00     0.102 A 
ATOM     10  C   UNL d   1      27.032 -13.915  -4.672  0.00  0.00     0.046 A 
BRANCH   8  11
ATOM     11  O   UNL d   1      27.539 -11.149  -7.116  0.00  0.00    -0.353 OA
ATOM     12  C   UNL d   1      28.500 -11.503  -8.105  0.00  0.00     0.210 C 
ENDBRANCH   8  11
BRANCH   9  13
ATOM     13  O   UNL d   1      28.447 -14.152  -6.391  0.00  0.00    -0.353 OA
ATOM     14  C   UNL d   1      29.474 -14.532  -5.532  0.00  0.00     0.210 C 
ENDBRANCH   9  13
ENDBRANCH   4   5
ENDBRANCH   3   4
ENDBRANCH   1   3
BRANCH   1  15
ATOM     15  S   UNL d   1      23.537 -15.982  -1.256  0.00  0.00     0.241 S 
ATOM     16  O   UNL d   1      24.506 -15.434  -0.355  0.00  0.00    -0.206 OA
ATOM     17  O   UNL d   1      22.322 -15.267  -1.642  0.00  0.00    -0.206 OA
BRANCH  15  18
ATOM     18  C   UNL d   1      23.061 -17.582  -0.663  0.00  0.00     0.076 C 
ATOM     19  C   UNL d   1      23.799 -18.783  -0.747  0.00  0.00     0.026 C 
ATOM     20  C   UNL d   1      23.145 -20.074  -0.508  0.00  0.00     0.022 C 
ATOM     21  C   UNL d   1      21.764 -20.079  -0.153  0.00  0.00     0.021 C 
ATOM     22  C   UNL d   1      21.150 -18.852  -0.248  0.00  0.00     0.026 C 
ATOM     23  S   UNL d   1      20.202 -21.291   0.254  0.00  0.00    -0.127 SA
ATOM     24  C   UNL d   1      21.749 -17.638  -0.306  0.00  0.00     0.049 C 
ATOM     25  N   UNL d   1      19.905 -18.880  -0.901  0.00  0.00    -0.291 NA
ATOM     26  C   UNL d   1      18.840 -18.575  -0.010  0.00  0.00     0.103 C 
ATOM     27  H   UNL d   1      19.852 -19.915  -0.998  0.00  0.00     0.127 HD
ATOM     28  C   UNL d   1      18.396 -20.000   0.299  0.00  0.00     0.094 C 
ENDBRANCH  15  18
ENDBRANCH   1  15
TORSDOF 7
ENDMDL
MODEL 6
REMARK VINA RESULT:   -20.137      1.599      2.541
REMARK INTER + INTRA:         -23.032
REMARK INTER:                 -22.225
REMARK INTRA:                  -0.808
REMARK CONF_INDEPENDENT:        2.088
REMARK UNBOUND:                -0.808
REMARK  7 active torsions:
REMARK  status: ('A' for Active; 'I' for Inactive)
REMARK    1  A    between atoms: O_2  and  C_3 
REMARK    2  A    between atoms: C_6  and  C_7 
REMARK    3  A    between atoms: C_7  and  C_8 
REMARK    4  A    between atoms: C_8  and  N_9 
REMARK    5  A    between atoms: N_9  and  S_10 
REMARK    6  A    between atoms: S_10  and  C_13 
REMARK    7  A    between atoms: C_24  and  O_25 
ROOT
ATOM      1  N   UNL d   1      24.432 -16.308  -2.683  0.00  0.00    -0.215 NA
ATOM      2  H   UNL d   1      24.787 -17.267  -2.633  0.00  0.00     0.139 HD
ENDROOT
BRANCH   1   3
ATOM      3  C   UNL d   1      25.601 -15.414  -2.778  0.00  0.00     0.109 C 
BRANCH   3   4
ATOM      4  C   UNL d   1      25.571 -14.465  -3.985  0.00  0.00     0.054 C 
BRANCH   4   5
ATOM      5  C   UNL d   1      26.867 -14.525  -4.778  0.00  0.00    -0.054 A 
ATOM      6  C   UNL d   1      27.156 -13.596  -5.771  0.00  0.00     0.010 A 
ATOM      7  C   UNL d   1      28.313 -13.746  -6.563  0.00  0.00     0.040 A 
ATOM      8  C   UNL d   1      29.264 -14.771  -6.340  0.00  0.00     0.101 A 
ATOM      9  C   UNL d   1      28.981 -15.694  -5.322  0.00  0.00     0.102 A 
ATOM     10  C   UNL d   1      27.802 -15.547  -4.574  0.00  0.00     0.046 A 
BRANCH   8  11
ATOM     11  O   UNL d   1      30.458 -14.529  -6.981  0.00  0.00    -0.353 OA
ATOM     12  C   UNL d   1      31.501 -15.493  -7.078  0.00  0.00     0.210 C 
ENDBRANCH   8  11
BRANCH   9  13
ATOM     13  O   UNL d   1      29.660 -16.772  -4.813  0.00  0.00    -0.353 OA
ATOM     14  C   UNL d   1      29.797 -16.789  -3.428  0.00  0.00     0.210 C 
ENDBRANCH   9  13
ENDBRANCH   4   5
ENDBRANCH   3   4
ENDBRANCH   1   3
BRANCH   1  15
ATOM     15  S   UNL d   1      23.515 -15.967  -1.227  0.00  0.00     0.241 S 
ATOM     16  O   UNL d   1      24.460 -15.408  -0.307  0.00  0.00    -0.206 OA
ATOM     17  O   UNL d   1      22.305 -15.262  -1.644  0.00  0.00    -0.206 OA
BRANCH  15  18
ATOM     18  C   UNL d   1      23.037 -17.567  -0.639  0.00  0.00     0.076 C 
ATOM     19  C   UNL d   1      23.790 -18.761  -0.689  0.00  0.00     0.026 C 
ATOM     20  C   UNL d   1      23.143 -20.058  -0.462  0.00  0.00     0.022 C 
ATOM     21  C   UNL d   1      21.751 -20.075  -0.154  0.00  0.00     0.021 C 
ATOM     22  C   UNL d   1      21.127 -18.856  -0.279  0.00  0.00     0.026 C 
ATOM     23  S   UNL d   1      20.190 -21.301   0.209  0.00  0.00    -0.127 SA
ATOM     24  C   UNL d   1      21.715 -17.636  -0.326  0.00  0.00     0.049 C 
ATOM     25  N   UNL d   1      19.905 -18.903  -0.974  0.00  0.00    -0.291 NA
ATOM     26  C   UNL d   1      18.807 -18.603  -0.121  0.00  0.00     0.103 C 
ATOM     27  H   UNL d   1      19.866 -19.939  -1.065  0.00  0.00     0.127 HD
ATOM     28  C   UNL d   1      18.369 -20.031   0.184  0.00  0.00     0.094 C 
ENDBRANCH  15  18
ENDBRANCH   1  15
TORSDOF 7
ENDMDL
MODEL 7
REMARK VINA RESULT:   -19.816      2.400      2.861
REMARK INTER + INTRA:         -22.668
REMARK INTER:                 -21.904
REMARK INTRA:                  -0.763
REMARK CONF_INDEPENDENT:        2.088
REMARK UNBOUND:                -0.763
REMARK  7 active torsions:
REMARK  status: ('A' for Active; 'I' for Inactive)
REMARK    1  A    between atoms: O_2  and  C_3 
REMARK    2  A    between atoms: C_6  and  C_7 
REMARK    3  A    between atoms: C_7  and  C_8 
REMARK    4  A    between atoms: C_8  and  N_9 
REMARK    5  A    between atoms: N_9  and  S_10 
REMARK    6  A    between atoms: S_10  and  C_13 
REMARK    7  A    between atoms: C_24  and  O_25 
ROOT
ATOM      1  N   UNL d   1      24.431 -16.321  -2.712  0.00  0.00    -0.215 NA
ATOM      2  H   UNL d   1      24.890 -17.231  -2.616  0.00  0.00     0.139 HD
ENDROOT
BRANCH   1   3
ATOM      3  C   UNL d   1      25.492 -15.317  -2.916  0.00  0.00     0.109 C 
BRANCH   3   4
ATOM      4  C   UNL d   1      26.105 -15.327  -4.323  0.00  0.00     0.054 C 
BRANCH   4   5
ATOM      5  C   UNL d   1      26.454 -13.923  -4.793  0.00  0.00    -0.054 A 
ATOM      6  C   UNL d   1      27.148 -13.704  -5.978  0.00  0.00     0.010 A 
ATOM      7  C   UNL d   1      27.553 -12.400  -6.328  0.00  0.00     0.040 A 
ATOM      8  C   UNL d   1      27.209 -11.261  -5.560  0.00  0.00     0.101 A 
ATOM      9  C   UNL d   1      26.489 -11.483  -4.377  0.00  0.00     0.102 A 
ATOM     10  C   UNL d   1      26.132 -12.795  -4.029  0.00  0.00     0.046 A 
BRANCH   8  11
ATOM     11  O   UNL d   1      27.400 -10.085  -6.250  0.00  0.00    -0.353 OA
ATOM     12  C   UNL d   1      26.633  -9.717  -7.392  0.00  0.00     0.210 C 
ENDBRANCH   8  11
BRANCH   9  13
ATOM     13  O   UNL d   1      25.969 -10.648  -3.420  0.00  0.00    -0.353 OA
ATOM     14  C   UNL d   1      26.404  -9.327  -3.482  0.00  0.00     0.210 C 
ENDBRANCH   9  13
ENDBRANCH   4   5
ENDBRANCH   3   4
ENDBRANCH   1   3
BRANCH   1  15
ATOM     15  S   UNL d   1      23.537 -15.980  -1.242  0.00  0.00     0.241 S 
ATOM     16  O   UNL d   1      24.498 -15.428  -0.334  0.00  0.00    -0.206 OA
ATOM     17  O   UNL d   1      22.324 -15.268  -1.639  0.00  0.00    -0.206 OA
BRANCH  15  18
ATOM     18  C   UNL d   1      23.060 -17.580  -0.650  0.00  0.00     0.076 C 
ATOM     19  C   UNL d   1      23.799 -18.781  -0.733  0.00  0.00     0.026 C 
ATOM     20  C   UNL d   1      23.145 -20.072  -0.496  0.00  0.00     0.022 C 
ATOM     21  C   UNL d   1      21.763 -20.078  -0.144  0.00  0.00     0.021 C 
ATOM     22  C   UNL d   1      21.149 -18.850  -0.241  0.00  0.00     0.026 C 
ATOM     23  S   UNL d   1      20.201 -21.290   0.258  0.00  0.00    -0.127 SA
ATOM     24  C   UNL d   1      21.748 -17.636  -0.297  0.00  0.00     0.049 C 
ATOM     25  N   UNL d   1      19.905 -18.879  -0.897  0.00  0.00    -0.291 NA
ATOM     26  C   UNL d   1      18.838 -18.574  -0.008  0.00  0.00     0.103 C 
ATOM     27  H   UNL d   1      19.853 -19.914  -0.995  0.00  0.00     0.127 HD
ATOM     28  C   UNL d   1      18.394 -20.000   0.299  0.00  0.00     0.094 C 
ENDBRANCH  15  18
ENDBRANCH   1  15
TORSDOF 7
ENDMDL
MODEL 8
REMARK VINA RESULT:   -19.693      2.774      3.665
REMARK INTER + INTRA:         -22.787
REMARK INTER:                 -21.781
REMARK INTRA:                  -1.005
REMARK CONF_INDEPENDENT:        2.088
REMARK UNBOUND:                -1.005
REMARK  7 active torsions:
REMARK  status: ('A' for Active; 'I' for Inactive)
REMARK    1  A    between atoms: O_2  and  C_3 
REMARK    2  A    between atoms: C_6  and  C_7 
REMARK    3  A    between atoms: C_7  and  C_8 
REMARK    4  A    between atoms: C_8  and  N_9 
REMARK    5  A    between atoms: N_9  and  S_10 
REMARK    6  A    between atoms: S_10  and  C_13 
REMARK    7  A    between atoms: C_24  and  O_25 
ROOT
ATOM      1  N   UNL d   1      24.401 -16.394  -2.752  0.00  0.00    -0.215 NA
ATOM      2  H   UNL d   1      24.751 -17.354  -2.694  0.00  0.00     0.139 HD
ENDROOT
BRANCH   1   3
ATOM      3  C   UNL d   1      25.571 -15.511  -2.918  0.00  0.00     0.109 C 
BRANCH   3   4
ATOM      4  C   UNL d   1      25.303 -14.267  -3.777  0.00  0.00     0.054 C 
BRANCH   4   5
ATOM      5  C   UNL d   1      25.906 -13.017  -3.156  0.00  0.00    -0.054 A 
ATOM      6  C   UNL d   1      25.784 -11.771  -3.763  0.00  0.00     0.010 A 
ATOM      7  C   UNL d   1      26.448 -10.654  -3.220  0.00  0.00     0.040 A 
ATOM      8  C   UNL d   1      27.184 -10.714  -2.011  0.00  0.00     0.101 A 
ATOM      9  C   UNL d   1      27.286 -11.967  -1.389  0.00  0.00     0.102 A 
ATOM     10  C   UNL d   1      26.649 -13.074  -1.971  0.00  0.00     0.046 A 
BRANCH   8  11
ATOM     11  O   UNL d   1      27.448  -9.467  -1.493  0.00  0.00    -0.353 OA
ATOM     12  C   UNL d   1      26.481  -8.422  -1.440  0.00  0.00     0.210 C 
ENDBRANCH   8  11
BRANCH   9  13
ATOM     13  O   UNL d   1      27.874 -12.396  -0.225  0.00  0.00    -0.353 OA
ATOM     14  C   UNL d   1      26.995 -12.709   0.807  0.00  0.00     0.210 C 
ENDBRANCH   9  13
ENDBRANCH   4   5
ENDBRANCH   3   4
ENDBRANCH   1   3
BRANCH   1  15
ATOM     15  S   UNL d   1      23.549 -16.012  -1.267  0.00  0.00     0.241 S 
ATOM     16  O   UNL d   1      24.545 -15.482  -0.385  0.00  0.00    -0.206 OA
ATOM     17  O   UNL d   1      22.350 -15.266  -1.647  0.00  0.00    -0.206 OA
BRANCH  15  18
ATOM     18  C   UNL d   1      23.035 -17.591  -0.651  0.00  0.00     0.076 C 
ATOM     19  C   UNL d   1      23.779 -18.791  -0.641  0.00  0.00     0.026 C 
ATOM     20  C   UNL d   1      23.112 -20.076  -0.400  0.00  0.00     0.022 C 
ATOM     21  C   UNL d   1      21.710 -20.073  -0.142  0.00  0.00     0.021 C 
ATOM     22  C   UNL d   1      21.102 -18.853  -0.324  0.00  0.00     0.026 C 
ATOM     23  S   UNL d   1      20.125 -21.275   0.199  0.00  0.00    -0.127 SA
ATOM     24  C   UNL d   1      21.702 -17.639  -0.384  0.00  0.00     0.049 C 
ATOM     25  N   UNL d   1      19.905 -18.910  -1.060  0.00  0.00    -0.291 NA
ATOM     26  C   UNL d   1      18.780 -18.576  -0.256  0.00  0.00     0.103 C 
ATOM     27  H   UNL d   1      19.860 -19.947  -1.123  0.00  0.00     0.127 HD
ATOM     28  C   UNL d   1      18.318 -19.991   0.073  0.00  0.00     0.094 C 
ENDBRANCH  15  18
ENDBRANCH   1  15
TORSDOF 7
ENDMDL
MODEL 9
REMARK VINA RESULT:   -19.644      2.797      3.405
REMARK INTER + INTRA:         -22.572
REMARK INTER:                 -21.732
REMARK INTRA:                  -0.841
REMARK CONF_INDEPENDENT:        2.088
REMARK UNBOUND:                -0.841
REMARK  7 active torsions:
REMARK  status: ('A' for Active; 'I' for Inactive)
REMARK    1  A    between atoms: O_2  and  C_3 
REMARK    2  A    between atoms: C_6  and  C_7 
REMARK    3  A    between atoms: C_7  and  C_8 
REMARK    4  A    between atoms: C_8  and  N_9 
REMARK    5  A    between atoms: N_9  and  S_10 
REMARK    6  A    between atoms: S_10  and  C_13 
REMARK    7  A    between atoms: C_24  and  O_25 
ROOT
ATOM      1  N   UNL d   1      24.440 -16.329  -2.708  0.00  0.00    -0.215 NA
ATOM      2  H   UNL d   1      24.962 -17.199  -2.579  0.00  0.00     0.139 HD
ENDROOT
BRANCH   1   3
ATOM      3  C   UNL d   1      25.426 -15.263  -2.970  0.00  0.00     0.109 C 
BRANCH   3   4
ATOM      4  C   UNL d   1      24.858 -14.053  -3.725  0.00  0.00     0.054 C 
BRANCH   4   5
ATOM      5  C   UNL d   1      25.713 -12.812  -3.520  0.00  0.00    -0.054 A 
ATOM      6  C   UNL d   1      26.228 -12.481  -2.272  0.00  0.00     0.010 A 
ATOM      7  C   UNL d   1      26.921 -11.267  -2.093  0.00  0.00     0.040 A 
ATOM      8  C   UNL d   1      27.204 -10.384  -3.164  0.00  0.00     0.101 A 
ATOM      9  C   UNL d   1      26.703 -10.732  -4.427  0.00  0.00     0.102 A 
ATOM     10  C   UNL d   1      25.980 -11.927  -4.571  0.00  0.00     0.046 A 
BRANCH   8  11
ATOM     11  O   UNL d   1      28.169  -9.457  -2.840  0.00  0.00    -0.353 OA
ATOM     12  C   UNL d   1      27.866  -8.154  -2.351  0.00  0.00     0.210 C 
ENDBRANCH   8  11
BRANCH   9  13
ATOM     13  O   UNL d   1      26.798 -10.156  -5.669  0.00  0.00    -0.353 OA
ATOM     14  C   UNL d   1      26.544 -11.006  -6.741  0.00  0.00     0.210 C 
ENDBRANCH   9  13
ENDBRANCH   4   5
ENDBRANCH   3   4
ENDBRANCH   1   3
BRANCH   1  15
ATOM     15  S   UNL d   1      23.540 -15.986  -1.242  0.00  0.00     0.241 S 
ATOM     16  O   UNL d   1      24.496 -15.432  -0.331  0.00  0.00    -0.206 OA
ATOM     17  O   UNL d   1      22.328 -15.275  -1.646  0.00  0.00    -0.206 OA
BRANCH  15  18
ATOM     18  C   UNL d   1      23.061 -17.585  -0.650  0.00  0.00     0.076 C 
ATOM     19  C   UNL d   1      23.799 -18.786  -0.734  0.00  0.00     0.026 C 
ATOM     20  C   UNL d   1      23.144 -20.077  -0.496  0.00  0.00     0.022 C 
ATOM     21  C   UNL d   1      21.762 -20.081  -0.143  0.00  0.00     0.021 C 
ATOM     22  C   UNL d   1      21.149 -18.854  -0.240  0.00  0.00     0.026 C 
ATOM     23  S   UNL d   1      20.198 -21.292   0.260  0.00  0.00    -0.127 SA
ATOM     24  C   UNL d   1      21.749 -17.640  -0.296  0.00  0.00     0.049 C 
ATOM     25  N   UNL d   1      19.905 -18.881  -0.895  0.00  0.00    -0.291 NA
ATOM     26  C   UNL d   1      18.838 -18.575  -0.006  0.00  0.00     0.103 C 
ATOM     27  H   UNL d   1      19.851 -19.916  -0.993  0.00  0.00     0.127 HD
ATOM     28  C   UNL d   1      18.393 -20.000   0.302  0.00  0.00     0.094 C 
ENDBRANCH  15  18
ENDBRANCH   1  15
TORSDOF 7
ENDMDL
