MODEL 1
REMARK VINA RESULT:    -7.887      0.000      0.000
REMARK INTER + INTRA:         -11.790
REMARK INTER:                  -9.975
REMARK INTRA:                  -1.814
REMARK CONF_INDEPENDENT:        2.088
REMARK UNBOUND:                -1.814
REMARK  7 active torsions:
REMARK  status: ('A' for Active; 'I' for Inactive)
REMARK    1  A    between atoms: C_4  and  C_2 
REMARK    2  A    between atoms: C_4  and  C_14 
REMARK    3  A    between atoms: C_4  and  O_5 
REMARK    4  A    between atoms: O_5  and  C_6 
REMARK       I    between atoms: C_14  and  N_16 
REMARK    5  A    between atoms: N_16  and  C_17 
REMARK    6  A    between atoms: C_20  and  C_21 
REMARK    7  A    between atoms: C_21  and  N_22 
REMARK       I    between atoms: N_22  and  C_23 
REMARK       I    between atoms: C_23  and  N_24 
ROOT
ATOM      1  C   UNL d   1      29.163 -15.645  -5.128  0.00  0.00     0.090 A 
ATOM      2  C   UNL d   1      29.882 -15.376  -6.308  0.00  0.00     0.038 A 
ATOM      3  C   UNL d   1      31.176 -15.869  -6.510  0.00  0.00     0.003 A 
ATOM      4  C   UNL d   1      31.829 -16.541  -5.489  0.00  0.00     0.002 A 
ATOM      5  C   UNL d   1      31.165 -16.765  -4.281  0.00  0.00     0.025 A 
ATOM      6  C   UNL d   1      29.835 -16.325  -4.090  0.00  0.00     0.077 A 
ATOM      7  C   UNL d   1      29.195 -16.622  -2.844  0.00  0.00     0.102 C 
ATOM      8  N   UNL d   1      28.742 -16.860  -1.792  0.00  0.00    -0.191 NA
ENDROOT
BRANCH   1   9
ATOM      9  O   UNL d   1      27.791 -15.498  -5.021  0.00  0.00    -0.335 OA
BRANCH   9  10
ATOM     10  C   UNL d   1      27.158 -14.464  -4.187  0.00  0.00     0.224 C 
BRANCH  10  11
ATOM     11  C   UNL d   1      25.921 -15.089  -3.488  0.00  0.00     0.252 C 
ATOM     12  O   UNL d   1      24.782 -14.868  -3.899  0.00  0.00    -0.270 OA
ATOM     13  N   UNL d   1      26.184 -15.897  -2.375  0.00  0.00    -0.325 N 
ATOM     14  H   UNL d   1      27.114 -15.961  -1.987  0.00  0.00     0.169 HD
BRANCH  13  15
ATOM     15  C   UNL d   1      25.157 -16.566  -1.668  0.00  0.00     0.034 A 
ATOM     16  C   UNL d   1      25.319 -17.867  -1.184  0.00  0.00     0.030 A 
ATOM     17  C   UNL d   1      24.244 -18.522  -0.552  0.00  0.00     0.011 A 
ATOM     18  C   UNL d   1      23.017 -17.866  -0.340  0.00  0.00    -0.040 A 
ATOM     19  C   UNL d   1      22.873 -16.581  -0.866  0.00  0.00     0.011 A 
ATOM     20  C   UNL d   1      23.927 -15.940  -1.507  0.00  0.00     0.030 A 
BRANCH  18  21
ATOM     21  C   UNL d   1      21.939 -18.534   0.488  0.00  0.00     0.162 C 
BRANCH  21  22
ATOM     22  N   UNL d   1      20.725 -18.876  -0.229  0.00  0.00    -0.339 N 
ATOM     23  C   UNL d   1      19.904 -19.924  -0.044  0.00  0.00     0.314 C 
ATOM     24  N   UNL d   1      20.229 -20.799   0.922  0.00  0.00    -0.352 N 
ATOM     25  O   UNL d   1      18.905 -20.075  -0.735  0.00  0.00    -0.248 OA
ATOM     26  H   UNL d   1      21.024 -20.687   1.526  0.00  0.00     0.160 HD
ATOM     27  H   UNL d   1      19.607 -21.581   1.065  0.00  0.00     0.160 HD
ATOM     28  H   UNL d   1      20.374 -18.268  -0.952  0.00  0.00     0.164 HD
ENDBRANCH  21  22
ENDBRANCH  18  21
ENDBRANCH  13  15
ENDBRANCH  10  11
BRANCH  10  29
ATOM     29  C   UNL d   1      26.811 -13.145  -4.962  0.00  0.00     0.016 C 
ATOM     30  C   UNL d   1      27.827 -12.200  -5.611  0.00  0.00     0.012 C 
ATOM     31  C   UNL d   1      25.968 -12.195  -4.101  0.00  0.00     0.012 C 
ENDBRANCH  10  29
ENDBRANCH   9  10
ENDBRANCH   1   9
TORSDOF 7
ENDMDL
MODEL 2
REMARK VINA RESULT:    -7.732      2.462      3.628
REMARK INTER + INTRA:         -12.247
REMARK INTER:                  -9.821
REMARK INTRA:                  -2.427
REMARK CONF_INDEPENDENT:        2.088
REMARK UNBOUND:                -2.427
REMARK  7 active torsions:
REMARK  status: ('A' for Active; 'I' for Inactive)
REMARK    1  A    between atoms: C_4  and  C_2 
REMARK    2  A    between atoms: C_4  and  C_14 
REMARK    3  A    between atoms: C_4  and  O_5 
REMARK    4  A    between atoms: O_5  and  C_6 
REMARK       I    between atoms: C_14  and  N_16 
REMARK    5  A    between atoms: N_16  and  C_17 
REMARK    6  A    between atoms: C_20  and  C_21 
REMARK    7  A    between atoms: C_21  and  N_22 
REMARK       I    between atoms: N_22  and  C_23 
REMARK       I    between atoms: C_23  and  N_24 
ROOT
ATOM      1  C   UNL d   1      27.636 -14.783  -2.961  0.00  0.00     0.090 A 
ATOM      2  C   UNL d   1      28.958 -15.057  -3.356  0.00  0.00     0.038 A 
ATOM      3  C   UNL d   1      29.322 -15.139  -4.704  0.00  0.00     0.003 A 
ATOM      4  C   UNL d   1      28.350 -15.070  -5.690  0.00  0.00     0.002 A 
ATOM      5  C   UNL d   1      27.018 -14.866  -5.326  0.00  0.00     0.025 A 
ATOM      6  C   UNL d   1      26.649 -14.718  -3.969  0.00  0.00     0.077 A 
ATOM      7  C   UNL d   1      25.273 -14.470  -3.663  0.00  0.00     0.102 C 
ATOM      8  N   UNL d   1      24.129 -14.309  -3.476  0.00  0.00    -0.191 NA
ENDROOT
BRANCH   1   9
ATOM      9  O   UNL d   1      27.294 -14.343  -1.695  0.00  0.00    -0.335 OA
BRANCH   9  10
ATOM     10  C   UNL d   1      27.607 -15.100  -0.471  0.00  0.00     0.224 C 
BRANCH  10  11
ATOM     11  C   UNL d   1      26.501 -16.169  -0.261  0.00  0.00     0.252 C 
ATOM     12  O   UNL d   1      26.688 -17.136   0.477  0.00  0.00    -0.270 OA
ATOM     13  N   UNL d   1      25.306 -15.966  -0.962  0.00  0.00    -0.325 N 
ATOM     14  H   UNL d   1      25.226 -15.234  -1.652  0.00  0.00     0.169 HD
BRANCH  13  15
ATOM     15  C   UNL d   1      24.197 -16.836  -0.831  0.00  0.00     0.034 A 
ATOM     16  C   UNL d   1      24.355 -18.211  -0.642  0.00  0.00     0.030 A 
ATOM     17  C   UNL d   1      23.224 -19.049  -0.592  0.00  0.00     0.011 A 
ATOM     18  C   UNL d   1      21.922 -18.518  -0.670  0.00  0.00    -0.040 A 
ATOM     19  C   UNL d   1      21.797 -17.145  -0.895  0.00  0.00     0.011 A 
ATOM     20  C   UNL d   1      22.914 -16.320  -0.962  0.00  0.00     0.030 A 
BRANCH  18  21
ATOM     21  C   UNL d   1      20.727 -19.420  -0.446  0.00  0.00     0.162 C 
BRANCH  21  22
ATOM     22  N   UNL d   1      20.149 -19.371   0.884  0.00  0.00    -0.339 N 
ATOM     23  C   UNL d   1      19.335 -20.258   1.482  0.00  0.00     0.314 C 
ATOM     24  N   UNL d   1      18.980 -21.344   0.775  0.00  0.00    -0.352 N 
ATOM     25  O   UNL d   1      18.930 -20.076   2.623  0.00  0.00    -0.248 OA
ATOM     26  H   UNL d   1      19.320 -21.538  -0.150  0.00  0.00     0.160 HD
ATOM     27  H   UNL d   1      18.375 -22.012   1.228  0.00  0.00     0.160 HD
ATOM     28  H   UNL d   1      20.378 -18.615   1.509  0.00  0.00     0.164 HD
ENDBRANCH  21  22
ENDBRANCH  18  21
ENDBRANCH  13  15
ENDBRANCH  10  11
BRANCH  10  29
ATOM     29  C   UNL d   1      27.825 -14.200   0.795  0.00  0.00     0.016 C 
ATOM     30  C   UNL d   1      28.176 -14.707   2.198  0.00  0.00     0.012 C 
ATOM     31  C   UNL d   1      26.613 -13.297   1.056  0.00  0.00     0.012 C 
ENDBRANCH  10  29
ENDBRANCH   9  10
ENDBRANCH   1   9
TORSDOF 7
ENDMDL
MODEL 3
REMARK VINA RESULT:    -7.396      1.676      4.235
REMARK INTER + INTRA:         -12.002
REMARK INTER:                  -9.484
REMARK INTRA:                  -2.518
REMARK CONF_INDEPENDENT:        2.088
REMARK UNBOUND:                -2.518
REMARK  7 active torsions:
REMARK  status: ('A' for Active; 'I' for Inactive)
REMARK    1  A    between atoms: C_4  and  C_2 
REMARK    2  A    between atoms: C_4  and  C_14 
REMARK    3  A    between atoms: C_4  and  O_5 
REMARK    4  A    between atoms: O_5  and  C_6 
REMARK       I    between atoms: C_14  and  N_16 
REMARK    5  A    between atoms: N_16  and  C_17 
REMARK    6  A    between atoms: C_20  and  C_21 
REMARK    7  A    between atoms: C_21  and  N_22 
REMARK       I    between atoms: N_22  and  C_23 
REMARK       I    between atoms: C_23  and  N_24 
ROOT
ATOM      1  C   UNL d   1      26.977 -11.816  -4.728  0.00  0.00     0.090 A 
ATOM      2  C   UNL d   1      26.591 -11.123  -5.889  0.00  0.00     0.038 A 
ATOM      3  C   UNL d   1      25.812  -9.962  -5.830  0.00  0.00     0.003 A 
ATOM      4  C   UNL d   1      25.297  -9.534  -4.615  0.00  0.00     0.002 A 
ATOM      5  C   UNL d   1      25.608 -10.241  -3.452  0.00  0.00     0.025 A 
ATOM      6  C   UNL d   1      26.447 -11.379  -3.495  0.00  0.00     0.077 A 
ATOM      7  C   UNL d   1      26.762 -12.036  -2.262  0.00  0.00     0.102 C 
ATOM      8  N   UNL d   1      26.949 -12.551  -1.229  0.00  0.00    -0.191 NA
ENDROOT
BRANCH   1   9
ATOM      9  O   UNL d   1      28.014 -12.731  -4.695  0.00  0.00    -0.335 OA
BRANCH   9  10
ATOM     10  C   UNL d   1      27.969 -14.020  -5.406  0.00  0.00     0.224 C 
BRANCH  10  11
ATOM     11  C   UNL d   1      26.901 -14.917  -4.724  0.00  0.00     0.252 C 
ATOM     12  O   UNL d   1      26.219 -15.702  -5.382  0.00  0.00    -0.270 OA
ATOM     13  N   UNL d   1      26.763 -14.767  -3.339  0.00  0.00    -0.325 N 
ATOM     14  H   UNL d   1      27.246 -14.030  -2.845  0.00  0.00     0.169 HD
BRANCH  13  15
ATOM     15  C   UNL d   1      25.861 -15.550  -2.580  0.00  0.00     0.034 A 
ATOM     16  C   UNL d   1      24.523 -15.182  -2.413  0.00  0.00     0.030 A 
ATOM     17  C   UNL d   1      23.679 -15.952  -1.588  0.00  0.00     0.011 A 
ATOM     18  C   UNL d   1      24.143 -17.129  -0.971  0.00  0.00    -0.040 A 
ATOM     19  C   UNL d   1      25.493 -17.451  -1.128  0.00  0.00     0.011 A 
ATOM     20  C   UNL d   1      26.331 -16.682  -1.927  0.00  0.00     0.030 A 
BRANCH  18  21
ATOM     21  C   UNL d   1      23.173 -18.023  -0.229  0.00  0.00     0.162 C 
BRANCH  21  22
ATOM     22  N   UNL d   1      22.089 -18.565  -1.027  0.00  0.00    -0.339 N 
ATOM     23  C   UNL d   1      21.053 -19.326  -0.634  0.00  0.00     0.314 C 
ATOM     24  N   UNL d   1      20.987 -19.656   0.666  0.00  0.00    -0.352 N 
ATOM     25  O   UNL d   1      20.208 -19.706  -1.435  0.00  0.00    -0.248 OA
ATOM     26  H   UNL d   1      21.647 -19.335   1.353  0.00  0.00     0.160 HD
ATOM     27  H   UNL d   1      20.204 -20.221   0.960  0.00  0.00     0.160 HD
ATOM     28  H   UNL d   1      22.025 -18.349  -2.009  0.00  0.00     0.164 HD
ENDBRANCH  21  22
ENDBRANCH  18  21
ENDBRANCH  13  15
ENDBRANCH  10  11
BRANCH  10  29
ATOM     29  C   UNL d   1      29.363 -14.729  -5.529  0.00  0.00     0.016 C 
ATOM     30  C   UNL d   1      29.714 -15.835  -6.530  0.00  0.00     0.012 C 
ATOM     31  C   UNL d   1      29.804 -15.332  -4.189  0.00  0.00     0.012 C 
ENDBRANCH  10  29
ENDBRANCH   9  10
ENDBRANCH   1   9
TORSDOF 7
ENDMDL
MODEL 4
REMARK VINA RESULT:    -7.238      3.476      7.842
REMARK INTER + INTRA:         -11.903
REMARK INTER:                  -9.326
REMARK INTRA:                  -2.577
REMARK CONF_INDEPENDENT:        2.088
REMARK UNBOUND:                -2.577
REMARK  7 active torsions:
REMARK  status: ('A' for Active; 'I' for Inactive)
REMARK    1  A    between atoms: C_4  and  C_2 
REMARK    2  A    between atoms: C_4  and  C_14 
REMARK    3  A    between atoms: C_4  and  O_5 
REMARK    4  A    between atoms: O_5  and  C_6 
REMARK       I    between atoms: C_14  and  N_16 
REMARK    5  A    between atoms: N_16  and  C_17 
REMARK    6  A    between atoms: C_20  and  C_21 
REMARK    7  A    between atoms: C_21  and  N_22 
REMARK       I    between atoms: N_22  and  C_23 
REMARK       I    between atoms: C_23  and  N_24 
ROOT
ATOM      1  C   UNL d   1      25.596 -16.093  -1.656  0.00  0.00     0.090 A 
ATOM      2  C   UNL d   1      24.259 -16.447  -1.397  0.00  0.00     0.038 A 
ATOM      3  C   UNL d   1      23.927 -17.442  -0.471  0.00  0.00     0.003 A 
ATOM      4  C   UNL d   1      24.927 -18.191   0.130  0.00  0.00     0.002 A 
ATOM      5  C   UNL d   1      26.263 -17.907  -0.158  0.00  0.00     0.025 A 
ATOM      6  C   UNL d   1      26.610 -16.861  -1.045  0.00  0.00     0.077 A 
ATOM      7  C   UNL d   1      27.998 -16.593  -1.267  0.00  0.00     0.102 C 
ATOM      8  N   UNL d   1      29.147 -16.449  -1.438  0.00  0.00    -0.191 NA
ENDROOT
BRANCH   1   9
ATOM      9  O   UNL d   1      25.966 -14.909  -2.269  0.00  0.00    -0.335 OA
BRANCH   9  10
ATOM     10  C   UNL d   1      25.585 -14.568  -3.650  0.00  0.00     0.224 C 
BRANCH  10  11
ATOM     11  C   UNL d   1      26.608 -15.224  -4.615  0.00  0.00     0.252 C 
ATOM     12  O   UNL d   1      26.295 -15.510  -5.771  0.00  0.00    -0.270 OA
ATOM     13  N   UNL d   1      27.881 -15.472  -4.089  0.00  0.00    -0.325 N 
ATOM     14  H   UNL d   1      28.072 -15.341  -3.106  0.00  0.00     0.169 HD
BRANCH  13  15
ATOM     15  C   UNL d   1      28.926 -16.025  -4.867  0.00  0.00     0.034 A 
ATOM     16  C   UNL d   1      29.673 -17.121  -4.429  0.00  0.00     0.030 A 
ATOM     17  C   UNL d   1      30.753 -17.592  -5.203  0.00  0.00     0.011 A 
ATOM     18  C   UNL d   1      31.060 -17.013  -6.449  0.00  0.00    -0.040 A 
ATOM     19  C   UNL d   1      30.319 -15.897  -6.843  0.00  0.00     0.011 A 
ATOM     20  C   UNL d   1      29.265 -15.421  -6.072  0.00  0.00     0.030 A 
BRANCH  18  21
ATOM     21  C   UNL d   1      32.115 -17.644  -7.332  0.00  0.00     0.162 C 
BRANCH  21  22
ATOM     22  N   UNL d   1      31.623 -18.258  -8.551  0.00  0.00    -0.339 N 
ATOM     23  C   UNL d   1      30.782 -19.298  -8.691  0.00  0.00     0.314 C 
ATOM     24  N   UNL d   1      30.325 -19.876  -7.568  0.00  0.00    -0.352 N 
ATOM     25  O   UNL d   1      30.454 -19.702  -9.799  0.00  0.00    -0.248 OA
ATOM     26  H   UNL d   1      30.550 -19.550  -6.645  0.00  0.00     0.160 HD
ATOM     27  H   UNL d   1      29.688 -20.652  -7.675  0.00  0.00     0.160 HD
ATOM     28  H   UNL d   1      31.878 -17.879  -9.449  0.00  0.00     0.164 HD
ENDBRANCH  21  22
ENDBRANCH  18  21
ENDBRANCH  13  15
ENDBRANCH  10  11
BRANCH  10  29
ATOM     29  C   UNL d   1      25.418 -13.028  -3.903  0.00  0.00     0.016 C 
ATOM     30  C   UNL d   1      25.905 -12.272  -5.143  0.00  0.00     0.012 C 
ATOM     31  C   UNL d   1      26.009 -12.205  -2.751  0.00  0.00     0.012 C 
ENDBRANCH  10  29
ENDBRANCH   9  10
ENDBRANCH   1   9
TORSDOF 7
ENDMDL
MODEL 5
REMARK VINA RESULT:    -6.701      1.954      2.505
REMARK INTER + INTRA:         -11.020
REMARK INTER:                  -8.789
REMARK INTRA:                  -2.232
REMARK CONF_INDEPENDENT:        2.088
REMARK UNBOUND:                -2.232
REMARK  7 active torsions:
REMARK  status: ('A' for Active; 'I' for Inactive)
REMARK    1  A    between atoms: C_4  and  C_2 
REMARK    2  A    between atoms: C_4  and  C_14 
REMARK    3  A    between atoms: C_4  and  O_5 
REMARK    4  A    between atoms: O_5  and  C_6 
REMARK       I    between atoms: C_14  and  N_16 
REMARK    5  A    between atoms: N_16  and  C_17 
REMARK    6  A    between atoms: C_20  and  C_21 
REMARK    7  A    between atoms: C_21  and  N_22 
REMARK       I    between atoms: N_22  and  C_23 
REMARK       I    between atoms: C_23  and  N_24 
ROOT
ATOM      1  C   UNL d   1      30.178 -15.096  -4.253  0.00  0.00     0.090 A 
ATOM      2  C   UNL d   1      31.537 -14.752  -4.371  0.00  0.00     0.038 A 
ATOM      3  C   UNL d   1      32.033 -14.086  -5.497  0.00  0.00     0.003 A 
ATOM      4  C   UNL d   1      31.207 -13.855  -6.586  0.00  0.00     0.002 A 
ATOM      5  C   UNL d   1      29.867 -14.244  -6.524  0.00  0.00     0.025 A 
ATOM      6  C   UNL d   1      29.341 -14.862  -5.365  0.00  0.00     0.077 A 
ATOM      7  C   UNL d   1      27.951 -15.200  -5.349  0.00  0.00     0.102 C 
ATOM      8  N   UNL d   1      26.818 -15.488  -5.412  0.00  0.00    -0.191 NA
ENDROOT
BRANCH   1   9
ATOM      9  O   UNL d   1      29.575 -15.418  -3.050  0.00  0.00    -0.335 OA
BRANCH   9  10
ATOM     10  C   UNL d   1      29.088 -14.404  -2.100  0.00  0.00     0.224 C 
BRANCH  10  11
ATOM     11  C   UNL d   1      27.839 -14.973  -1.375  0.00  0.00     0.252 C 
ATOM     12  O   UNL d   1      27.436 -14.475  -0.324  0.00  0.00    -0.270 OA
ATOM     13  N   UNL d   1      27.224 -16.076  -1.979  0.00  0.00    -0.325 N 
ATOM     14  H   UNL d   1      27.647 -16.538  -2.771  0.00  0.00     0.169 HD
BRANCH  13  15
ATOM     15  C   UNL d   1      26.052 -16.669  -1.452  0.00  0.00     0.034 A 
ATOM     16  C   UNL d   1      24.777 -16.295  -1.882  0.00  0.00     0.030 A 
ATOM     17  C   UNL d   1      23.636 -16.859  -1.277  0.00  0.00     0.011 A 
ATOM     18  C   UNL d   1      23.756 -17.846  -0.281  0.00  0.00    -0.040 A 
ATOM     19  C   UNL d   1      25.042 -18.174   0.153  0.00  0.00     0.011 A 
ATOM     20  C   UNL d   1      26.168 -17.604  -0.431  0.00  0.00     0.030 A 
BRANCH  18  21
ATOM     21  C   UNL d   1      22.518 -18.553   0.232  0.00  0.00     0.162 C 
BRANCH  21  22
ATOM     22  N   UNL d   1      21.469 -18.760  -0.748  0.00  0.00    -0.339 N 
ATOM     23  C   UNL d   1      20.463 -19.652  -0.729  0.00  0.00     0.314 C 
ATOM     24  N   UNL d   1      20.397 -20.485   0.322  0.00  0.00    -0.352 N 
ATOM     25  O   UNL d   1      19.644 -19.702  -1.639  0.00  0.00    -0.248 OA
ATOM     26  H   UNL d   1      21.033 -20.449   1.098  0.00  0.00     0.160 HD
ATOM     27  H   UNL d   1      19.637 -21.149   0.338  0.00  0.00     0.160 HD
ATOM     28  H   UNL d   1      21.406 -18.165  -1.559  0.00  0.00     0.164 HD
ENDBRANCH  21  22
ENDBRANCH  18  21
ENDBRANCH  13  15
ENDBRANCH  10  11
BRANCH  10  29
ATOM     29  C   UNL d   1      28.821 -13.000  -2.749  0.00  0.00     0.016 C 
ATOM     30  C   UNL d   1      29.668 -11.743  -2.531  0.00  0.00     0.012 C 
ATOM     31  C   UNL d   1      27.399 -12.507  -2.450  0.00  0.00     0.012 C 
ENDBRANCH  10  29
ENDBRANCH   9  10
ENDBRANCH   1   9
TORSDOF 7
ENDMDL
MODEL 6
REMARK VINA RESULT:    -6.633      2.577      3.844
REMARK INTER + INTRA:         -11.353
REMARK INTER:                  -8.722
REMARK INTRA:                  -2.631
REMARK CONF_INDEPENDENT:        2.088
REMARK UNBOUND:                -2.631
REMARK  7 active torsions:
REMARK  status: ('A' for Active; 'I' for Inactive)
REMARK    1  A    between atoms: C_4  and  C_2 
REMARK    2  A    between atoms: C_4  and  C_14 
REMARK    3  A    between atoms: C_4  and  O_5 
REMARK    4  A    between atoms: O_5  and  C_6 
REMARK       I    between atoms: C_14  and  N_16 
REMARK    5  A    between atoms: N_16  and  C_17 
REMARK    6  A    between atoms: C_20  and  C_21 
REMARK    7  A    between atoms: C_21  and  N_22 
REMARK       I    between atoms: N_22  and  C_23 
REMARK       I    between atoms: C_23  and  N_24 
ROOT
ATOM      1  C   UNL d   1      28.043 -12.731  -3.652  0.00  0.00     0.090 A 
ATOM      2  C   UNL d   1      28.804 -11.548  -3.685  0.00  0.00     0.038 A 
ATOM      3  C   UNL d   1      28.244 -10.323  -4.063  0.00  0.00     0.003 A 
ATOM      4  C   UNL d   1      26.940 -10.272  -4.532  0.00  0.00     0.002 A 
ATOM      5  C   UNL d   1      26.180 -11.442  -4.573  0.00  0.00     0.025 A 
ATOM      6  C   UNL d   1      26.718 -12.675  -4.135  0.00  0.00     0.077 A 
ATOM      7  C   UNL d   1      25.875 -13.831  -4.163  0.00  0.00     0.102 C 
ATOM      8  N   UNL d   1      25.150 -14.746  -4.248  0.00  0.00    -0.191 NA
ENDROOT
BRANCH   1   9
ATOM      9  O   UNL d   1      28.430 -13.867  -2.962  0.00  0.00    -0.335 OA
BRANCH   9  10
ATOM     10  C   UNL d   1      28.668 -13.880  -1.509  0.00  0.00     0.224 C 
BRANCH  10  11
ATOM     11  C   UNL d   1      27.675 -14.883  -0.861  0.00  0.00     0.252 C 
ATOM     12  O   UNL d   1      27.803 -15.230   0.313  0.00  0.00    -0.270 OA
ATOM     13  N   UNL d   1      26.654 -15.362  -1.690  0.00  0.00    -0.325 N 
ATOM     14  H   UNL d   1      26.647 -15.157  -2.678  0.00  0.00     0.169 HD
BRANCH  13  15
ATOM     15  C   UNL d   1      25.653 -16.246  -1.221  0.00  0.00     0.034 A 
ATOM     16  C   UNL d   1      25.970 -17.437  -0.562  0.00  0.00     0.030 A 
ATOM     17  C   UNL d   1      24.943 -18.324  -0.179  0.00  0.00     0.011 A 
ATOM     18  C   UNL d   1      23.589 -18.004  -0.393  0.00  0.00    -0.040 A 
ATOM     19  C   UNL d   1      23.306 -16.824  -1.085  0.00  0.00     0.011 A 
ATOM     20  C   UNL d   1      24.319 -15.958  -1.480  0.00  0.00     0.030 A 
BRANCH  18  21
ATOM     21  C   UNL d   1      22.506 -18.894   0.177  0.00  0.00     0.162 C 
BRANCH  21  22
ATOM     22  N   UNL d   1      21.302 -19.002  -0.625  0.00  0.00    -0.339 N 
ATOM     23  C   UNL d   1      20.229 -19.790  -0.433  0.00  0.00     0.314 C 
ATOM     24  N   UNL d   1      20.247 -20.608   0.632  0.00  0.00    -0.352 N 
ATOM     25  O   UNL d   1      19.279 -19.763  -1.205  0.00  0.00    -0.248 OA
ATOM     26  H   UNL d   1      20.997 -20.631   1.300  0.00  0.00     0.160 HD
ATOM     27  H   UNL d   1      19.438 -21.193   0.778  0.00  0.00     0.160 HD
ATOM     28  H   UNL d   1      21.172 -18.407  -1.428  0.00  0.00     0.164 HD
ENDBRANCH  21  22
ENDBRANCH  18  21
ENDBRANCH  13  15
ENDBRANCH  10  11
BRANCH  10  29
ATOM     29  C   UNL d   1      28.614 -12.461  -0.842  0.00  0.00     0.016 C 
ATOM     30  C   UNL d   1      29.564 -11.954   0.248  0.00  0.00     0.012 C 
ATOM     31  C   UNL d   1      27.230 -12.176  -0.245  0.00  0.00     0.012 C 
ENDBRANCH  10  29
ENDBRANCH   9  10
ENDBRANCH   1   9
TORSDOF 7
ENDMDL
MODEL 7
REMARK VINA RESULT:    -6.545      2.349      3.017
REMARK INTER + INTRA:         -11.349
REMARK INTER:                  -8.633
REMARK INTRA:                  -2.716
REMARK CONF_INDEPENDENT:        2.088
REMARK UNBOUND:                -2.716
REMARK  7 active torsions:
REMARK  status: ('A' for Active; 'I' for Inactive)
REMARK    1  A    between atoms: C_4  and  C_2 
REMARK    2  A    between atoms: C_4  and  C_14 
REMARK    3  A    between atoms: C_4  and  O_5 
REMARK    4  A    between atoms: O_5  and  C_6 
REMARK       I    between atoms: C_14  and  N_16 
REMARK    5  A    between atoms: N_16  and  C_17 
REMARK    6  A    between atoms: C_20  and  C_21 
REMARK    7  A    between atoms: C_21  and  N_22 
REMARK       I    between atoms: N_22  and  C_23 
REMARK       I    between atoms: C_23  and  N_24 
ROOT
ATOM      1  C   UNL d   1      29.124 -12.882  -4.712  0.00  0.00     0.090 A 
ATOM      2  C   UNL d   1      29.901 -11.786  -5.127  0.00  0.00     0.038 A 
ATOM      3  C   UNL d   1      29.759 -11.223  -6.400  0.00  0.00     0.003 A 
ATOM      4  C   UNL d   1      28.922 -11.817  -7.332  0.00  0.00     0.002 A 
ATOM      5  C   UNL d   1      28.186 -12.947  -6.970  0.00  0.00     0.025 A 
ATOM      6  C   UNL d   1      28.276 -13.486  -5.665  0.00  0.00     0.077 A 
ATOM      7  C   UNL d   1      27.465 -14.621  -5.343  0.00  0.00     0.102 C 
ATOM      8  N   UNL d   1      26.809 -15.571  -5.154  0.00  0.00    -0.191 NA
ENDROOT
BRANCH   1   9
ATOM      9  O   UNL d   1      28.962 -13.243  -3.386  0.00  0.00    -0.335 OA
BRANCH   9  10
ATOM     10  C   UNL d   1      28.159 -12.459  -2.433  0.00  0.00     0.224 C 
BRANCH  10  11
ATOM     11  C   UNL d   1      27.209 -13.428  -1.680  0.00  0.00     0.252 C 
ATOM     12  O   UNL d   1      26.698 -13.108  -0.607  0.00  0.00    -0.270 OA
ATOM     13  N   UNL d   1      26.988 -14.670  -2.287  0.00  0.00    -0.325 N 
ATOM     14  H   UNL d   1      27.515 -14.952  -3.100  0.00  0.00     0.169 HD
BRANCH  13  15
ATOM     15  C   UNL d   1      26.111 -15.635  -1.736  0.00  0.00     0.034 A 
ATOM     16  C   UNL d   1      26.564 -16.639  -0.877  0.00  0.00     0.030 A 
ATOM     17  C   UNL d   1      25.670 -17.624  -0.411  0.00  0.00     0.011 A 
ATOM     18  C   UNL d   1      24.303 -17.581  -0.747  0.00  0.00    -0.040 A 
ATOM     19  C   UNL d   1      23.888 -16.586  -1.636  0.00  0.00     0.011 A 
ATOM     20  C   UNL d   1      24.774 -15.626  -2.110  0.00  0.00     0.030 A 
BRANCH  18  21
ATOM     21  C   UNL d   1      23.338 -18.551  -0.100  0.00  0.00     0.162 C 
BRANCH  21  22
ATOM     22  N   UNL d   1      22.221 -18.964  -0.928  0.00  0.00    -0.339 N 
ATOM     23  C   UNL d   1      21.006 -19.397  -0.548  0.00  0.00     0.314 C 
ATOM     24  N   UNL d   1      20.764 -19.479   0.770  0.00  0.00    -0.352 N 
ATOM     25  O   UNL d   1      20.159 -19.710  -1.376  0.00  0.00    -0.248 OA
ATOM     26  H   UNL d   1      21.426 -19.202   1.473  0.00  0.00     0.160 HD
ATOM     27  H   UNL d   1      19.849 -19.798   1.053  0.00  0.00     0.160 HD
ATOM     28  H   UNL d   1      22.285 -18.909  -1.932  0.00  0.00     0.164 HD
ENDBRANCH  21  22
ENDBRANCH  18  21
ENDBRANCH  13  15
ENDBRANCH  10  11
BRANCH  10  29
ATOM     29  C   UNL d   1      27.397 -11.252  -3.085  0.00  0.00     0.016 C 
ATOM     30  C   UNL d   1      26.866 -10.025  -2.337  0.00  0.00     0.012 C 
ATOM     31  C   UNL d   1      26.168 -11.726  -3.872  0.00  0.00     0.012 C 
ENDBRANCH  10  29
ENDBRANCH   9  10
ENDBRANCH   1   9
TORSDOF 7
ENDMDL
MODEL 8
REMARK VINA RESULT:    -6.407      4.138      8.379
REMARK INTER + INTRA:         -11.135
REMARK INTER:                  -8.495
REMARK INTRA:                  -2.641
REMARK CONF_INDEPENDENT:        2.088
REMARK UNBOUND:                -2.641
REMARK  7 active torsions:
REMARK  status: ('A' for Active; 'I' for Inactive)
REMARK    1  A    between atoms: C_4  and  C_2 
REMARK    2  A    between atoms: C_4  and  C_14 
REMARK    3  A    between atoms: C_4  and  O_5 
REMARK    4  A    between atoms: O_5  and  C_6 
REMARK       I    between atoms: C_14  and  N_16 
REMARK    5  A    between atoms: N_16  and  C_17 
REMARK    6  A    between atoms: C_20  and  C_21 
REMARK    7  A    between atoms: C_21  and  N_22 
REMARK       I    between atoms: N_22  and  C_23 
REMARK       I    between atoms: C_23  and  N_24 
ROOT
ATOM      1  C   UNL d   1      26.512 -15.404  -0.830  0.00  0.00     0.090 A 
ATOM      2  C   UNL d   1      26.984 -16.277   0.167  0.00  0.00     0.038 A 
ATOM      3  C   UNL d   1      26.503 -17.585   0.289  0.00  0.00     0.003 A 
ATOM      4  C   UNL d   1      25.451 -18.013  -0.506  0.00  0.00     0.002 A 
ATOM      5  C   UNL d   1      24.916 -17.146  -1.460  0.00  0.00     0.025 A 
ATOM      6  C   UNL d   1      25.438 -15.843  -1.634  0.00  0.00     0.077 A 
ATOM      7  C   UNL d   1      24.874 -15.017  -2.657  0.00  0.00     0.102 C 
ATOM      8  N   UNL d   1      24.344 -14.377  -3.482  0.00  0.00    -0.191 NA
ENDROOT
BRANCH   1   9
ATOM      9  O   UNL d   1      27.184 -14.259  -1.221  0.00  0.00    -0.335 OA
BRANCH   9  10
ATOM     10  C   UNL d   1      28.122 -14.229  -2.355  0.00  0.00     0.224 C 
BRANCH  10  11
ATOM     11  C   UNL d   1      27.783 -12.997  -3.237  0.00  0.00     0.252 C 
ATOM     12  O   UNL d   1      28.652 -12.441  -3.908  0.00  0.00    -0.270 OA
ATOM     13  N   UNL d   1      26.452 -12.565  -3.208  0.00  0.00    -0.325 N 
ATOM     14  H   UNL d   1      25.791 -12.963  -2.557  0.00  0.00     0.169 HD
BRANCH  13  15
ATOM     15  C   UNL d   1      25.991 -11.484  -3.996  0.00  0.00     0.034 A 
ATOM     16  C   UNL d   1      25.942 -11.553  -5.390  0.00  0.00     0.030 A 
ATOM     17  C   UNL d   1      25.548 -10.426  -6.138  0.00  0.00     0.011 A 
ATOM     18  C   UNL d   1      25.140  -9.238  -5.501  0.00  0.00    -0.040 A 
ATOM     19  C   UNL d   1      25.235  -9.187  -4.109  0.00  0.00     0.011 A 
ATOM     20  C   UNL d   1      25.641 -10.293  -3.371  0.00  0.00     0.030 A 
BRANCH  18  21
ATOM     21  C   UNL d   1      24.564  -8.104  -6.322  0.00  0.00     0.162 C 
BRANCH  21  22
ATOM     22  N   UNL d   1      24.361  -6.858  -5.606  0.00  0.00    -0.339 N 
ATOM     23  C   UNL d   1      23.247  -6.402  -5.009  0.00  0.00     0.314 C 
ATOM     24  N   UNL d   1      22.152  -7.176  -5.072  0.00  0.00    -0.352 N 
ATOM     25  O   UNL d   1      23.234  -5.319  -4.436  0.00  0.00    -0.248 OA
ATOM     26  H   UNL d   1      22.137  -8.082  -5.507  0.00  0.00     0.160 HD
ATOM     27  H   UNL d   1      21.318  -6.835  -4.616  0.00  0.00     0.160 HD
ATOM     28  H   UNL d   1      25.129  -6.219  -5.472  0.00  0.00     0.164 HD
ENDBRANCH  21  22
ENDBRANCH  18  21
ENDBRANCH  13  15
ENDBRANCH  10  11
BRANCH  10  29
ATOM     29  C   UNL d   1      28.171 -15.564  -3.177  0.00  0.00     0.016 C 
ATOM     30  C   UNL d   1      29.370 -16.515  -3.259  0.00  0.00     0.012 C 
ATOM     31  C   UNL d   1      27.826 -15.326  -4.653  0.00  0.00     0.012 C 
ENDBRANCH  10  29
ENDBRANCH   9  10
ENDBRANCH   1   9
TORSDOF 7
ENDMDL
MODEL 9
REMARK VINA RESULT:    -6.392      3.451      8.526
REMARK INTER + INTRA:         -11.034
REMARK INTER:                  -8.480
REMARK INTRA:                  -2.554
REMARK CONF_INDEPENDENT:        2.088
REMARK UNBOUND:                -2.554
REMARK  7 active torsions:
REMARK  status: ('A' for Active; 'I' for Inactive)
REMARK    1  A    between atoms: C_4  and  C_2 
REMARK    2  A    between atoms: C_4  and  C_14 
REMARK    3  A    between atoms: C_4  and  O_5 
REMARK    4  A    between atoms: O_5  and  C_6 
REMARK       I    between atoms: C_14  and  N_16 
REMARK    5  A    between atoms: N_16  and  C_17 
REMARK    6  A    between atoms: C_20  and  C_21 
REMARK    7  A    between atoms: C_21  and  N_22 
REMARK       I    between atoms: N_22  and  C_23 
REMARK       I    between atoms: C_23  and  N_24 
ROOT
ATOM      1  C   UNL d   1      25.562 -16.103  -1.655  0.00  0.00     0.090 A 
ATOM      2  C   UNL d   1      24.216 -16.427  -1.407  0.00  0.00     0.038 A 
ATOM      3  C   UNL d   1      23.854 -17.421  -0.491  0.00  0.00     0.003 A 
ATOM      4  C   UNL d   1      24.832 -18.198   0.110  0.00  0.00     0.002 A 
ATOM      5  C   UNL d   1      26.177 -17.944  -0.167  0.00  0.00     0.025 A 
ATOM      6  C   UNL d   1      26.554 -16.900  -1.044  0.00  0.00     0.077 A 
ATOM      7  C   UNL d   1      27.950 -16.662  -1.255  0.00  0.00     0.102 C 
ATOM      8  N   UNL d   1      29.103 -16.545  -1.417  0.00  0.00    -0.191 NA
ENDROOT
BRANCH   1   9
ATOM      9  O   UNL d   1      25.964 -14.923  -2.256  0.00  0.00    -0.335 OA
BRANCH   9  10
ATOM     10  C   UNL d   1      25.595 -14.559  -3.634  0.00  0.00     0.224 C 
BRANCH  10  11
ATOM     11  C   UNL d   1      26.626 -15.200  -4.601  0.00  0.00     0.252 C 
ATOM     12  O   UNL d   1      26.330 -15.447  -5.770  0.00  0.00    -0.270 OA
ATOM     13  N   UNL d   1      27.887 -15.482  -4.060  0.00  0.00    -0.325 N 
ATOM     14  H   UNL d   1      28.061 -15.383  -3.071  0.00  0.00     0.169 HD
BRANCH  13  15
ATOM     15  C   UNL d   1      28.937 -16.026  -4.837  0.00  0.00     0.034 A 
ATOM     16  C   UNL d   1      29.734 -17.074  -4.370  0.00  0.00     0.030 A 
ATOM     17  C   UNL d   1      30.817 -17.534  -5.146  0.00  0.00     0.011 A 
ATOM     18  C   UNL d   1      31.078 -16.996  -6.420  0.00  0.00    -0.040 A 
ATOM     19  C   UNL d   1      30.287 -15.926  -6.844  0.00  0.00     0.011 A 
ATOM     20  C   UNL d   1      29.230 -15.459  -6.071  0.00  0.00     0.030 A 
BRANCH  18  21
ATOM     21  C   UNL d   1      32.141 -17.622  -7.299  0.00  0.00     0.162 C 
BRANCH  21  22
ATOM     22  N   UNL d   1      32.551 -16.828  -8.442  0.00  0.00    -0.339 N 
ATOM     23  C   UNL d   1      33.235 -15.671  -8.463  0.00  0.00     0.314 C 
ATOM     24  N   UNL d   1      33.596 -15.146  -7.280  0.00  0.00    -0.352 N 
ATOM     25  O   UNL d   1      33.511 -15.118  -9.520  0.00  0.00    -0.248 OA
ATOM     26  H   UNL d   1      33.412 -15.590  -6.398  0.00  0.00     0.160 HD
ATOM     27  H   UNL d   1      34.116 -14.281  -7.298  0.00  0.00     0.160 HD
ATOM     28  H   UNL d   1      32.360 -17.150  -9.378  0.00  0.00     0.164 HD
ENDBRANCH  21  22
ENDBRANCH  18  21
ENDBRANCH  13  15
ENDBRANCH  10  11
BRANCH  10  29
ATOM     29  C   UNL d   1      25.431 -13.016  -3.864  0.00  0.00     0.016 C 
ATOM     30  C   UNL d   1      25.883 -12.248  -5.110  0.00  0.00     0.012 C 
ATOM     31  C   UNL d   1      26.065 -12.210  -2.722  0.00  0.00     0.012 C 
ENDBRANCH  10  29
ENDBRANCH   9  10
ENDBRANCH   1   9
TORSDOF 7
ENDMDL
