MODEL 1
REMARK VINA RESULT:   -10.873      0.000      0.000
REMARK INTER + INTRA:         -15.571
REMARK INTER:                 -14.155
REMARK INTRA:                  -1.417
REMARK CONF_INDEPENDENT:        3.281
REMARK UNBOUND:                -1.417
REMARK  11 active torsions:
REMARK  status: ('A' for Active; 'I' for Inactive)
REMARK    1  A    between atoms: C_2  and  N_3 
REMARK    2  A    between atoms: N_3  and  C_4 
REMARK    3  A    between atoms: N_3  and  C_6 
REMARK    4  A    between atoms: C_6  and  C_7 
REMARK    5  A    between atoms: C_7  and  C_8 
REMARK    6  A    between atoms: C_8  and  N_9 
REMARK    7  A    between atoms: N_9  and  C_10 
REMARK    8  A    between atoms: N_9  and  C_26 
REMARK    9  A    between atoms: C_10  and  C_11 
REMARK   10  A    between atoms: C_26  and  N_28 
REMARK   11  A    between atoms: N_28  and  C_29 
ROOT
ATOM      1  N   UNL d   1      28.722 -14.772   0.810  0.00  0.00    -0.354 N 
ENDROOT
BRANCH   1   2
ATOM      2  C   UNL d   1      30.133 -14.823   1.448  0.00  0.00     0.127 C 
BRANCH   2   3
ATOM      3  C   UNL d   1      31.373 -14.830   0.593  0.00  0.00     0.048 C 
BRANCH   3   4
ATOM      4  C   UNL d   1      32.326 -15.960   0.243  0.00  0.00     0.236 C 
BRANCH   4   5
ATOM      5  N   UNL d   1      31.840 -17.422   0.950  0.00  0.00    -0.072 N 
ATOM      6  H   UNL d   1      30.923 -17.157   1.350  0.00  0.00     0.279 HD
BRANCH   5   7
ATOM      7  C   UNL d   1      31.562 -18.297  -0.234  0.00  0.00     0.230 C 
ATOM      8  C   UNL d   1      30.209 -18.018  -0.827  0.00  0.00     0.034 C 
ENDBRANCH   5   7
BRANCH   5   9
ATOM      9  C   UNL d   1      32.884 -18.329   2.027  0.00  0.00     0.230 C 
ATOM     10  C   UNL d   1      32.291 -19.123   3.230  0.00  0.00     0.034 C 
ENDBRANCH   5   9
ENDBRANCH   4   5
ENDBRANCH   3   4
ENDBRANCH   2   3
ENDBRANCH   1   2
BRANCH   1  11
ATOM     11  C   UNL d   1      28.280 -15.252  -0.589  0.00  0.00     0.169 C 
BRANCH  11  12
ATOM     12  C   UNL d   1      27.010 -16.013  -0.834  0.00  0.00     0.029 C 
ATOM     13  C   UNL d   1      26.428 -17.090  -0.235  0.00  0.00     0.028 C 
ATOM     14  C   UNL d   1      24.980 -17.440  -0.451  0.00  0.00    -0.006 C 
ATOM     15  C   UNL d   1      24.239 -18.529   0.000  0.00  0.00     0.053 C 
ATOM     16  C   UNL d   1      24.227 -16.429  -0.969  0.00  0.00     0.048 C 
ATOM     17  C   UNL d   1      22.831 -18.623  -0.205  0.00  0.00     0.103 C 
ATOM     18  C   UNL d   1      22.132 -17.571  -0.747  0.00  0.00     0.104 C 
ATOM     19  O   UNL d   1      22.161 -19.739   0.226  0.00  0.00    -0.346 OA
ATOM     20  C   UNL d   1      22.830 -16.407  -0.895  0.00  0.00     0.070 C 
ATOM     21  O   UNL d   1      20.808 -17.583  -1.113  0.00  0.00    -0.346 OA
ATOM     22  C   UNL d   1      20.278 -18.923  -1.083  0.00  0.00     0.202 C 
ATOM     23  C   UNL d   1      20.727 -19.539   0.229  0.00  0.00     0.202 C 
ATOM     24  N   UNL d   1      24.954 -15.501  -1.674  0.00  0.00    -0.322 N 
ATOM     25  C   UNL d   1      26.271 -15.514  -1.966  0.00  0.00     0.253 C 
ATOM     26  H   UNL d   1      24.616 -14.601  -1.837  0.00  0.00     0.169 HD
ATOM     27  O   UNL d   1      26.757 -14.805  -2.869  0.00  0.00    -0.268 OA
ENDBRANCH  11  12
ENDBRANCH   1  11
BRANCH   1  28
ATOM     28  C   UNL d   1      27.691 -14.358   1.746  0.00  0.00     0.174 C 
ATOM     29  S   UNL d   1      26.400 -13.351   1.255  0.00  0.00    -0.041 SA
BRANCH  28  30
ATOM     30  N   UNL d   1      27.847 -14.822   3.075  0.00  0.00    -0.333 N 
ATOM     31  H   UNL d   1      28.214 -15.749   3.234  0.00  0.00     0.168 HD
BRANCH  30  32
ATOM     32  C   UNL d   1      27.952 -13.951   4.206  0.00  0.00     0.035 C 
ATOM     33  C   UNL d   1      27.779 -12.573   4.035  0.00  0.00     0.029 C 
ATOM     34  C   UNL d   1      28.030 -11.672   5.065  0.00  0.00     0.004 C 
ATOM     35  C   UNL d   1      28.523 -12.140   6.274  0.00  0.00     0.024 C 
ATOM     36  C   UNL d   1      28.625 -13.515   6.483  0.00  0.00     0.036 C 
ATOM     37 CL   UNL d   1      29.274 -14.075   7.979  0.00  0.00    -0.084 Cl
ATOM     38  C   UNL d   1      28.258 -14.433   5.483  0.00  0.00     0.053 C 
ENDBRANCH  30  32
ENDBRANCH  28  30
ENDBRANCH   1  28
TORSDOF 11
ENDMDL
MODEL 2
REMARK VINA RESULT:   -10.463      1.301      1.835
REMARK INTER + INTRA:         -15.831
REMARK INTER:                 -13.744
REMARK INTRA:                  -2.087
REMARK CONF_INDEPENDENT:        3.281
REMARK UNBOUND:                -2.087
REMARK  11 active torsions:
REMARK  status: ('A' for Active; 'I' for Inactive)
REMARK    1  A    between atoms: C_2  and  N_3 
REMARK    2  A    between atoms: N_3  and  C_4 
REMARK    3  A    between atoms: N_3  and  C_6 
REMARK    4  A    between atoms: C_6  and  C_7 
REMARK    5  A    between atoms: C_7  and  C_8 
REMARK    6  A    between atoms: C_8  and  N_9 
REMARK    7  A    between atoms: N_9  and  C_10 
REMARK    8  A    between atoms: N_9  and  C_26 
REMARK    9  A    between atoms: C_10  and  C_11 
REMARK   10  A    between atoms: C_26  and  N_28 
REMARK   11  A    between atoms: N_28  and  C_29 
ROOT
ATOM      1  N   UNL d   1      28.363 -14.518  -0.125  0.00  0.00    -0.354 N 
ENDROOT
BRANCH   1   2
ATOM      2  C   UNL d   1      29.854 -14.106  -0.200  0.00  0.00     0.127 C 
BRANCH   2   3
ATOM      3  C   UNL d   1      30.740 -14.169   1.017  0.00  0.00     0.048 C 
BRANCH   3   4
ATOM      4  C   UNL d   1      31.953 -15.034   1.313  0.00  0.00     0.236 C 
BRANCH   4   5
ATOM      5  N   UNL d   1      31.540 -16.677   1.382  0.00  0.00    -0.072 N 
ATOM      6  H   UNL d   1      30.521 -16.621   1.555  0.00  0.00     0.279 HD
BRANCH   5   7
ATOM      7  C   UNL d   1      31.716 -17.133  -0.033  0.00  0.00     0.230 C 
ATOM      8  C   UNL d   1      30.548 -17.952  -0.504  0.00  0.00     0.034 C 
ENDBRANCH   5   7
BRANCH   5   9
ATOM      9  C   UNL d   1      32.404 -17.813   2.401  0.00  0.00     0.230 C 
ATOM     10  C   UNL d   1      33.962 -17.866   2.394  0.00  0.00     0.034 C 
ENDBRANCH   5   9
ENDBRANCH   4   5
ENDBRANCH   3   4
ENDBRANCH   2   3
ENDBRANCH   1   2
BRANCH   1  11
ATOM     11  C   UNL d   1      27.609 -15.561  -0.978  0.00  0.00     0.169 C 
BRANCH  11  12
ATOM     12  C   UNL d   1      26.291 -16.153  -0.576  0.00  0.00     0.029 C 
ATOM     13  C   UNL d   1      25.006 -15.958  -0.990  0.00  0.00     0.028 C 
ATOM     14  C   UNL d   1      23.905 -16.935  -0.669  0.00  0.00    -0.006 C 
ATOM     15  C   UNL d   1      22.540 -16.869  -0.929  0.00  0.00     0.053 C 
ATOM     16  C   UNL d   1      24.341 -18.164  -0.272  0.00  0.00     0.048 C 
ATOM     17  C   UNL d   1      21.664 -17.962  -0.656  0.00  0.00     0.103 C 
ATOM     18  C   UNL d   1      22.167 -19.173  -0.244  0.00  0.00     0.104 C 
ATOM     19  O   UNL d   1      20.322 -17.825  -0.895  0.00  0.00    -0.346 OA
ATOM     20  C   UNL d   1      23.526 -19.301  -0.294  0.00  0.00     0.070 C 
ATOM     21  O   UNL d   1      21.430 -20.255   0.172  0.00  0.00    -0.346 OA
ATOM     22  C   UNL d   1      20.046 -19.895   0.356  0.00  0.00     0.202 C 
ATOM     23  C   UNL d   1      19.637 -19.100  -0.870  0.00  0.00     0.202 C 
ATOM     24  N   UNL d   1      25.605 -18.159   0.262  0.00  0.00    -0.322 N 
ATOM     25  C   UNL d   1      26.411 -17.103   0.501  0.00  0.00     0.253 C 
ATOM     26  H   UNL d   1      26.146 -18.969   0.308  0.00  0.00     0.169 HD
ATOM     27  O   UNL d   1      27.387 -17.175   1.272  0.00  0.00    -0.268 OA
ENDBRANCH  11  12
ENDBRANCH   1  11
BRANCH   1  28
ATOM     28  C   UNL d   1      27.671 -13.938   1.013  0.00  0.00     0.174 C 
ATOM     29  S   UNL d   1      26.659 -12.572   0.832  0.00  0.00    -0.041 SA
BRANCH  28  30
ATOM     30  N   UNL d   1      27.913 -14.561   2.261  0.00  0.00    -0.333 N 
ATOM     31  H   UNL d   1      28.388 -15.451   2.284  0.00  0.00     0.168 HD
BRANCH  30  32
ATOM     32  C   UNL d   1      27.947 -13.850   3.503  0.00  0.00     0.035 C 
ATOM     33  C   UNL d   1      27.667 -12.478   3.521  0.00  0.00     0.029 C 
ATOM     34  C   UNL d   1      27.845 -11.712   4.669  0.00  0.00     0.004 C 
ATOM     35  C   UNL d   1      28.370 -12.303   5.808  0.00  0.00     0.024 C 
ATOM     36  C   UNL d   1      28.578 -13.683   5.827  0.00  0.00     0.036 C 
ATOM     37 CL   UNL d   1      29.265 -14.393   7.240  0.00  0.00    -0.084 Cl
ATOM     38  C   UNL d   1      28.286 -14.478   4.706  0.00  0.00     0.053 C 
ENDBRANCH  30  32
ENDBRANCH  28  30
ENDBRANCH   1  28
TORSDOF 11
ENDMDL
MODEL 3
REMARK VINA RESULT:   -10.233      2.101      3.256
REMARK INTER + INTRA:         -15.648
REMARK INTER:                 -13.514
REMARK INTRA:                  -2.134
REMARK CONF_INDEPENDENT:        3.281
REMARK UNBOUND:                -2.134
REMARK  11 active torsions:
REMARK  status: ('A' for Active; 'I' for Inactive)
REMARK    1  A    between atoms: C_2  and  N_3 
REMARK    2  A    between atoms: N_3  and  C_4 
REMARK    3  A    between atoms: N_3  and  C_6 
REMARK    4  A    between atoms: C_6  and  C_7 
REMARK    5  A    between atoms: C_7  and  C_8 
REMARK    6  A    between atoms: C_8  and  N_9 
REMARK    7  A    between atoms: N_9  and  C_10 
REMARK    8  A    between atoms: N_9  and  C_26 
REMARK    9  A    between atoms: C_10  and  C_11 
REMARK   10  A    between atoms: C_26  and  N_28 
REMARK   11  A    between atoms: N_28  and  C_29 
ROOT
ATOM      1  N   UNL d   1      28.456 -14.977  -0.271  0.00  0.00    -0.354 N 
ENDROOT
BRANCH   1   2
ATOM      2  C   UNL d   1      30.003 -15.048  -0.268  0.00  0.00     0.127 C 
BRANCH   2   3
ATOM      3  C   UNL d   1      30.807 -14.443   0.853  0.00  0.00     0.048 C 
BRANCH   3   4
ATOM      4  C   UNL d   1      31.648 -15.101   1.933  0.00  0.00     0.236 C 
BRANCH   4   5
ATOM      5  N   UNL d   1      32.359 -13.948   2.952  0.00  0.00    -0.072 N 
ATOM      6  H   UNL d   1      32.307 -14.429   3.868  0.00  0.00     0.279 HD
BRANCH   5   7
ATOM      7  C   UNL d   1      33.797 -13.964   2.534  0.00  0.00     0.230 C 
ATOM      8  C   UNL d   1      34.682 -13.308   3.557  0.00  0.00     0.034 C 
ENDBRANCH   5   7
BRANCH   5   9
ATOM      9  C   UNL d   1      31.845 -12.272   2.966  0.00  0.00     0.230 C 
ATOM     10  C   UNL d   1      32.042 -11.367   1.712  0.00  0.00     0.034 C 
ENDBRANCH   5   9
ENDBRANCH   4   5
ENDBRANCH   3   4
ENDBRANCH   2   3
ENDBRANCH   1   2
BRANCH   1  11
ATOM     11  C   UNL d   1      27.463 -15.662  -1.234  0.00  0.00     0.169 C 
BRANCH  11  12
ATOM     12  C   UNL d   1      26.153 -16.241  -0.788  0.00  0.00     0.029 C 
ATOM     13  C   UNL d   1      24.856 -16.024  -1.149  0.00  0.00     0.028 C 
ATOM     14  C   UNL d   1      23.755 -16.988  -0.797  0.00  0.00    -0.006 C 
ATOM     15  C   UNL d   1      22.381 -16.901  -1.003  0.00  0.00     0.053 C 
ATOM     16  C   UNL d   1      24.187 -18.228  -0.432  0.00  0.00     0.048 C 
ATOM     17  C   UNL d   1      21.501 -17.985  -0.710  0.00  0.00     0.103 C 
ATOM     18  C   UNL d   1      22.002 -19.208  -0.332  0.00  0.00     0.104 C 
ATOM     19  O   UNL d   1      20.153 -17.827  -0.894  0.00  0.00    -0.346 OA
ATOM     20  C   UNL d   1      23.356 -19.354  -0.436  0.00  0.00     0.070 C 
ATOM     21  O   UNL d   1      21.267 -20.285   0.100  0.00  0.00    -0.346 OA
ATOM     22  C   UNL d   1      19.896 -19.908   0.342  0.00  0.00     0.202 C 
ATOM     23  C   UNL d   1      19.451 -19.093  -0.858  0.00  0.00     0.202 C 
ATOM     24  N   UNL d   1      25.472 -18.248   0.053  0.00  0.00    -0.322 N 
ATOM     25  C   UNL d   1      26.301 -17.206   0.272  0.00  0.00     0.253 C 
ATOM     26  H   UNL d   1      26.002 -19.066   0.067  0.00  0.00     0.169 HD
ATOM     27  O   UNL d   1      27.305 -17.301   1.004  0.00  0.00    -0.268 OA
ENDBRANCH  11  12
ENDBRANCH   1  11
BRANCH   1  28
ATOM     28  C   UNL d   1      27.918 -14.298   0.895  0.00  0.00     0.174 C 
ATOM     29  S   UNL d   1      27.075 -12.818   0.748  0.00  0.00    -0.041 SA
BRANCH  28  30
ATOM     30  N   UNL d   1      28.162 -14.928   2.139  0.00  0.00    -0.333 N 
ATOM     31  H   UNL d   1      28.603 -15.836   2.154  0.00  0.00     0.168 HD
BRANCH  30  32
ATOM     32  C   UNL d   1      28.247 -14.217   3.379  0.00  0.00     0.035 C 
ATOM     33  C   UNL d   1      27.966 -14.882   4.578  0.00  0.00     0.029 C 
ATOM     34  C   UNL d   1      27.875 -14.201   5.787  0.00  0.00     0.004 C 
ATOM     35  C   UNL d   1      28.005 -12.820   5.802  0.00  0.00     0.024 C 
ATOM     36  C   UNL d   1      28.363 -12.156   4.629  0.00  0.00     0.036 C 
ATOM     37 CL   UNL d   1      28.484 -10.436   4.662  0.00  0.00    -0.084 Cl
ATOM     38  C   UNL d   1      28.572 -12.858   3.430  0.00  0.00     0.053 C 
ENDBRANCH  30  32
ENDBRANCH  28  30
ENDBRANCH   1  28
TORSDOF 11
ENDMDL
MODEL 4
REMARK VINA RESULT:   -10.050      4.361      6.290
REMARK INTER + INTRA:         -15.162
REMARK INTER:                 -13.331
REMARK INTRA:                  -1.831
REMARK CONF_INDEPENDENT:        3.281
REMARK UNBOUND:                -1.831
REMARK  11 active torsions:
REMARK  status: ('A' for Active; 'I' for Inactive)
REMARK    1  A    between atoms: C_2  and  N_3 
REMARK    2  A    between atoms: N_3  and  C_4 
REMARK    3  A    between atoms: N_3  and  C_6 
REMARK    4  A    between atoms: C_6  and  C_7 
REMARK    5  A    between atoms: C_7  and  C_8 
REMARK    6  A    between atoms: C_8  and  N_9 
REMARK    7  A    between atoms: N_9  and  C_10 
REMARK    8  A    between atoms: N_9  and  C_26 
REMARK    9  A    between atoms: C_10  and  C_11 
REMARK   10  A    between atoms: C_26  and  N_28 
REMARK   11  A    between atoms: N_28  and  C_29 
ROOT
ATOM      1  N   UNL d   1      29.138 -16.608  -1.518  0.00  0.00    -0.354 N 
ENDROOT
BRANCH   1   2
ATOM      2  C   UNL d   1      30.173 -17.681  -1.101  0.00  0.00     0.127 C 
BRANCH   2   3
ATOM      3  C   UNL d   1      31.198 -17.400  -0.033  0.00  0.00     0.048 C 
BRANCH   3   4
ATOM      4  C   UNL d   1      32.382 -18.224   0.442  0.00  0.00     0.236 C 
BRANCH   4   5
ATOM      5  N   UNL d   1      31.910 -19.791   0.882  0.00  0.00    -0.072 N 
ATOM      6  H   UNL d   1      30.879 -19.700   0.878  0.00  0.00     0.279 HD
BRANCH   5   7
ATOM      7  C   UNL d   1      32.279 -20.608  -0.319  0.00  0.00     0.230 C 
ATOM      8  C   UNL d   1      31.117 -21.420  -0.818  0.00  0.00     0.034 C 
ENDBRANCH   5   7
BRANCH   5   9
ATOM      9  C   UNL d   1      32.575 -20.607   2.284  0.00  0.00     0.230 C 
ATOM     10  C   UNL d   1      31.730 -20.777   3.583  0.00  0.00     0.034 C 
ENDBRANCH   5   9
ENDBRANCH   4   5
ENDBRANCH   3   4
ENDBRANCH   2   3
ENDBRANCH   1   2
BRANCH   1  11
ATOM     11  C   UNL d   1      27.862 -16.159  -0.773  0.00  0.00     0.169 C 
BRANCH  11  12
ATOM     12  C   UNL d   1      26.523 -16.805  -0.974  0.00  0.00     0.029 C 
ATOM     13  C   UNL d   1      25.869 -17.828  -0.354  0.00  0.00     0.028 C 
ATOM     14  C   UNL d   1      24.389 -18.050  -0.520  0.00  0.00    -0.006 C 
ATOM     15  C   UNL d   1      23.571 -19.069  -0.043  0.00  0.00     0.053 C 
ATOM     16  C   UNL d   1      23.712 -16.976  -1.016  0.00  0.00     0.048 C 
ATOM     17  C   UNL d   1      22.154 -19.040  -0.201  0.00  0.00     0.103 C 
ATOM     18  C   UNL d   1      21.532 -17.930  -0.722  0.00  0.00     0.104 C 
ATOM     19  O   UNL d   1      21.404 -20.093   0.255  0.00  0.00    -0.346 OA
ATOM     20  C   UNL d   1      22.325 -16.831  -0.895  0.00  0.00     0.070 C 
ATOM     21  O   UNL d   1      20.201 -17.825  -1.044  0.00  0.00    -0.346 OA
ATOM     22  C   UNL d   1      19.557 -19.114  -0.993  0.00  0.00     0.202 C 
ATOM     23  C   UNL d   1      19.994 -19.768   0.305  0.00  0.00     0.202 C 
ATOM     24  N   UNL d   1      24.493 -16.115  -1.746  0.00  0.00    -0.322 N 
ATOM     25  C   UNL d   1      25.793 -16.243  -2.082  0.00  0.00     0.253 C 
ATOM     26  H   UNL d   1      24.229 -15.188  -1.900  0.00  0.00     0.169 HD
ATOM     27  O   UNL d   1      26.309 -15.579  -3.002  0.00  0.00    -0.268 OA
ENDBRANCH  11  12
ENDBRANCH   1  11
BRANCH   1  28
ATOM     28  C   UNL d   1      29.551 -15.844  -2.684  0.00  0.00     0.174 C 
ATOM     29  S   UNL d   1      30.593 -14.497  -2.536  0.00  0.00    -0.041 SA
BRANCH  28  30
ATOM     30  N   UNL d   1      29.016 -16.276  -3.921  0.00  0.00    -0.333 N 
ATOM     31  H   UNL d   1      28.093 -15.971  -4.192  0.00  0.00     0.168 HD
BRANCH  30  32
ATOM     32  C   UNL d   1      29.823 -16.734  -5.011  0.00  0.00     0.035 C 
ATOM     33  C   UNL d   1      30.255 -15.824  -5.983  0.00  0.00     0.029 C 
ATOM     34  C   UNL d   1      30.899 -16.244  -7.142  0.00  0.00     0.004 C 
ATOM     35  C   UNL d   1      31.066 -17.600  -7.375  0.00  0.00     0.024 C 
ATOM     36  C   UNL d   1      30.713 -18.512  -6.380  0.00  0.00     0.036 C 
ATOM     37 CL   UNL d   1      30.896 -20.196  -6.704  0.00  0.00    -0.084 Cl
ATOM     38  C   UNL d   1      30.170 -18.082  -5.157  0.00  0.00     0.053 C 
ENDBRANCH  30  32
ENDBRANCH  28  30
ENDBRANCH   1  28
TORSDOF 11
ENDMDL
MODEL 5
REMARK VINA RESULT:   -10.003      3.937      6.461
REMARK INTER + INTRA:         -15.229
REMARK INTER:                 -13.284
REMARK INTRA:                  -1.945
REMARK CONF_INDEPENDENT:        3.281
REMARK UNBOUND:                -1.945
REMARK  11 active torsions:
REMARK  status: ('A' for Active; 'I' for Inactive)
REMARK    1  A    between atoms: C_2  and  N_3 
REMARK    2  A    between atoms: N_3  and  C_4 
REMARK    3  A    between atoms: N_3  and  C_6 
REMARK    4  A    between atoms: C_6  and  C_7 
REMARK    5  A    between atoms: C_7  and  C_8 
REMARK    6  A    between atoms: C_8  and  N_9 
REMARK    7  A    between atoms: N_9  and  C_10 
REMARK    8  A    between atoms: N_9  and  C_26 
REMARK    9  A    between atoms: C_10  and  C_11 
REMARK   10  A    between atoms: C_26  and  N_28 
REMARK   11  A    between atoms: N_28  and  C_29 
ROOT
ATOM      1  N   UNL d   1      29.272 -16.390  -1.203  0.00  0.00    -0.354 N 
ENDROOT
BRANCH   1   2
ATOM      2  C   UNL d   1      30.397 -17.282  -0.624  0.00  0.00     0.127 C 
BRANCH   2   3
ATOM      3  C   UNL d   1      31.691 -16.684  -0.137  0.00  0.00     0.048 C 
BRANCH   3   4
ATOM      4  C   UNL d   1      32.006 -15.909   1.131  0.00  0.00     0.236 C 
BRANCH   4   5
ATOM      5  N   UNL d   1      30.628 -15.139   1.745  0.00  0.00    -0.072 N 
ATOM      6  H   UNL d   1      30.017 -15.950   1.949  0.00  0.00     0.279 HD
BRANCH   5   7
ATOM      7  C   UNL d   1      31.095 -14.605   3.064  0.00  0.00     0.230 C 
ATOM      8  C   UNL d   1      29.959 -14.449   4.036  0.00  0.00     0.034 C 
ENDBRANCH   5   7
BRANCH   5   9
ATOM      9  C   UNL d   1      29.845 -13.816   0.902  0.00  0.00     0.230 C 
ATOM     10  C   UNL d   1      30.337 -12.348   1.089  0.00  0.00     0.034 C 
ENDBRANCH   5   9
ENDBRANCH   4   5
ENDBRANCH   3   4
ENDBRANCH   2   3
ENDBRANCH   1   2
BRANCH   1  11
ATOM     11  C   UNL d   1      27.949 -15.955  -0.537  0.00  0.00     0.169 C 
BRANCH  11  12
ATOM     12  C   UNL d   1      26.637 -16.637  -0.792  0.00  0.00     0.029 C 
ATOM     13  C   UNL d   1      25.985 -17.675  -0.196  0.00  0.00     0.028 C 
ATOM     14  C   UNL d   1      24.519 -17.937  -0.425  0.00  0.00    -0.006 C 
ATOM     15  C   UNL d   1      23.709 -18.976   0.022  0.00  0.00     0.053 C 
ATOM     16  C   UNL d   1      23.835 -16.883  -0.953  0.00  0.00     0.048 C 
ATOM     17  C   UNL d   1      22.300 -18.985  -0.197  0.00  0.00     0.103 C 
ATOM     18  C   UNL d   1      21.672 -17.894  -0.748  0.00  0.00     0.104 C 
ATOM     19  O   UNL d   1      21.559 -20.056   0.230  0.00  0.00    -0.346 OA
ATOM     20  C   UNL d   1      22.442 -16.775  -0.892  0.00  0.00     0.070 C 
ATOM     21  O   UNL d   1      20.353 -17.826  -1.128  0.00  0.00    -0.346 OA
ATOM     22  C   UNL d   1      19.742 -19.131  -1.099  0.00  0.00     0.202 C 
ATOM     23  C   UNL d   1      20.140 -19.769   0.219  0.00  0.00     0.202 C 
ATOM     24  N   UNL d   1      24.624 -16.003  -1.653  0.00  0.00    -0.322 N 
ATOM     25  C   UNL d   1      25.940 -16.098  -1.933  0.00  0.00     0.253 C 
ATOM     26  H   UNL d   1      24.343 -15.085  -1.822  0.00  0.00     0.169 HD
ATOM     27  O   UNL d   1      26.477 -15.423  -2.832  0.00  0.00    -0.268 OA
ENDBRANCH  11  12
ENDBRANCH   1  11
BRANCH   1  28
ATOM     28  C   UNL d   1      29.629 -15.780  -2.473  0.00  0.00     0.174 C 
ATOM     29  S   UNL d   1      30.562 -14.348  -2.537  0.00  0.00    -0.041 SA
BRANCH  28  30
ATOM     30  N   UNL d   1      29.134 -16.432  -3.628  0.00  0.00    -0.333 N 
ATOM     31  H   UNL d   1      28.140 -16.433  -3.806  0.00  0.00     0.168 HD
BRANCH  30  32
ATOM     32  C   UNL d   1      29.934 -16.703  -4.783  0.00  0.00     0.035 C 
ATOM     33  C   UNL d   1      30.460 -15.640  -5.525  0.00  0.00     0.029 C 
ATOM     34  C   UNL d   1      31.104 -15.845  -6.741  0.00  0.00     0.004 C 
ATOM     35  C   UNL d   1      31.174 -17.126  -7.266  0.00  0.00     0.024 C 
ATOM     36  C   UNL d   1      30.725 -18.203  -6.501  0.00  0.00     0.036 C 
ATOM     37 CL   UNL d   1      30.789 -19.784  -7.187  0.00  0.00    -0.084 Cl
ATOM     38  C   UNL d   1      30.182 -18.009  -5.220  0.00  0.00     0.053 C 
ENDBRANCH  30  32
ENDBRANCH  28  30
ENDBRANCH   1  28
TORSDOF 11
ENDMDL
MODEL 6
REMARK VINA RESULT:    -9.687      4.340      7.064
REMARK INTER + INTRA:         -15.164
REMARK INTER:                 -12.968
REMARK INTRA:                  -2.195
REMARK CONF_INDEPENDENT:        3.281
REMARK UNBOUND:                -2.195
REMARK  11 active torsions:
REMARK  status: ('A' for Active; 'I' for Inactive)
REMARK    1  A    between atoms: C_2  and  N_3 
REMARK    2  A    between atoms: N_3  and  C_4 
REMARK    3  A    between atoms: N_3  and  C_6 
REMARK    4  A    between atoms: C_6  and  C_7 
REMARK    5  A    between atoms: C_7  and  C_8 
REMARK    6  A    between atoms: C_8  and  N_9 
REMARK    7  A    between atoms: N_9  and  C_10 
REMARK    8  A    between atoms: N_9  and  C_26 
REMARK    9  A    between atoms: C_10  and  C_11 
REMARK   10  A    between atoms: C_26  and  N_28 
REMARK   11  A    between atoms: N_28  and  C_29 
ROOT
ATOM      1  N   UNL d   1      29.478 -16.049  -2.583  0.00  0.00    -0.354 N 
ENDROOT
BRANCH   1   2
ATOM      2  C   UNL d   1      30.654 -16.902  -2.047  0.00  0.00     0.127 C 
BRANCH   2   3
ATOM      3  C   UNL d   1      31.335 -16.559  -0.748  0.00  0.00     0.048 C 
BRANCH   3   4
ATOM      4  C   UNL d   1      31.330 -15.274   0.062  0.00  0.00     0.236 C 
BRANCH   4   5
ATOM      5  N   UNL d   1      30.961 -15.568   1.689  0.00  0.00    -0.072 N 
ATOM      6  H   UNL d   1      30.409 -16.440   1.616  0.00  0.00     0.279 HD
BRANCH   5   7
ATOM      7  C   UNL d   1      32.287 -15.941   2.277  0.00  0.00     0.230 C 
ATOM      8  C   UNL d   1      32.432 -17.429   2.427  0.00  0.00     0.034 C 
ENDBRANCH   5   7
BRANCH   5   9
ATOM      9  C   UNL d   1      30.266 -14.336   2.725  0.00  0.00     0.230 C 
ATOM     10  C   UNL d   1      28.723 -14.119   2.781  0.00  0.00     0.034 C 
ENDBRANCH   5   9
ENDBRANCH   4   5
ENDBRANCH   3   4
ENDBRANCH   2   3
ENDBRANCH   1   2
BRANCH   1  11
ATOM     11  C   UNL d   1      28.471 -15.190  -1.788  0.00  0.00     0.169 C 
BRANCH  11  12
ATOM     12  C   UNL d   1      27.180 -15.727  -1.246  0.00  0.00     0.029 C 
ATOM     13  C   UNL d   1      25.870 -15.542  -1.578  0.00  0.00     0.028 C 
ATOM     14  C   UNL d   1      24.785 -16.472  -1.104  0.00  0.00    -0.006 C 
ATOM     15  C   UNL d   1      23.405 -16.402  -1.267  0.00  0.00     0.053 C 
ATOM     16  C   UNL d   1      25.234 -17.675  -0.647  0.00  0.00     0.048 C 
ATOM     17  C   UNL d   1      22.539 -17.456  -0.848  0.00  0.00     0.103 C 
ATOM     18  C   UNL d   1      23.057 -18.641  -0.382  0.00  0.00     0.104 C 
ATOM     19  O   UNL d   1      21.185 -17.314  -0.997  0.00  0.00    -0.346 OA
ATOM     20  C   UNL d   1      24.407 -18.796  -0.521  0.00  0.00     0.070 C 
ATOM     21  O   UNL d   1      22.341 -19.676   0.169  0.00  0.00    -0.346 OA
ATOM     22  C   UNL d   1      20.979 -19.278   0.426  0.00  0.00     0.202 C 
ATOM     23  C   UNL d   1      20.488 -18.572  -0.825  0.00  0.00     0.202 C 
ATOM     24  N   UNL d   1      26.535 -17.652  -0.209  0.00  0.00    -0.322 N 
ATOM     25  C   UNL d   1      27.369 -16.595  -0.111  0.00  0.00     0.253 C 
ATOM     26  H   UNL d   1      27.068 -18.466  -0.141  0.00  0.00     0.169 HD
ATOM     27  O   UNL d   1      28.398 -16.625   0.589  0.00  0.00    -0.268 OA
ENDBRANCH  11  12
ENDBRANCH   1  11
BRANCH   1  28
ATOM     28  C   UNL d   1      29.463 -15.951  -4.033  0.00  0.00     0.174 C 
ATOM     29  S   UNL d   1      28.158 -15.217  -4.858  0.00  0.00    -0.041 SA
BRANCH  28  30
ATOM     30  N   UNL d   1      30.576 -16.521  -4.697  0.00  0.00    -0.333 N 
ATOM     31  H   UNL d   1      31.507 -16.238  -4.431  0.00  0.00     0.168 HD
BRANCH  30  32
ATOM     32  C   UNL d   1      30.522 -17.770  -5.394  0.00  0.00     0.035 C 
ATOM     33  C   UNL d   1      30.397 -18.961  -4.668  0.00  0.00     0.029 C 
ATOM     34  C   UNL d   1      30.504 -20.205  -5.282  0.00  0.00     0.004 C 
ATOM     35  C   UNL d   1      30.802 -20.273  -6.635  0.00  0.00     0.024 C 
ATOM     36  C   UNL d   1      30.850 -19.097  -7.383  0.00  0.00     0.036 C 
ATOM     37 CL   UNL d   1      31.258 -19.202  -9.055  0.00  0.00    -0.084 Cl
ATOM     38  C   UNL d   1      30.624 -17.845  -6.787  0.00  0.00     0.053 C 
ENDBRANCH  30  32
ENDBRANCH  28  30
ENDBRANCH   1  28
TORSDOF 11
ENDMDL
MODEL 7
REMARK VINA RESULT:    -9.677      3.685      7.702
REMARK INTER + INTRA:         -15.373
REMARK INTER:                 -12.958
REMARK INTRA:                  -2.415
REMARK CONF_INDEPENDENT:        3.281
REMARK UNBOUND:                -2.415
REMARK  11 active torsions:
REMARK  status: ('A' for Active; 'I' for Inactive)
REMARK    1  A    between atoms: C_2  and  N_3 
REMARK    2  A    between atoms: N_3  and  C_4 
REMARK    3  A    between atoms: N_3  and  C_6 
REMARK    4  A    between atoms: C_6  and  C_7 
REMARK    5  A    between atoms: C_7  and  C_8 
REMARK    6  A    between atoms: C_8  and  N_9 
REMARK    7  A    between atoms: N_9  and  C_10 
REMARK    8  A    between atoms: N_9  and  C_26 
REMARK    9  A    between atoms: C_10  and  C_11 
REMARK   10  A    between atoms: C_26  and  N_28 
REMARK   11  A    between atoms: N_28  and  C_29 
ROOT
ATOM      1  N   UNL d   1      27.181 -14.505  -1.195  0.00  0.00    -0.354 N 
ENDROOT
BRANCH   1   2
ATOM      2  C   UNL d   1      28.686 -14.478  -1.559  0.00  0.00     0.127 C 
BRANCH   2   3
ATOM      3  C   UNL d   1      29.423 -15.744  -1.913  0.00  0.00     0.048 C 
BRANCH   3   4
ATOM      4  C   UNL d   1      29.644 -17.016  -1.113  0.00  0.00     0.236 C 
BRANCH   4   5
ATOM      5  N   UNL d   1      30.697 -16.754   0.189  0.00  0.00    -0.072 N 
ATOM      6  H   UNL d   1      30.131 -17.109   0.980  0.00  0.00     0.279 HD
BRANCH   5   7
ATOM      7  C   UNL d   1      31.788 -17.752  -0.048  0.00  0.00     0.230 C 
ATOM      8  C   UNL d   1      32.480 -18.135   1.230  0.00  0.00     0.034 C 
ENDBRANCH   5   7
BRANCH   5   9
ATOM      9  C   UNL d   1      31.467 -15.204   0.468  0.00  0.00     0.230 C 
ATOM     10  C   UNL d   1      31.396 -14.517   1.866  0.00  0.00     0.034 C 
ENDBRANCH   5   9
ENDBRANCH   4   5
ENDBRANCH   3   4
ENDBRANCH   2   3
ENDBRANCH   1   2
BRANCH   1  11
ATOM     11  C   UNL d   1      26.488 -13.968   0.075  0.00  0.00     0.169 C 
BRANCH  11  12
ATOM     12  C   UNL d   1      27.214 -13.710   1.362  0.00  0.00     0.029 C 
ATOM     13  C   UNL d   1      27.252 -12.657   2.228  0.00  0.00     0.028 C 
ATOM     14  C   UNL d   1      27.790 -12.791   3.628  0.00  0.00    -0.006 C 
ATOM     15  C   UNL d   1      27.983 -11.828   4.614  0.00  0.00     0.053 C 
ATOM     16  C   UNL d   1      27.887 -14.075   4.074  0.00  0.00     0.048 C 
ATOM     17  C   UNL d   1      28.391 -12.172   5.937  0.00  0.00     0.103 C 
ATOM     18  C   UNL d   1      28.483 -13.489   6.320  0.00  0.00     0.104 C 
ATOM     19  O   UNL d   1      28.605 -11.177   6.855  0.00  0.00    -0.346 OA
ATOM     20  C   UNL d   1      27.994 -14.402   5.430  0.00  0.00     0.070 C 
ATOM     21  O   UNL d   1      28.984 -13.951   7.512  0.00  0.00    -0.346 OA
ATOM     22  C   UNL d   1      29.635 -12.892   8.242  0.00  0.00     0.202 C 
ATOM     23  C   UNL d   1      28.699 -11.698   8.203  0.00  0.00     0.202 C 
ATOM     24  N   UNL d   1      27.992 -15.006   3.069  0.00  0.00    -0.322 N 
ATOM     25  C   UNL d   1      28.083 -14.797   1.740  0.00  0.00     0.253 C 
ATOM     26  H   UNL d   1      27.772 -15.944   3.215  0.00  0.00     0.169 HD
ATOM     27  O   UNL d   1      28.494 -15.675   0.957  0.00  0.00    -0.268 OA
ENDBRANCH  11  12
ENDBRANCH   1  11
BRANCH   1  28
ATOM     28  C   UNL d   1      26.341 -14.956  -2.292  0.00  0.00     0.174 C 
ATOM     29  S   UNL d   1      26.953 -15.080  -3.883  0.00  0.00    -0.041 SA
BRANCH  28  30
ATOM     30  N   UNL d   1      24.999 -15.255  -1.954  0.00  0.00    -0.333 N 
ATOM     31  H   UNL d   1      24.251 -14.830  -2.481  0.00  0.00     0.168 HD
BRANCH  30  32
ATOM     32  C   UNL d   1      24.611 -16.431  -1.235  0.00  0.00     0.035 C 
ATOM     33  C   UNL d   1      25.587 -17.203  -0.594  0.00  0.00     0.029 C 
ATOM     34  C   UNL d   1      25.285 -18.435  -0.024  0.00  0.00     0.004 C 
ATOM     35  C   UNL d   1      24.002 -18.946  -0.145  0.00  0.00     0.024 C 
ATOM     36  C   UNL d   1      23.003 -18.154  -0.712  0.00  0.00     0.036 C 
ATOM     37 CL   UNL d   1      21.422 -18.821  -0.886  0.00  0.00    -0.084 Cl
ATOM     38  C   UNL d   1      23.280 -16.858  -1.181  0.00  0.00     0.053 C 
ENDBRANCH  30  32
ENDBRANCH  28  30
ENDBRANCH   1  28
TORSDOF 11
ENDMDL
MODEL 8
REMARK VINA RESULT:    -9.561      2.197      3.850
REMARK INTER + INTRA:         -15.653
REMARK INTER:                 -12.842
REMARK INTRA:                  -2.811
REMARK CONF_INDEPENDENT:        3.281
REMARK UNBOUND:                -2.811
REMARK  11 active torsions:
REMARK  status: ('A' for Active; 'I' for Inactive)
REMARK    1  A    between atoms: C_2  and  N_3 
REMARK    2  A    between atoms: N_3  and  C_4 
REMARK    3  A    between atoms: N_3  and  C_6 
REMARK    4  A    between atoms: C_6  and  C_7 
REMARK    5  A    between atoms: C_7  and  C_8 
REMARK    6  A    between atoms: C_8  and  N_9 
REMARK    7  A    between atoms: N_9  and  C_10 
REMARK    8  A    between atoms: N_9  and  C_26 
REMARK    9  A    between atoms: C_10  and  C_11 
REMARK   10  A    between atoms: C_26  and  N_28 
REMARK   11  A    between atoms: N_28  and  C_29 
ROOT
ATOM      1  N   UNL d   1      28.286 -14.581   0.218  0.00  0.00    -0.354 N 
ENDROOT
BRANCH   1   2
ATOM      2  C   UNL d   1      29.286 -13.473  -0.196  0.00  0.00     0.127 C 
BRANCH   2   3
ATOM      3  C   UNL d   1      29.001 -12.567  -1.365  0.00  0.00     0.048 C 
BRANCH   3   4
ATOM      4  C   UNL d   1      27.686 -12.033  -1.905  0.00  0.00     0.236 C 
BRANCH   4   5
ATOM      5  N   UNL d   1      27.157 -12.926  -3.244  0.00  0.00    -0.072 N 
ATOM      6  H   UNL d   1      27.074 -13.874  -2.835  0.00  0.00     0.279 HD
BRANCH   5   7
ATOM      7  C   UNL d   1      25.763 -12.423  -3.462  0.00  0.00     0.230 C 
ATOM      8  C   UNL d   1      24.814 -13.538  -3.800  0.00  0.00     0.034 C 
ENDBRANCH   5   7
BRANCH   5   9
ATOM      9  C   UNL d   1      27.976 -12.859  -4.793  0.00  0.00     0.230 C 
ATOM     10  C   UNL d   1      29.070 -13.907  -5.163  0.00  0.00     0.034 C 
ENDBRANCH   5   9
ENDBRANCH   4   5
ENDBRANCH   3   4
ENDBRANCH   2   3
ENDBRANCH   1   2
BRANCH   1  11
ATOM     11  C   UNL d   1      28.167 -16.022  -0.322  0.00  0.00     0.169 C 
BRANCH  11  12
ATOM     12  C   UNL d   1      26.853 -16.681  -0.623  0.00  0.00     0.029 C 
ATOM     13  C   UNL d   1      26.156 -17.698  -0.042  0.00  0.00     0.028 C 
ATOM     14  C   UNL d   1      24.696 -17.934  -0.327  0.00  0.00    -0.006 C 
ATOM     15  C   UNL d   1      23.848 -18.952   0.098  0.00  0.00     0.053 C 
ATOM     16  C   UNL d   1      24.056 -16.874  -0.897  0.00  0.00     0.048 C 
ATOM     17  C   UNL d   1      22.449 -18.936  -0.178  0.00  0.00     0.103 C 
ATOM     18  C   UNL d   1      21.866 -17.840  -0.769  0.00  0.00     0.104 C 
ATOM     19  O   UNL d   1      21.670 -19.986   0.231  0.00  0.00    -0.346 OA
ATOM     20  C   UNL d   1      22.664 -16.738  -0.895  0.00  0.00     0.070 C 
ATOM     21  O   UNL d   1      20.566 -17.751  -1.203  0.00  0.00    -0.346 OA
ATOM     22  C   UNL d   1      19.928 -19.044  -1.184  0.00  0.00     0.202 C 
ATOM     23  C   UNL d   1      20.258 -19.672   0.158  0.00  0.00     0.202 C 
ATOM     24  N   UNL d   1      24.890 -16.020  -1.575  0.00  0.00    -0.322 N 
ATOM     25  C   UNL d   1      26.215 -16.144  -1.798  0.00  0.00     0.253 C 
ATOM     26  H   UNL d   1      24.635 -15.098  -1.767  0.00  0.00     0.169 HD
ATOM     27  O   UNL d   1      26.802 -15.492  -2.683  0.00  0.00    -0.268 OA
ENDBRANCH  11  12
ENDBRANCH   1  11
BRANCH   1  28
ATOM     28  C   UNL d   1      27.487 -14.219   1.377  0.00  0.00     0.174 C 
ATOM     29  S   UNL d   1      26.294 -12.998   1.284  0.00  0.00    -0.041 SA
BRANCH  28  30
ATOM     30  N   UNL d   1      27.784 -14.920   2.570  0.00  0.00    -0.333 N 
ATOM     31  H   UNL d   1      28.008 -15.903   2.521  0.00  0.00     0.168 HD
BRANCH  30  32
ATOM     32  C   UNL d   1      28.226 -14.280   3.772  0.00  0.00     0.035 C 
ATOM     33  C   UNL d   1      28.626 -15.059   4.863  0.00  0.00     0.029 C 
ATOM     34  C   UNL d   1      28.907 -14.491   6.102  0.00  0.00     0.004 C 
ATOM     35  C   UNL d   1      28.729 -13.128   6.282  0.00  0.00     0.024 C 
ATOM     36  C   UNL d   1      28.407 -12.331   5.184  0.00  0.00     0.036 C 
ATOM     37 CL   UNL d   1      28.154 -10.644   5.437  0.00  0.00    -0.084 Cl
ATOM     38  C   UNL d   1      28.239 -12.887   3.904  0.00  0.00     0.053 C 
ENDBRANCH  30  32
ENDBRANCH  28  30
ENDBRANCH   1  28
TORSDOF 11
ENDMDL
MODEL 9
REMARK VINA RESULT:    -9.531      3.652      6.257
REMARK INTER + INTRA:         -15.339
REMARK INTER:                 -12.812
REMARK INTRA:                  -2.527
REMARK CONF_INDEPENDENT:        3.281
REMARK UNBOUND:                -2.527
REMARK  11 active torsions:
REMARK  status: ('A' for Active; 'I' for Inactive)
REMARK    1  A    between atoms: C_2  and  N_3 
REMARK    2  A    between atoms: N_3  and  C_4 
REMARK    3  A    between atoms: N_3  and  C_6 
REMARK    4  A    between atoms: C_6  and  C_7 
REMARK    5  A    between atoms: C_7  and  C_8 
REMARK    6  A    between atoms: C_8  and  N_9 
REMARK    7  A    between atoms: N_9  and  C_10 
REMARK    8  A    between atoms: N_9  and  C_26 
REMARK    9  A    between atoms: C_10  and  C_11 
REMARK   10  A    between atoms: C_26  and  N_28 
REMARK   11  A    between atoms: N_28  and  C_29 
ROOT
ATOM      1  N   UNL d   1      28.778 -15.813  -1.489  0.00  0.00    -0.354 N 
ENDROOT
BRANCH   1   2
ATOM      2  C   UNL d   1      30.076 -16.136  -0.708  0.00  0.00     0.127 C 
BRANCH   2   3
ATOM      3  C   UNL d   1      30.358 -15.498   0.627  0.00  0.00     0.048 C 
BRANCH   3   4
ATOM      4  C   UNL d   1      29.825 -14.217   1.244  0.00  0.00     0.236 C 
BRANCH   4   5
ATOM      5  N   UNL d   1      28.854 -14.536   2.595  0.00  0.00    -0.072 N 
ATOM      6  H   UNL d   1      28.832 -15.571   2.587  0.00  0.00     0.279 HD
BRANCH   5   7
ATOM      7  C   UNL d   1      29.723 -14.128   3.744  0.00  0.00     0.230 C 
ATOM      8  C   UNL d   1      29.235 -14.703   5.044  0.00  0.00     0.034 C 
ENDBRANCH   5   7
BRANCH   5   9
ATOM      9  C   UNL d   1      27.296 -13.765   2.827  0.00  0.00     0.230 C 
ATOM     10  C   UNL d   1      26.906 -12.495   2.013  0.00  0.00     0.034 C 
ENDBRANCH   5   9
ENDBRANCH   4   5
ENDBRANCH   3   4
ENDBRANCH   2   3
ENDBRANCH   1   2
BRANCH   1  11
ATOM     11  C   UNL d   1      27.530 -15.043  -1.007  0.00  0.00     0.169 C 
BRANCH  11  12
ATOM     12  C   UNL d   1      26.255 -15.719  -0.596  0.00  0.00     0.029 C 
ATOM     13  C   UNL d   1      24.962 -15.627  -1.020  0.00  0.00     0.028 C 
ATOM     14  C   UNL d   1      23.932 -16.672  -0.680  0.00  0.00    -0.006 C 
ATOM     15  C   UNL d   1      22.567 -16.711  -0.947  0.00  0.00     0.053 C 
ATOM     16  C   UNL d   1      24.453 -17.857  -0.252  0.00  0.00     0.048 C 
ATOM     17  C   UNL d   1      21.771 -17.858  -0.652  0.00  0.00     0.103 C 
ATOM     18  C   UNL d   1      22.357 -19.019  -0.209  0.00  0.00     0.104 C 
ATOM     19  O   UNL d   1      20.424 -17.823  -0.900  0.00  0.00    -0.346 OA
ATOM     20  C   UNL d   1      23.722 -19.050  -0.250  0.00  0.00     0.070 C 
ATOM     21  O   UNL d   1      21.697 -20.142   0.230  0.00  0.00    -0.346 OA
ATOM     22  C   UNL d   1      20.290 -19.877   0.400  0.00  0.00     0.202 C 
ATOM     23  C   UNL d   1      19.831 -19.143  -0.847  0.00  0.00     0.202 C 
ATOM     24  N   UNL d   1      25.711 -17.749   0.287  0.00  0.00    -0.322 N 
ATOM     25  C   UNL d   1      26.437 -16.633   0.504  0.00  0.00     0.253 C 
ATOM     26  H   UNL d   1      26.308 -18.517   0.354  0.00  0.00     0.169 HD
ATOM     27  O   UNL d   1      27.411 -16.616   1.280  0.00  0.00    -0.268 OA
ENDBRANCH  11  12
ENDBRANCH   1  11
BRANCH   1  28
ATOM     28  C   UNL d   1      28.863 -16.160  -2.898  0.00  0.00     0.174 C 
ATOM     29  S   UNL d   1      30.259 -16.907  -3.543  0.00  0.00    -0.041 SA
BRANCH  28  30
ATOM     30  N   UNL d   1      27.736 -15.817  -3.684  0.00  0.00    -0.333 N 
ATOM     31  H   UNL d   1      26.868 -16.313  -3.543  0.00  0.00     0.168 HD
BRANCH  30  32
ATOM     32  C   UNL d   1      27.588 -14.553  -4.338  0.00  0.00     0.035 C 
ATOM     33  C   UNL d   1      26.396 -13.834  -4.191  0.00  0.00     0.029 C 
ATOM     34  C   UNL d   1      26.140 -12.685  -4.933  0.00  0.00     0.004 C 
ATOM     35  C   UNL d   1      27.058 -12.272  -5.887  0.00  0.00     0.024 C 
ATOM     36  C   UNL d   1      28.282 -12.933  -5.987  0.00  0.00     0.036 C 
ATOM     37 CL   UNL d   1      29.394 -12.425  -7.204  0.00  0.00    -0.084 Cl
ATOM     38  C   UNL d   1      28.592 -14.022  -5.155  0.00  0.00     0.053 C 
ENDBRANCH  30  32
ENDBRANCH  28  30
ENDBRANCH   1  28
TORSDOF 11
ENDMDL
