MODEL 1
REMARK VINA RESULT:   -10.793      0.000      0.000
REMARK INTER + INTRA:         -16.290
REMARK INTER:                 -14.074
REMARK INTRA:                  -2.215
REMARK CONF_INDEPENDENT:        3.281
REMARK UNBOUND:                -2.215
REMARK  11 active torsions:
REMARK  status: ('A' for Active; 'I' for Inactive)
REMARK    1  A    between atoms: C_2  and  C_3 
REMARK       I    between atoms: C_2  and  N_13 
REMARK    2  A    between atoms: C_3  and  N_4 
REMARK    3  A    between atoms: N_13  and  N_14 
REMARK    4  A    between atoms: N_14  and  C_15 
REMARK    5  A    between atoms: C_15  and  N_17 
REMARK       I    between atoms: N_17  and  C_18 
REMARK    6  A    between atoms: C_18  and  C_20 
REMARK    7  A    between atoms: C_25  and  O_26 
REMARK    8  A    between atoms: O_26  and  C_27 
REMARK    9  A    between atoms: C_27  and  C_28 
REMARK   10  A    between atoms: C_28  and  O_29 
REMARK   11  A    between atoms: O_29  and  C_30 
ROOT
ATOM      1  N   UNL d   1      26.199 -13.749  -1.991  0.00  0.00    -0.298 N 
ATOM      2  C   UNL d   1      25.385 -14.896  -1.978  0.00  0.00     0.260 C 
ATOM      3  O   UNL d   1      24.243 -14.928  -2.445  0.00  0.00    -0.267 OA
ATOM      4  H   UNL d   1      26.985 -13.746  -1.357  0.00  0.00     0.171 HD
ENDROOT
BRANCH   1   5
ATOM      5  C   UNL d   1      26.080 -12.675  -2.900  0.00  0.00     0.193 C 
ATOM      6  S   UNL d   1      26.912 -11.210  -2.791  0.00  0.00    -0.039 SA
BRANCH   5   7
ATOM      7  N   UNL d   1      25.182 -12.904  -3.962  0.00  0.00    -0.273 N 
ATOM      8  H   UNL d   1      24.463 -12.246  -4.234  0.00  0.00     0.189 HD
BRANCH   7   9
ATOM      9  N   UNL d   1      25.220 -14.176  -4.607  0.00  0.00    -0.266 N 
ATOM     10  C   UNL d   1      26.286 -14.820  -5.195  0.00  0.00     0.254 C 
ATOM     11  O   UNL d   1      26.097 -15.935  -5.683  0.00  0.00    -0.270 OA
ATOM     12  H   UNL d   1      24.335 -14.692  -4.623  0.00  0.00     0.190 HD
BRANCH  10  13
ATOM     13  C   UNL d   1      27.623 -14.110  -5.216  0.00  0.00     0.233 C 
BRANCH  13  14
ATOM     14  N   UNL d   1      28.747 -14.934  -5.662  0.00  0.00    -0.347 N 
ATOM     15  C   UNL d   1      29.349 -14.816  -6.895  0.00  0.00     0.092 A 
ATOM     16  C   UNL d   1      30.390 -15.710  -6.958  0.00  0.00     0.031 A 
ATOM     17  C   UNL d   1      30.461 -16.375  -5.708  0.00  0.00    -0.008 A 
ATOM     18  C   UNL d   1      31.323 -17.368  -5.199  0.00  0.00     0.014 A 
ATOM     19  C   UNL d   1      29.429 -15.875  -4.904  0.00  0.00     0.044 A 
ATOM     20  C   UNL d   1      31.143 -17.834  -3.896  0.00  0.00     0.001 A 
ATOM     21  C   UNL d   1      30.114 -17.329  -3.107  0.00  0.00     0.002 A 
ATOM     22  C   UNL d   1      29.241 -16.345  -3.592  0.00  0.00     0.030 A 
ENDBRANCH  13  14
ENDBRANCH  10  13
ENDBRANCH   7   9
ENDBRANCH   5   7
ENDBRANCH   1   5
BRANCH   2  23
ATOM     23  C   UNL d   1      25.809 -16.118  -1.236  0.00  0.00     0.065 A 
ATOM     24  C   UNL d   1      27.200 -16.305  -1.131  0.00  0.00     0.020 A 
ATOM     25  C   UNL d   1      27.730 -17.391  -0.426  0.00  0.00     0.001 A 
ATOM     26  C   UNL d   1      26.887 -18.227   0.296  0.00  0.00     0.003 A 
ATOM     27  C   UNL d   1      25.514 -17.967   0.319  0.00  0.00     0.038 A 
ATOM     28  C   UNL d   1      24.943 -16.954  -0.485  0.00  0.00     0.084 A 
BRANCH  28  29
ATOM     29  O   UNL d   1      23.561 -16.965  -0.422  0.00  0.00    -0.348 OA
BRANCH  29  30
ATOM     30  C   UNL d   1      22.879 -17.886  -1.271  0.00  0.00     0.202 C 
BRANCH  30  31
ATOM     31  C   UNL d   1      22.362 -19.133  -0.569  0.00  0.00     0.202 C 
BRANCH  31  32
ATOM     32  O   UNL d   1      21.635 -18.691   0.596  0.00  0.00    -0.349 OA
BRANCH  32  33
ATOM     33  C   UNL d   1      20.468 -19.367   0.816  0.00  0.00     0.068 C 
ATOM     34  C   UNL d   1      20.008 -19.694   2.089  0.00  0.00     0.037 C 
ATOM     35  C   UNL d   1      18.904 -20.530   2.237  0.00  0.00     0.003 C 
ATOM     36  C   UNL d   1      18.173 -20.921   1.118  0.00  0.00     0.000 C 
ATOM     37  C   UNL d   1      18.531 -20.450  -0.145  0.00  0.00     0.003 C 
ATOM     38  C   UNL d   1      19.701 -19.704  -0.301  0.00  0.00     0.037 C 
ENDBRANCH  32  33
ENDBRANCH  31  32
ENDBRANCH  30  31
ENDBRANCH  29  30
ENDBRANCH  28  29
ENDBRANCH   2  23
TORSDOF 11
ENDMDL
MODEL 2
REMARK VINA RESULT:   -10.585      2.092      3.513
REMARK INTER + INTRA:         -15.986
REMARK INTER:                 -13.866
REMARK INTRA:                  -2.120
REMARK CONF_INDEPENDENT:        3.281
REMARK UNBOUND:                -2.120
REMARK  11 active torsions:
REMARK  status: ('A' for Active; 'I' for Inactive)
REMARK    1  A    between atoms: C_2  and  C_3 
REMARK       I    between atoms: C_2  and  N_13 
REMARK    2  A    between atoms: C_3  and  N_4 
REMARK    3  A    between atoms: N_13  and  N_14 
REMARK    4  A    between atoms: N_14  and  C_15 
REMARK    5  A    between atoms: C_15  and  N_17 
REMARK       I    between atoms: N_17  and  C_18 
REMARK    6  A    between atoms: C_18  and  C_20 
REMARK    7  A    between atoms: C_25  and  O_26 
REMARK    8  A    between atoms: O_26  and  C_27 
REMARK    9  A    between atoms: C_27  and  C_28 
REMARK   10  A    between atoms: C_28  and  O_29 
REMARK   11  A    between atoms: O_29  and  C_30 
ROOT
ATOM      1  N   UNL d   1      26.081 -13.533  -2.019  0.00  0.00    -0.298 N 
ATOM      2  C   UNL d   1      25.358 -14.736  -2.123  0.00  0.00     0.260 C 
ATOM      3  O   UNL d   1      24.314 -14.850  -2.769  0.00  0.00    -0.267 OA
ATOM      4  H   UNL d   1      26.750 -13.472  -1.264  0.00  0.00     0.171 HD
ENDROOT
BRANCH   1   5
ATOM      5  C   UNL d   1      26.038 -12.473  -2.950  0.00  0.00     0.193 C 
ATOM      6  S   UNL d   1      26.655 -10.923  -2.690  0.00  0.00    -0.039 SA
BRANCH   5   7
ATOM      7  N   UNL d   1      25.422 -12.795  -4.176  0.00  0.00    -0.273 N 
ATOM      8  H   UNL d   1      24.695 -12.232  -4.597  0.00  0.00     0.189 HD
BRANCH   7   9
ATOM      9  N   UNL d   1      25.762 -14.038  -4.789  0.00  0.00    -0.266 N 
ATOM     10  C   UNL d   1      26.964 -14.438  -5.332  0.00  0.00     0.254 C 
ATOM     11  O   UNL d   1      27.042 -15.575  -5.798  0.00  0.00    -0.270 OA
ATOM     12  H   UNL d   1      25.015 -14.738  -4.817  0.00  0.00     0.190 HD
BRANCH  10  13
ATOM     13  C   UNL d   1      28.109 -13.448  -5.332  0.00  0.00     0.233 C 
BRANCH  13  14
ATOM     14  N   UNL d   1      28.228 -12.650  -6.553  0.00  0.00    -0.347 N 
ATOM     15  C   UNL d   1      29.014 -12.998  -7.629  0.00  0.00     0.092 A 
ATOM     16  C   UNL d   1      28.853 -12.049  -8.609  0.00  0.00     0.031 A 
ATOM     17  C   UNL d   1      27.906 -11.104  -8.141  0.00  0.00    -0.008 A 
ATOM     18  C   UNL d   1      27.349  -9.942  -8.713  0.00  0.00     0.014 A 
ATOM     19  C   UNL d   1      27.519 -11.496  -6.853  0.00  0.00     0.044 A 
ATOM     20  C   UNL d   1      26.411  -9.201  -7.992  0.00  0.00     0.001 A 
ATOM     21  C   UNL d   1      26.034  -9.601  -6.714  0.00  0.00     0.002 A 
ATOM     22  C   UNL d   1      26.577 -10.750  -6.122  0.00  0.00     0.030 A 
ENDBRANCH  13  14
ENDBRANCH  10  13
ENDBRANCH   7   9
ENDBRANCH   5   7
ENDBRANCH   1   5
BRANCH   2  23
ATOM     23  C   UNL d   1      25.739 -15.922  -1.304  0.00  0.00     0.065 A 
ATOM     24  C   UNL d   1      27.085 -15.965  -0.897  0.00  0.00     0.020 A 
ATOM     25  C   UNL d   1      27.562 -17.004  -0.091  0.00  0.00     0.001 A 
ATOM     26  C   UNL d   1      26.677 -17.940   0.431  0.00  0.00     0.003 A 
ATOM     27  C   UNL d   1      25.312 -17.826   0.152  0.00  0.00     0.038 A 
ATOM     28  C   UNL d   1      24.825 -16.861  -0.759  0.00  0.00     0.084 A 
BRANCH  28  29
ATOM     29  O   UNL d   1      23.472 -17.018  -1.000  0.00  0.00    -0.348 OA
BRANCH  29  30
ATOM     30  C   UNL d   1      23.050 -18.264  -1.549  0.00  0.00     0.202 C 
BRANCH  30  31
ATOM     31  C   UNL d   1      22.661 -19.314  -0.519  0.00  0.00     0.202 C 
BRANCH  31  32
ATOM     32  O   UNL d   1      21.818 -18.661   0.452  0.00  0.00    -0.349 OA
BRANCH  32  33
ATOM     33  C   UNL d   1      20.659 -19.331   0.726  0.00  0.00     0.068 C 
ATOM     34  C   UNL d   1      20.236 -19.618   2.021  0.00  0.00     0.037 C 
ATOM     35  C   UNL d   1      19.138 -20.449   2.226  0.00  0.00     0.003 C 
ATOM     36  C   UNL d   1      18.375 -20.875   1.142  0.00  0.00     0.000 C 
ATOM     37  C   UNL d   1      18.697 -20.443  -0.145  0.00  0.00     0.003 C 
ATOM     38  C   UNL d   1      19.861 -19.702  -0.357  0.00  0.00     0.037 C 
ENDBRANCH  32  33
ENDBRANCH  31  32
ENDBRANCH  30  31
ENDBRANCH  29  30
ENDBRANCH  28  29
ENDBRANCH   2  23
TORSDOF 11
ENDMDL
MODEL 3
REMARK VINA RESULT:   -10.030      1.541      1.924
REMARK INTER + INTRA:         -16.264
REMARK INTER:                 -13.311
REMARK INTRA:                  -2.953
REMARK CONF_INDEPENDENT:        3.281
REMARK UNBOUND:                -2.953
REMARK  11 active torsions:
REMARK  status: ('A' for Active; 'I' for Inactive)
REMARK    1  A    between atoms: C_2  and  C_3 
REMARK       I    between atoms: C_2  and  N_13 
REMARK    2  A    between atoms: C_3  and  N_4 
REMARK    3  A    between atoms: N_13  and  N_14 
REMARK    4  A    between atoms: N_14  and  C_15 
REMARK    5  A    between atoms: C_15  and  N_17 
REMARK       I    between atoms: N_17  and  C_18 
REMARK    6  A    between atoms: C_18  and  C_20 
REMARK    7  A    between atoms: C_25  and  O_26 
REMARK    8  A    between atoms: O_26  and  C_27 
REMARK    9  A    between atoms: C_27  and  C_28 
REMARK   10  A    between atoms: C_28  and  O_29 
REMARK   11  A    between atoms: O_29  and  C_30 
ROOT
ATOM      1  N   UNL d   1      25.598 -13.999  -2.207  0.00  0.00    -0.298 N 
ATOM      2  C   UNL d   1      25.790 -15.333  -2.610  0.00  0.00     0.260 C 
ATOM      3  O   UNL d   1      25.774 -15.699  -3.788  0.00  0.00    -0.267 OA
ATOM      4  H   UNL d   1      25.359 -13.850  -1.236  0.00  0.00     0.171 HD
ENDROOT
BRANCH   1   5
ATOM      5  C   UNL d   1      25.838 -12.862  -3.009  0.00  0.00     0.193 C 
ATOM      6  S   UNL d   1      26.529 -11.419  -2.471  0.00  0.00    -0.039 SA
BRANCH   5   7
ATOM      7  N   UNL d   1      25.450 -13.005  -4.357  0.00  0.00    -0.273 N 
ATOM      8  H   UNL d   1      25.123 -13.876  -4.752  0.00  0.00     0.189 HD
BRANCH   7   9
ATOM      9  N   UNL d   1      25.641 -11.891  -5.228  0.00  0.00    -0.266 N 
ATOM     10  C   UNL d   1      26.816 -11.300  -5.638  0.00  0.00     0.254 C 
ATOM     11  O   UNL d   1      26.748 -10.349  -6.418  0.00  0.00    -0.270 OA
ATOM     12  H   UNL d   1      24.786 -11.482  -5.618  0.00  0.00     0.190 HD
BRANCH  10  13
ATOM     13  C   UNL d   1      28.117 -11.849  -5.093  0.00  0.00     0.233 C 
BRANCH  13  14
ATOM     14  N   UNL d   1      28.340 -13.271  -5.356  0.00  0.00    -0.347 N 
ATOM     15  C   UNL d   1      28.124 -13.873  -6.575  0.00  0.00     0.092 A 
ATOM     16  C   UNL d   1      28.476 -15.197  -6.474  0.00  0.00     0.031 A 
ATOM     17  C   UNL d   1      28.963 -15.413  -5.161  0.00  0.00    -0.008 A 
ATOM     18  C   UNL d   1      29.469 -16.552  -4.502  0.00  0.00     0.014 A 
ATOM     19  C   UNL d   1      28.877 -14.196  -4.473  0.00  0.00     0.044 A 
ATOM     20  C   UNL d   1      29.887 -16.452  -3.174  0.00  0.00     0.001 A 
ATOM     21  C   UNL d   1      29.797 -15.237  -2.502  0.00  0.00     0.002 A 
ATOM     22  C   UNL d   1      29.293 -14.091  -3.133  0.00  0.00     0.030 A 
ENDBRANCH  13  14
ENDBRANCH  10  13
ENDBRANCH   7   9
ENDBRANCH   5   7
ENDBRANCH   1   5
BRANCH   2  23
ATOM     23  C   UNL d   1      25.863 -16.427  -1.599  0.00  0.00     0.065 A 
ATOM     24  C   UNL d   1      27.162 -16.859  -1.272  0.00  0.00     0.020 A 
ATOM     25  C   UNL d   1      27.371 -17.851  -0.308  0.00  0.00     0.001 A 
ATOM     26  C   UNL d   1      26.301 -18.328   0.439  0.00  0.00     0.003 A 
ATOM     27  C   UNL d   1      25.023 -17.804   0.225  0.00  0.00     0.038 A 
ATOM     28  C   UNL d   1      24.768 -16.894  -0.827  0.00  0.00     0.084 A 
BRANCH  28  29
ATOM     29  O   UNL d   1      23.418 -16.618  -0.951  0.00  0.00    -0.348 OA
BRANCH  29  30
ATOM     30  C   UNL d   1      22.517 -17.419  -0.190  0.00  0.00     0.202 C 
BRANCH  30  31
ATOM     31  C   UNL d   1      21.890 -18.572  -0.959  0.00  0.00     0.202 C 
BRANCH  31  32
ATOM     32  O   UNL d   1      20.460 -18.391  -0.900  0.00  0.00    -0.349 OA
BRANCH  32  33
ATOM     33  C   UNL d   1      19.816 -19.282  -0.088  0.00  0.00     0.068 C 
ATOM     34  C   UNL d   1      18.741 -20.058  -0.514  0.00  0.00     0.037 C 
ATOM     35  C   UNL d   1      18.024 -20.818   0.406  0.00  0.00     0.003 C 
ATOM     36  C   UNL d   1      18.467 -20.917   1.722  0.00  0.00     0.000 C 
ATOM     37  C   UNL d   1      19.645 -20.279   2.108  0.00  0.00     0.003 C 
ATOM     38  C   UNL d   1      20.300 -19.430   1.213  0.00  0.00     0.037 C 
ENDBRANCH  32  33
ENDBRANCH  31  32
ENDBRANCH  30  31
ENDBRANCH  29  30
ENDBRANCH  28  29
ENDBRANCH   2  23
TORSDOF 11
ENDMDL
MODEL 4
REMARK VINA RESULT:    -9.378      2.530      3.811
REMARK INTER + INTRA:         -15.946
REMARK INTER:                 -12.659
REMARK INTRA:                  -3.286
REMARK CONF_INDEPENDENT:        3.281
REMARK UNBOUND:                -3.286
REMARK  11 active torsions:
REMARK  status: ('A' for Active; 'I' for Inactive)
REMARK    1  A    between atoms: C_2  and  C_3 
REMARK       I    between atoms: C_2  and  N_13 
REMARK    2  A    between atoms: C_3  and  N_4 
REMARK    3  A    between atoms: N_13  and  N_14 
REMARK    4  A    between atoms: N_14  and  C_15 
REMARK    5  A    between atoms: C_15  and  N_17 
REMARK       I    between atoms: N_17  and  C_18 
REMARK    6  A    between atoms: C_18  and  C_20 
REMARK    7  A    between atoms: C_25  and  O_26 
REMARK    8  A    between atoms: O_26  and  C_27 
REMARK    9  A    between atoms: C_27  and  C_28 
REMARK   10  A    between atoms: C_28  and  O_29 
REMARK   11  A    between atoms: O_29  and  C_30 
ROOT
ATOM      1  N   UNL d   1      25.811 -15.760  -3.645  0.00  0.00    -0.298 N 
ATOM      2  C   UNL d   1      26.828 -16.095  -2.731  0.00  0.00     0.260 C 
ATOM      3  O   UNL d   1      28.025 -15.880  -2.934  0.00  0.00    -0.267 OA
ATOM      4  H   UNL d   1      24.918 -16.214  -3.514  0.00  0.00     0.171 HD
ENDROOT
BRANCH   1   5
ATOM      5  C   UNL d   1      25.902 -14.756  -4.634  0.00  0.00     0.193 C 
ATOM      6  S   UNL d   1      27.126 -14.637  -5.790  0.00  0.00    -0.039 SA
BRANCH   5   7
ATOM      7  N   UNL d   1      24.859 -13.808  -4.603  0.00  0.00    -0.273 N 
ATOM      8  H   UNL d   1      23.925 -13.999  -4.939  0.00  0.00     0.189 HD
BRANCH   7   9
ATOM      9  N   UNL d   1      25.174 -12.482  -4.183  0.00  0.00    -0.266 N 
ATOM     10  C   UNL d   1      25.671 -12.048  -2.973  0.00  0.00     0.254 C 
ATOM     11  O   UNL d   1      25.889 -10.845  -2.831  0.00  0.00    -0.270 OA
ATOM     12  H   UNL d   1      25.026 -11.748  -4.883  0.00  0.00     0.190 HD
BRANCH  10  13
ATOM     13  C   UNL d   1      25.904 -13.079  -1.890  0.00  0.00     0.233 C 
BRANCH  13  14
ATOM     14  N   UNL d   1      27.288 -13.173  -1.422  0.00  0.00    -0.347 N 
ATOM     15  C   UNL d   1      28.385 -12.858  -2.191  0.00  0.00     0.092 A 
ATOM     16  C   UNL d   1      29.514 -13.020  -1.424  0.00  0.00     0.031 A 
ATOM     17  C   UNL d   1      29.099 -13.408  -0.126  0.00  0.00    -0.008 A 
ATOM     18  C   UNL d   1      29.806 -13.696   1.060  0.00  0.00     0.014 A 
ATOM     19  C   UNL d   1      27.701 -13.496  -0.137  0.00  0.00     0.044 A 
ATOM     20  C   UNL d   1      29.103 -14.056   2.210  0.00  0.00     0.001 A 
ATOM     21  C   UNL d   1      27.714 -14.138   2.187  0.00  0.00     0.002 A 
ATOM     22  C   UNL d   1      26.989 -13.862   1.019  0.00  0.00     0.030 A 
ENDBRANCH  13  14
ENDBRANCH  10  13
ENDBRANCH   7   9
ENDBRANCH   5   7
ENDBRANCH   1   5
BRANCH   2  23
ATOM     23  C   UNL d   1      26.516 -16.894  -1.511  0.00  0.00     0.065 A 
ATOM     24  C   UNL d   1      27.544 -16.951  -0.551  0.00  0.00     0.020 A 
ATOM     25  C   UNL d   1      27.365 -17.635   0.656  0.00  0.00     0.001 A 
ATOM     26  C   UNL d   1      26.117 -18.154   0.981  0.00  0.00     0.003 A 
ATOM     27  C   UNL d   1      25.047 -17.979   0.099  0.00  0.00     0.038 A 
ATOM     28  C   UNL d   1      25.234 -17.403  -1.179  0.00  0.00     0.084 A 
BRANCH  28  29
ATOM     29  O   UNL d   1      24.082 -17.460  -1.942  0.00  0.00    -0.348 OA
BRANCH  29  30
ATOM     30  C   UNL d   1      23.176 -18.527  -1.674  0.00  0.00     0.202 C 
BRANCH  30  31
ATOM     31  C   UNL d   1      21.932 -18.125  -0.896  0.00  0.00     0.202 C 
BRANCH  31  32
ATOM     32  O   UNL d   1      20.885 -19.045  -1.267  0.00  0.00    -0.349 OA
BRANCH  32  33
ATOM     33  C   UNL d   1      20.207 -19.578  -0.207  0.00  0.00     0.068 C 
ATOM     34  C   UNL d   1      19.075 -20.375  -0.353  0.00  0.00     0.037 C 
ATOM     35  C   UNL d   1      18.335 -20.744   0.767  0.00  0.00     0.003 C 
ATOM     36  C   UNL d   1      18.803 -20.439   2.042  0.00  0.00     0.000 C 
ATOM     37  C   UNL d   1      20.029 -19.791   2.194  0.00  0.00     0.003 C 
ATOM     38  C   UNL d   1      20.713 -19.326   1.069  0.00  0.00     0.037 C 
ENDBRANCH  32  33
ENDBRANCH  31  32
ENDBRANCH  30  31
ENDBRANCH  29  30
ENDBRANCH  28  29
ENDBRANCH   2  23
TORSDOF 11
ENDMDL
MODEL 5
REMARK VINA RESULT:    -7.923      3.008      7.943
REMARK INTER + INTRA:         -15.669
REMARK INTER:                 -11.204
REMARK INTRA:                  -4.465
REMARK CONF_INDEPENDENT:        3.281
REMARK UNBOUND:                -4.465
REMARK  11 active torsions:
REMARK  status: ('A' for Active; 'I' for Inactive)
REMARK    1  A    between atoms: C_2  and  C_3 
REMARK       I    between atoms: C_2  and  N_13 
REMARK    2  A    between atoms: C_3  and  N_4 
REMARK    3  A    between atoms: N_13  and  N_14 
REMARK    4  A    between atoms: N_14  and  C_15 
REMARK    5  A    between atoms: C_15  and  N_17 
REMARK       I    between atoms: N_17  and  C_18 
REMARK    6  A    between atoms: C_18  and  C_20 
REMARK    7  A    between atoms: C_25  and  O_26 
REMARK    8  A    between atoms: O_26  and  C_27 
REMARK    9  A    between atoms: C_27  and  C_28 
REMARK   10  A    between atoms: C_28  and  O_29 
REMARK   11  A    between atoms: O_29  and  C_30 
ROOT
ATOM      1  N   UNL d   1      30.203 -15.486  -3.153  0.00  0.00    -0.298 N 
ATOM      2  C   UNL d   1      30.164 -16.888  -3.258  0.00  0.00     0.260 C 
ATOM      3  O   UNL d   1      30.004 -17.640  -2.293  0.00  0.00    -0.267 OA
ATOM      4  H   UNL d   1      30.603 -14.986  -3.935  0.00  0.00     0.171 HD
ENDROOT
BRANCH   1   5
ATOM      5  C   UNL d   1      29.617 -14.728  -2.116  0.00  0.00     0.193 C 
ATOM      6  S   UNL d   1      29.678 -13.046  -1.984  0.00  0.00    -0.039 SA
BRANCH   5   7
ATOM      7  N   UNL d   1      28.940 -15.492  -1.144  0.00  0.00    -0.273 N 
ATOM      8  H   UNL d   1      28.586 -16.424  -1.317  0.00  0.00     0.189 HD
BRANCH   7   9
ATOM      9  N   UNL d   1      28.643 -14.872   0.106  0.00  0.00    -0.266 N 
ATOM     10  C   UNL d   1      27.416 -14.591   0.666  0.00  0.00     0.254 C 
ATOM     11  O   UNL d   1      27.390 -14.061   1.778  0.00  0.00    -0.270 OA
ATOM     12  H   UNL d   1      29.454 -14.612   0.677  0.00  0.00     0.190 HD
BRANCH  10  13
ATOM     13  C   UNL d   1      26.175 -14.940  -0.127  0.00  0.00     0.233 C 
BRANCH  13  14
ATOM     14  N   UNL d   1      25.837 -16.364  -0.141  0.00  0.00    -0.347 N 
ATOM     15  C   UNL d   1      26.722 -17.370   0.176  0.00  0.00     0.092 A 
ATOM     16  C   UNL d   1      26.059 -18.571   0.101  0.00  0.00     0.031 A 
ATOM     17  C   UNL d   1      24.709 -18.297  -0.234  0.00  0.00    -0.008 A 
ATOM     18  C   UNL d   1      23.584 -19.123  -0.430  0.00  0.00     0.014 A 
ATOM     19  C   UNL d   1      24.583 -16.909  -0.378  0.00  0.00     0.044 A 
ATOM     20  C   UNL d   1      22.355 -18.548  -0.756  0.00  0.00     0.001 A 
ATOM     21  C   UNL d   1      22.242 -17.167  -0.895  0.00  0.00     0.002 A 
ATOM     22  C   UNL d   1      23.348 -16.325  -0.710  0.00  0.00     0.030 A 
ENDBRANCH  13  14
ENDBRANCH  10  13
ENDBRANCH   7   9
ENDBRANCH   5   7
ENDBRANCH   1   5
BRANCH   2  23
ATOM     23  C   UNL d   1      30.482 -17.561  -4.550  0.00  0.00     0.065 A 
ATOM     24  C   UNL d   1      30.419 -18.967  -4.528  0.00  0.00     0.020 A 
ATOM     25  C   UNL d   1      30.656 -19.717  -5.684  0.00  0.00     0.001 A 
ATOM     26  C   UNL d   1      30.825 -19.075  -6.905  0.00  0.00     0.003 A 
ATOM     27  C   UNL d   1      30.747 -17.681  -6.967  0.00  0.00     0.038 A 
ATOM     28  C   UNL d   1      30.634 -16.898  -5.795  0.00  0.00     0.084 A 
BRANCH  28  29
ATOM     29  O   UNL d   1      30.722 -15.545  -6.070  0.00  0.00    -0.348 OA
BRANCH  29  30
ATOM     30  C   UNL d   1      29.821 -15.019  -7.042  0.00  0.00     0.202 C 
BRANCH  30  31
ATOM     31  C   UNL d   1      28.631 -14.268  -6.464  0.00  0.00     0.202 C 
BRANCH  31  32
ATOM     32  O   UNL d   1      27.810 -15.238  -5.781  0.00  0.00    -0.349 OA
BRANCH  32  33
ATOM     33  C   UNL d   1      26.901 -14.693  -4.919  0.00  0.00     0.068 C 
ATOM     34  C   UNL d   1      26.705 -13.321  -4.790  0.00  0.00     0.037 C 
ATOM     35  C   UNL d   1      25.889 -12.826  -3.776  0.00  0.00     0.003 C 
ATOM     36  C   UNL d   1      25.156 -13.705  -2.982  0.00  0.00     0.000 C 
ATOM     37  C   UNL d   1      25.219 -15.077  -3.226  0.00  0.00     0.003 C 
ATOM     38  C   UNL d   1      26.120 -15.574  -4.169  0.00  0.00     0.037 C 
ENDBRANCH  32  33
ENDBRANCH  31  32
ENDBRANCH  30  31
ENDBRANCH  29  30
ENDBRANCH  28  29
ENDBRANCH   2  23
TORSDOF 11
ENDMDL
