MODEL 1
REMARK VINA RESULT:    -9.980      0.000      0.000
REMARK INTER + INTRA:         -14.821
REMARK INTER:                 -13.261
REMARK INTRA:                  -1.560
REMARK CONF_INDEPENDENT:        3.281
REMARK UNBOUND:                -1.560
REMARK  11 active torsions:
REMARK  status: ('A' for Active; 'I' for Inactive)
REMARK    1  A    between atoms: C_2  and  C_3 
REMARK    2  A    between atoms: C_3  and  C_4 
REMARK    3  A    between atoms: C_4  and  S_5 
REMARK    4  A    between atoms: S_5  and  C_6 
REMARK    5  A    between atoms: C_9  and  C_10 
REMARK       I    between atoms: C_10  and  N_12 
REMARK    6  A    between atoms: N_12  and  C_13 
REMARK    7  A    between atoms: C_13  and  C_14 
REMARK    8  A    between atoms: C_14  and  C_15 
REMARK    9  A    between atoms: C_14  and  N_25 
REMARK   10  A    between atoms: C_18  and  O_19 
REMARK   11  A    between atoms: C_21  and  O_22 
ROOT
ATOM      1  C   UNL d   1      29.283 -13.134   2.225  0.00  0.00     0.238 C 
ENDROOT
BRANCH   1   2
ATOM      2  C   UNL d   1      29.274 -13.878   0.831  0.00  0.00     0.161 C 
BRANCH   2   3
ATOM      3  N   UNL d   1      28.194 -14.847   0.683  0.00  0.00    -0.354 N 
ATOM      4  C   UNL d   1      27.350 -14.878  -0.406  0.00  0.00     0.256 C 
ATOM      5  O   UNL d   1      27.438 -14.034  -1.301  0.00  0.00    -0.268 OA
ATOM      6  H   UNL d   1      28.173 -15.639   1.320  0.00  0.00     0.162 HD
BRANCH   4   7
ATOM      7  C   UNL d   1      26.320 -15.950  -0.477  0.00  0.00     0.090 A 
ATOM      8  C   UNL d   1      26.367 -17.010   0.405  0.00  0.00     0.139 A 
ATOM      9  N   UNL d   1      25.509 -18.062   0.379  0.00  0.00    -0.234 NA
ATOM     10  C   UNL d   1      24.560 -18.062  -0.570  0.00  0.00     0.189 A 
ATOM     11  N   UNL d   1      24.403 -17.076  -1.458  0.00  0.00    -0.210 NA
ATOM     12  C   UNL d   1      25.280 -16.053  -1.382  0.00  0.00     0.146 A 
ATOM     13 CL   UNL d   1      24.907 -14.863  -2.579  0.00  0.00    -0.061 Cl
BRANCH  10  14
ATOM     14  S   UNL d   1      23.318 -19.325  -0.531  0.00  0.00    -0.090 SA
BRANCH  14  15
ATOM     15  C   UNL d   1      21.781 -18.332  -0.513  0.00  0.00     0.082 C 
BRANCH  15  16
ATOM     16  C   UNL d   1      20.659 -19.143  -1.177  0.00  0.00     0.010 C 
BRANCH  16  17
ATOM     17  C   UNL d   1      19.501 -19.425  -0.215  0.00  0.00    -0.004 C 
ATOM     18  C   UNL d   1      19.760 -20.684   0.603  0.00  0.00     0.005 C 
ENDBRANCH  16  17
ENDBRANCH  15  16
ENDBRANCH  14  15
ENDBRANCH  10  14
ENDBRANCH   4   7
ENDBRANCH   2   3
ENDBRANCH   1   2
BRANCH   1  19
ATOM     19  C   UNL d   1      28.147 -12.124   2.344  0.00  0.00    -0.023 C 
ATOM     20  C   UNL d   1      27.382 -11.742   1.236  0.00  0.00     0.012 C 
ATOM     21  C   UNL d   1      26.696 -10.524   1.271  0.00  0.00     0.040 C 
ATOM     22  C   UNL d   1      26.627  -9.769   2.454  0.00  0.00     0.101 C 
ATOM     23  C   UNL d   1      27.320 -10.201   3.591  0.00  0.00     0.102 C 
ATOM     24  C   UNL d   1      28.053 -11.372   3.517  0.00  0.00     0.049 C 
BRANCH  22  25
ATOM     25  O   UNL d   1      25.854  -8.640   2.350  0.00  0.00    -0.353 OA
ATOM     26  C   UNL d   1      25.660  -8.129   1.033  0.00  0.00     0.210 C 
ENDBRANCH  22  25
BRANCH  23  27
ATOM     27  O   UNL d   1      27.332  -9.436   4.721  0.00  0.00    -0.353 OA
ATOM     28  C   UNL d   1      28.401  -8.523   4.932  0.00  0.00     0.210 C 
ENDBRANCH  23  27
ENDBRANCH   1  19
BRANCH   1  29
ATOM     29  N   UNL d   1      29.223 -14.157   3.431  0.00  0.00    -0.061 N 
ATOM     30  C   UNL d   1      30.137 -13.742   4.603  0.00  0.00     0.236 C 
ATOM     31  C   UNL d   1      30.030 -14.680   5.788  0.00  0.00     0.028 C 
ATOM     32  C   UNL d   1      28.580 -14.743   6.234  0.00  0.00     0.003 C 
ATOM     33  C   UNL d   1      27.781 -15.363   5.105  0.00  0.00     0.028 C 
ATOM     34  C   UNL d   1      27.800 -14.445   3.897  0.00  0.00     0.236 C 
ATOM     35  H   UNL d   1      29.609 -15.035   3.061  0.00  0.00     0.280 HD
ENDBRANCH   1  29
TORSDOF 11
ENDMDL
MODEL 2
REMARK VINA RESULT:    -9.550      2.368      3.321
REMARK INTER + INTRA:         -14.547
REMARK INTER:                 -12.831
REMARK INTRA:                  -1.716
REMARK CONF_INDEPENDENT:        3.281
REMARK UNBOUND:                -1.716
REMARK  11 active torsions:
REMARK  status: ('A' for Active; 'I' for Inactive)
REMARK    1  A    between atoms: C_2  and  C_3 
REMARK    2  A    between atoms: C_3  and  C_4 
REMARK    3  A    between atoms: C_4  and  S_5 
REMARK    4  A    between atoms: S_5  and  C_6 
REMARK    5  A    between atoms: C_9  and  C_10 
REMARK       I    between atoms: C_10  and  N_12 
REMARK    6  A    between atoms: N_12  and  C_13 
REMARK    7  A    between atoms: C_13  and  C_14 
REMARK    8  A    between atoms: C_14  and  C_15 
REMARK    9  A    between atoms: C_14  and  N_25 
REMARK   10  A    between atoms: C_18  and  O_19 
REMARK   11  A    between atoms: C_21  and  O_22 
ROOT
ATOM      1  C   UNL d   1      30.226 -15.397   0.134  0.00  0.00     0.238 C 
ENDROOT
BRANCH   1   2
ATOM      2  C   UNL d   1      29.693 -16.688  -0.606  0.00  0.00     0.161 C 
BRANCH   2   3
ATOM      3  N   UNL d   1      28.291 -16.988  -0.339  0.00  0.00    -0.354 N 
ATOM      4  C   UNL d   1      27.283 -16.767  -1.252  0.00  0.00     0.256 C 
ATOM      5  O   UNL d   1      27.519 -16.243  -2.343  0.00  0.00    -0.268 OA
ATOM      6  H   UNL d   1      28.071 -17.545   0.483  0.00  0.00     0.162 HD
BRANCH   4   7
ATOM      7  C   UNL d   1      25.896 -17.168  -0.891  0.00  0.00     0.090 A 
ATOM      8  C   UNL d   1      25.686 -18.239  -0.046  0.00  0.00     0.139 A 
ATOM      9  N   UNL d   1      24.460 -18.714   0.293  0.00  0.00    -0.234 NA
ATOM     10  C   UNL d   1      23.391 -18.097  -0.236  0.00  0.00     0.189 A 
ATOM     11  N   UNL d   1      23.474 -17.035  -1.042  0.00  0.00    -0.210 NA
ATOM     12  C   UNL d   1      24.718 -16.602  -1.340  0.00  0.00     0.146 A 
ATOM     13 CL   UNL d   1      24.630 -15.210  -2.361  0.00  0.00    -0.061 Cl
BRANCH  10  14
ATOM     14  S   UNL d   1      21.776 -18.575   0.314  0.00  0.00    -0.090 SA
BRANCH  14  15
ATOM     15  C   UNL d   1      20.944 -18.957  -1.270  0.00  0.00     0.082 C 
BRANCH  15  16
ATOM     16  C   UNL d   1      19.585 -19.607  -0.972  0.00  0.00     0.010 C 
BRANCH  16  17
ATOM     17  C   UNL d   1      19.397 -19.896   0.520  0.00  0.00    -0.004 C 
ATOM     18  C   UNL d   1      18.395 -21.024   0.740  0.00  0.00     0.005 C 
ENDBRANCH  16  17
ENDBRANCH  15  16
ENDBRANCH  14  15
ENDBRANCH  10  14
ENDBRANCH   4   7
ENDBRANCH   2   3
ENDBRANCH   1   2
BRANCH   1  19
ATOM     19  C   UNL d   1      29.091 -14.504   0.620  0.00  0.00    -0.023 C 
ATOM     20  C   UNL d   1      28.778 -13.297  -0.016  0.00  0.00     0.012 C 
ATOM     21  C   UNL d   1      28.083 -12.315   0.695  0.00  0.00     0.040 C 
ATOM     22  C   UNL d   1      27.550 -12.585   1.967  0.00  0.00     0.101 C 
ATOM     23  C   UNL d   1      27.787 -13.829   2.565  0.00  0.00     0.102 C 
ATOM     24  C   UNL d   1      28.538 -14.764   1.876  0.00  0.00     0.049 C 
BRANCH  22  25
ATOM     25  O   UNL d   1      26.829 -11.547   2.501  0.00  0.00    -0.353 OA
ATOM     26  C   UNL d   1      27.563 -10.364   2.809  0.00  0.00     0.210 C 
ENDBRANCH  22  25
BRANCH  23  27
ATOM     27  O   UNL d   1      27.348 -14.076   3.833  0.00  0.00    -0.353 OA
ATOM     28  C   UNL d   1      28.165 -14.835   4.715  0.00  0.00     0.210 C 
ENDBRANCH  23  27
ENDBRANCH   1  19
BRANCH   1  29
ATOM     29  N   UNL d   1      31.174 -15.771   1.346  0.00  0.00    -0.061 N 
ATOM     30  C   UNL d   1      31.949 -17.083   1.104  0.00  0.00     0.236 C 
ATOM     31  C   UNL d   1      32.910 -17.408   2.229  0.00  0.00     0.028 C 
ATOM     32  C   UNL d   1      33.868 -16.244   2.408  0.00  0.00     0.003 C 
ATOM     33  C   UNL d   1      33.054 -15.047   2.855  0.00  0.00     0.028 C 
ATOM     34  C   UNL d   1      32.102 -14.630   1.748  0.00  0.00     0.236 C 
ATOM     35  H   UNL d   1      30.544 -15.949   2.138  0.00  0.00     0.280 HD
ENDBRANCH   1  29
TORSDOF 11
ENDMDL
MODEL 3
REMARK VINA RESULT:    -9.409      3.748      8.702
REMARK INTER + INTRA:         -14.296
REMARK INTER:                 -12.691
REMARK INTRA:                  -1.605
REMARK CONF_INDEPENDENT:        3.281
REMARK UNBOUND:                -1.605
REMARK  11 active torsions:
REMARK  status: ('A' for Active; 'I' for Inactive)
REMARK    1  A    between atoms: C_2  and  C_3 
REMARK    2  A    between atoms: C_3  and  C_4 
REMARK    3  A    between atoms: C_4  and  S_5 
REMARK    4  A    between atoms: S_5  and  C_6 
REMARK    5  A    between atoms: C_9  and  C_10 
REMARK       I    between atoms: C_10  and  N_12 
REMARK    6  A    between atoms: N_12  and  C_13 
REMARK    7  A    between atoms: C_13  and  C_14 
REMARK    8  A    between atoms: C_14  and  C_15 
REMARK    9  A    between atoms: C_14  and  N_25 
REMARK   10  A    between atoms: C_18  and  O_19 
REMARK   11  A    between atoms: C_21  and  O_22 
ROOT
ATOM      1  C   UNL d   1      27.397 -15.379  -0.668  0.00  0.00     0.238 C 
ENDROOT
BRANCH   1   2
ATOM      2  C   UNL d   1      28.779 -15.657   0.047  0.00  0.00     0.161 C 
BRANCH   2   3
ATOM      3  N   UNL d   1      28.862 -15.127   1.403  0.00  0.00    -0.354 N 
ATOM      4  C   UNL d   1      27.880 -14.345   1.972  0.00  0.00     0.256 C 
ATOM      5  O   UNL d   1      26.887 -14.005   1.324  0.00  0.00    -0.268 OA
ATOM      6  H   UNL d   1      29.587 -15.494   2.014  0.00  0.00     0.162 HD
BRANCH   4   7
ATOM      7  C   UNL d   1      28.047 -13.910   3.385  0.00  0.00     0.090 A 
ATOM      8  C   UNL d   1      28.268 -14.848   4.373  0.00  0.00     0.139 A 
ATOM      9  N   UNL d   1      28.373 -14.553   5.694  0.00  0.00    -0.234 NA
ATOM     10  C   UNL d   1      28.251 -13.264   6.051  0.00  0.00     0.189 A 
ATOM     11  N   UNL d   1      28.065 -12.271   5.179  0.00  0.00    -0.210 NA
ATOM     12  C   UNL d   1      27.974 -12.621   3.878  0.00  0.00     0.146 A 
ATOM     13 CL   UNL d   1      27.766 -11.211   2.899  0.00  0.00    -0.061 Cl
BRANCH  10  14
ATOM     14  S   UNL d   1      28.553 -12.818   7.739  0.00  0.00    -0.090 SA
BRANCH  14  15
ATOM     15  C   UNL d   1      29.939 -13.931   8.174  0.00  0.00     0.082 C 
BRANCH  15  16
ATOM     16  C   UNL d   1      29.910 -14.191   9.687  0.00  0.00     0.010 C 
BRANCH  16  17
ATOM     17  C   UNL d   1      28.547 -14.706  10.159  0.00  0.00    -0.004 C 
ATOM     18  C   UNL d   1      27.887 -13.718  11.114  0.00  0.00     0.005 C 
ENDBRANCH  16  17
ENDBRANCH  15  16
ENDBRANCH  14  15
ENDBRANCH  10  14
ENDBRANCH   4   7
ENDBRANCH   2   3
ENDBRANCH   1   2
BRANCH   1  19
ATOM     19  C   UNL d   1      27.474 -15.603  -2.173  0.00  0.00    -0.023 C 
ATOM     20  C   UNL d   1      28.681 -15.911  -2.812  0.00  0.00     0.012 C 
ATOM     21  C   UNL d   1      28.810 -15.654  -4.180  0.00  0.00     0.040 C 
ATOM     22  C   UNL d   1      27.702 -15.256  -4.948  0.00  0.00     0.101 C 
ATOM     23  C   UNL d   1      26.470 -15.037  -4.320  0.00  0.00     0.102 C 
ATOM     24  C   UNL d   1      26.378 -15.227  -2.953  0.00  0.00     0.049 C 
BRANCH  22  25
ATOM     25  O   UNL d   1      27.971 -15.119  -6.286  0.00  0.00    -0.353 OA
ATOM     26  C   UNL d   1      28.662 -13.932  -6.671  0.00  0.00     0.210 C 
ENDBRANCH  22  25
BRANCH  23  27
ATOM     27  O   UNL d   1      25.407 -14.569  -5.037  0.00  0.00    -0.353 OA
ATOM     28  C   UNL d   1      24.781 -13.356  -4.641  0.00  0.00     0.210 C 
ENDBRANCH  23  27
ENDBRANCH   1  19
BRANCH   1  29
ATOM     29  N   UNL d   1      26.236 -16.261  -0.050  0.00  0.00    -0.061 N 
ATOM     30  C   UNL d   1      24.861 -15.948  -0.678  0.00  0.00     0.236 C 
ATOM     31  C   UNL d   1      23.759 -16.838  -0.141  0.00  0.00     0.028 C 
ATOM     32  C   UNL d   1      24.141 -18.289  -0.377  0.00  0.00     0.003 C 
ATOM     33  C   UNL d   1      25.380 -18.575   0.447  0.00  0.00     0.028 C 
ATOM     34  C   UNL d   1      26.545 -17.754  -0.075  0.00  0.00     0.236 C 
ATOM     35  H   UNL d   1      26.175 -15.975   0.936  0.00  0.00     0.280 HD
ENDBRANCH   1  29
TORSDOF 11
ENDMDL
MODEL 4
REMARK VINA RESULT:    -9.273      4.632      6.341
REMARK INTER + INTRA:         -14.330
REMARK INTER:                 -12.554
REMARK INTRA:                  -1.776
REMARK CONF_INDEPENDENT:        3.281
REMARK UNBOUND:                -1.776
REMARK  11 active torsions:
REMARK  status: ('A' for Active; 'I' for Inactive)
REMARK    1  A    between atoms: C_2  and  C_3 
REMARK    2  A    between atoms: C_3  and  C_4 
REMARK    3  A    between atoms: C_4  and  S_5 
REMARK    4  A    between atoms: S_5  and  C_6 
REMARK    5  A    between atoms: C_9  and  C_10 
REMARK       I    between atoms: C_10  and  N_12 
REMARK    6  A    between atoms: N_12  and  C_13 
REMARK    7  A    between atoms: C_13  and  C_14 
REMARK    8  A    between atoms: C_14  and  C_15 
REMARK    9  A    between atoms: C_14  and  N_25 
REMARK   10  A    between atoms: C_18  and  O_19 
REMARK   11  A    between atoms: C_21  and  O_22 
ROOT
ATOM      1  C   UNL d   1      29.348 -16.579  -0.245  0.00  0.00     0.238 C 
ENDROOT
BRANCH   1   2
ATOM      2  C   UNL d   1      28.196 -15.740   0.438  0.00  0.00     0.161 C 
BRANCH   2   3
ATOM      3  N   UNL d   1      26.852 -16.138   0.031  0.00  0.00    -0.354 N 
ATOM      4  C   UNL d   1      26.340 -17.400   0.243  0.00  0.00     0.256 C 
ATOM      5  O   UNL d   1      27.031 -18.288   0.749  0.00  0.00    -0.268 OA
ATOM      6  H   UNL d   1      26.206 -15.409  -0.259  0.00  0.00     0.162 HD
BRANCH   4   7
ATOM      7  C   UNL d   1      24.935 -17.675  -0.161  0.00  0.00     0.090 A 
ATOM      8  C   UNL d   1      24.175 -18.576   0.557  0.00  0.00     0.139 A 
ATOM      9  N   UNL d   1      22.906 -18.934   0.230  0.00  0.00    -0.234 NA
ATOM     10  C   UNL d   1      22.368 -18.370  -0.863  0.00  0.00     0.189 A 
ATOM     11  N   UNL d   1      22.999 -17.466  -1.616  0.00  0.00    -0.210 NA
ATOM     12  C   UNL d   1      24.256 -17.143  -1.241  0.00  0.00     0.146 A 
ATOM     13 CL   UNL d   1      24.901 -15.943  -2.305  0.00  0.00    -0.061 Cl
BRANCH  10  14
ATOM     14  S   UNL d   1      20.661 -18.678  -1.224  0.00  0.00    -0.090 SA
BRANCH  14  15
ATOM     15  C   UNL d   1      20.272 -20.028  -0.051  0.00  0.00     0.082 C 
BRANCH  15  16
ATOM     16  C   UNL d   1      19.414 -19.461   1.089  0.00  0.00     0.010 C 
BRANCH  16  17
ATOM     17  C   UNL d   1      18.689 -20.561   1.870  0.00  0.00    -0.004 C 
ATOM     18  C   UNL d   1      17.976 -21.524   0.929  0.00  0.00     0.005 C 
ENDBRANCH  16  17
ENDBRANCH  15  16
ENDBRANCH  14  15
ENDBRANCH  10  14
ENDBRANCH   4   7
ENDBRANCH   2   3
ENDBRANCH   1   2
BRANCH   1  19
ATOM     19  C   UNL d   1      29.538 -16.207  -1.710  0.00  0.00    -0.023 C 
ATOM     20  C   UNL d   1      29.117 -14.972  -2.218  0.00  0.00     0.012 C 
ATOM     21  C   UNL d   1      28.878 -14.848  -3.590  0.00  0.00     0.040 C 
ATOM     22  C   UNL d   1      29.215 -15.883  -4.479  0.00  0.00     0.101 C 
ATOM     23  C   UNL d   1      29.723 -17.087  -3.975  0.00  0.00     0.102 C 
ATOM     24  C   UNL d   1      29.885 -17.219  -2.608  0.00  0.00     0.049 C 
BRANCH  22  25
ATOM     25  O   UNL d   1      28.993 -15.579  -5.798  0.00  0.00    -0.353 OA
ATOM     26  C   UNL d   1      28.695 -14.215  -6.089  0.00  0.00     0.210 C 
ENDBRANCH  22  25
BRANCH  23  27
ATOM     27  O   UNL d   1      29.976 -18.131  -4.817  0.00  0.00    -0.353 OA
ATOM     28  C   UNL d   1      30.847 -17.937  -5.924  0.00  0.00     0.210 C 
ENDBRANCH  23  27
ENDBRANCH   1  19
BRANCH   1  29
ATOM     29  N   UNL d   1      30.719 -16.424   0.532  0.00  0.00    -0.061 N 
ATOM     30  C   UNL d   1      31.761 -17.478   0.105  0.00  0.00     0.236 C 
ATOM     31  C   UNL d   1      33.097 -17.290   0.795  0.00  0.00     0.028 C 
ATOM     32  C   UNL d   1      33.603 -15.888   0.509  0.00  0.00     0.003 C 
ATOM     33  C   UNL d   1      32.636 -14.913   1.148  0.00  0.00     0.028 C 
ATOM     34  C   UNL d   1      31.283 -15.008   0.465  0.00  0.00     0.236 C 
ATOM     35  H   UNL d   1      30.496 -16.619   1.517  0.00  0.00     0.280 HD
ENDBRANCH   1  29
TORSDOF 11
ENDMDL
MODEL 5
REMARK VINA RESULT:    -9.198      2.405      3.753
REMARK INTER + INTRA:         -14.123
REMARK INTER:                 -12.479
REMARK INTRA:                  -1.644
REMARK CONF_INDEPENDENT:        3.281
REMARK UNBOUND:                -1.644
REMARK  11 active torsions:
REMARK  status: ('A' for Active; 'I' for Inactive)
REMARK    1  A    between atoms: C_2  and  C_3 
REMARK    2  A    between atoms: C_3  and  C_4 
REMARK    3  A    between atoms: C_4  and  S_5 
REMARK    4  A    between atoms: S_5  and  C_6 
REMARK    5  A    between atoms: C_9  and  C_10 
REMARK       I    between atoms: C_10  and  N_12 
REMARK    6  A    between atoms: N_12  and  C_13 
REMARK    7  A    between atoms: C_13  and  C_14 
REMARK    8  A    between atoms: C_14  and  C_15 
REMARK    9  A    between atoms: C_14  and  N_25 
REMARK   10  A    between atoms: C_18  and  O_19 
REMARK   11  A    between atoms: C_21  and  O_22 
ROOT
ATOM      1  C   UNL d   1      30.770 -14.632   1.046  0.00  0.00     0.238 C 
ENDROOT
BRANCH   1   2
ATOM      2  C   UNL d   1      29.881 -14.431  -0.246  0.00  0.00     0.161 C 
BRANCH   2   3
ATOM      3  N   UNL d   1      28.763 -15.363  -0.347  0.00  0.00    -0.354 N 
ATOM      4  C   UNL d   1      27.449 -14.960  -0.446  0.00  0.00     0.256 C 
ATOM      5  O   UNL d   1      27.147 -13.765  -0.398  0.00  0.00    -0.268 OA
ATOM      6  H   UNL d   1      28.973 -16.341  -0.530  0.00  0.00     0.162 HD
BRANCH   4   7
ATOM      7  C   UNL d   1      26.396 -16.000  -0.604  0.00  0.00     0.090 A 
ATOM      8  C   UNL d   1      26.360 -17.080   0.255  0.00  0.00     0.139 A 
ATOM      9  N   UNL d   1      25.476 -18.105   0.153  0.00  0.00    -0.234 NA
ATOM     10  C   UNL d   1      24.587 -18.057  -0.852  0.00  0.00     0.189 A 
ATOM     11  N   UNL d   1      24.513 -17.049  -1.725  0.00  0.00    -0.210 NA
ATOM     12  C   UNL d   1      25.412 -16.053  -1.572  0.00  0.00     0.146 A 
ATOM     13 CL   UNL d   1      25.146 -14.828  -2.763  0.00  0.00    -0.061 Cl
BRANCH  10  14
ATOM     14  S   UNL d   1      23.311 -19.284  -0.918  0.00  0.00    -0.090 SA
BRANCH  14  15
ATOM     15  C   UNL d   1      21.971 -18.474   0.030  0.00  0.00     0.082 C 
BRANCH  15  16
ATOM     16  C   UNL d   1      20.618 -18.960  -0.511  0.00  0.00     0.010 C 
BRANCH  16  17
ATOM     17  C   UNL d   1      20.137 -20.233   0.193  0.00  0.00    -0.004 C 
ATOM     18  C   UNL d   1      19.859 -19.974   1.669  0.00  0.00     0.005 C 
ENDBRANCH  16  17
ENDBRANCH  15  16
ENDBRANCH  14  15
ENDBRANCH  10  14
ENDBRANCH   4   7
ENDBRANCH   2   3
ENDBRANCH   1   2
BRANCH   1  19
ATOM     19  C   UNL d   1      30.073 -14.130   2.305  0.00  0.00    -0.023 C 
ATOM     20  C   UNL d   1      30.403 -14.620   3.575  0.00  0.00     0.012 C 
ATOM     21  C   UNL d   1      29.471 -14.503   4.610  0.00  0.00     0.040 C 
ATOM     22  C   UNL d   1      28.292 -13.757   4.441  0.00  0.00     0.101 C 
ATOM     23  C   UNL d   1      28.007 -13.190   3.192  0.00  0.00     0.102 C 
ATOM     24  C   UNL d   1      28.907 -13.377   2.158  0.00  0.00     0.049 C 
BRANCH  22  25
ATOM     25  O   UNL d   1      27.519 -13.672   5.570  0.00  0.00    -0.353 OA
ATOM     26  C   UNL d   1      27.782 -12.565   6.431  0.00  0.00     0.210 C 
ENDBRANCH  22  25
BRANCH  23  27
ATOM     27  O   UNL d   1      26.828 -12.536   2.988  0.00  0.00    -0.353 OA
ATOM     28  C   UNL d   1      26.848 -11.155   2.649  0.00  0.00     0.210 C 
ENDBRANCH  23  27
ENDBRANCH   1  19
BRANCH   1  29
ATOM     29  N   UNL d   1      31.194 -16.146   1.230  0.00  0.00    -0.061 N 
ATOM     30  C   UNL d   1      31.328 -16.888  -0.116  0.00  0.00     0.236 C 
ATOM     31  C   UNL d   1      31.802 -18.318   0.051  0.00  0.00     0.028 C 
ATOM     32  C   UNL d   1      33.125 -18.311   0.795  0.00  0.00     0.003 C 
ATOM     33  C   UNL d   1      32.866 -17.767   2.185  0.00  0.00     0.028 C 
ATOM     34  C   UNL d   1      32.438 -16.313   2.097  0.00  0.00     0.236 C 
ATOM     35  H   UNL d   1      30.411 -16.588   1.728  0.00  0.00     0.280 HD
ENDBRANCH   1  29
TORSDOF 11
ENDMDL
MODEL 6
REMARK VINA RESULT:    -9.102      3.893      8.850
REMARK INTER + INTRA:         -13.923
REMARK INTER:                 -12.383
REMARK INTRA:                  -1.539
REMARK CONF_INDEPENDENT:        3.281
REMARK UNBOUND:                -1.539
REMARK  11 active torsions:
REMARK  status: ('A' for Active; 'I' for Inactive)
REMARK    1  A    between atoms: C_2  and  C_3 
REMARK    2  A    between atoms: C_3  and  C_4 
REMARK    3  A    between atoms: C_4  and  S_5 
REMARK    4  A    between atoms: S_5  and  C_6 
REMARK    5  A    between atoms: C_9  and  C_10 
REMARK       I    between atoms: C_10  and  N_12 
REMARK    6  A    between atoms: N_12  and  C_13 
REMARK    7  A    between atoms: C_13  and  C_14 
REMARK    8  A    between atoms: C_14  and  C_15 
REMARK    9  A    between atoms: C_14  and  N_25 
REMARK   10  A    between atoms: C_18  and  O_19 
REMARK   11  A    between atoms: C_21  and  O_22 
ROOT
ATOM      1  C   UNL d   1      28.437 -16.754   0.201  0.00  0.00     0.238 C 
ENDROOT
BRANCH   1   2
ATOM      2  C   UNL d   1      28.920 -15.261   0.384  0.00  0.00     0.161 C 
BRANCH   2   3
ATOM      3  N   UNL d   1      28.970 -14.819   1.774  0.00  0.00    -0.354 N 
ATOM      4  C   UNL d   1      27.956 -14.109   2.379  0.00  0.00     0.256 C 
ATOM      5  O   UNL d   1      26.960 -13.759   1.741  0.00  0.00    -0.268 OA
ATOM      6  H   UNL d   1      29.700 -15.202   2.369  0.00  0.00     0.162 HD
BRANCH   4   7
ATOM      7  C   UNL d   1      28.091 -13.763   3.820  0.00  0.00     0.090 A 
ATOM      8  C   UNL d   1      28.435 -14.740   4.733  0.00  0.00     0.139 A 
ATOM      9  N   UNL d   1      28.525 -14.533   6.072  0.00  0.00    -0.234 NA
ATOM     10  C   UNL d   1      28.258 -13.298   6.526  0.00  0.00     0.189 A 
ATOM     11  N   UNL d   1      27.943 -12.272   5.732  0.00  0.00    -0.210 NA
ATOM     12  C   UNL d   1      27.874 -12.532   4.409  0.00  0.00     0.146 A 
ATOM     13 CL   UNL d   1      27.488 -11.089   3.541  0.00  0.00    -0.061 Cl
BRANCH  10  14
ATOM     14  S   UNL d   1      28.530 -12.946   8.241  0.00  0.00    -0.090 SA
BRANCH  14  15
ATOM     15  C   UNL d   1      29.764 -14.222   8.689  0.00  0.00     0.082 C 
BRANCH  15  16
ATOM     16  C   UNL d   1      29.607 -14.561  10.178  0.00  0.00     0.010 C 
BRANCH  16  17
ATOM     17  C   UNL d   1      28.173 -14.347  10.673  0.00  0.00    -0.004 C 
ATOM     18  C   UNL d   1      28.155 -13.578  11.988  0.00  0.00     0.005 C 
ENDBRANCH  16  17
ENDBRANCH  15  16
ENDBRANCH  14  15
ENDBRANCH  10  14
ENDBRANCH   4   7
ENDBRANCH   2   3
ENDBRANCH   1   2
BRANCH   1  19
ATOM     19  C   UNL d   1      26.921 -16.855   0.083  0.00  0.00    -0.023 C 
ATOM     20  C   UNL d   1      26.219 -17.976   0.544  0.00  0.00     0.012 C 
ATOM     21  C   UNL d   1      24.950 -18.244   0.022  0.00  0.00     0.040 C 
ATOM     22  C   UNL d   1      24.306 -17.323  -0.822  0.00  0.00     0.101 C 
ATOM     23  C   UNL d   1      24.977 -16.157  -1.209  0.00  0.00     0.102 C 
ATOM     24  C   UNL d   1      26.260 -15.941  -0.740  0.00  0.00     0.049 C 
BRANCH  22  25
ATOM     25  O   UNL d   1      23.038 -17.695  -1.187  0.00  0.00    -0.353 OA
ATOM     26  C   UNL d   1      22.514 -18.859  -0.552  0.00  0.00     0.210 C 
ENDBRANCH  22  25
BRANCH  23  27
ATOM     27  O   UNL d   1      24.399 -15.294  -2.095  0.00  0.00    -0.353 OA
ATOM     28  C   UNL d   1      25.161 -14.811  -3.193  0.00  0.00     0.210 C 
ENDBRANCH  23  27
ENDBRANCH   1  19
BRANCH   1  29
ATOM     29  N   UNL d   1      29.122 -17.438  -1.052  0.00  0.00    -0.061 N 
ATOM     30  C   UNL d   1      29.207 -16.490  -2.267  0.00  0.00     0.236 C 
ATOM     31  C   UNL d   1      29.925 -17.116  -3.445  0.00  0.00     0.028 C 
ATOM     32  C   UNL d   1      31.312 -17.547  -3.001  0.00  0.00     0.003 C 
ATOM     33  C   UNL d   1      31.142 -18.634  -1.960  0.00  0.00     0.028 C 
ATOM     34  C   UNL d   1      30.474 -18.061  -0.723  0.00  0.00     0.236 C 
ATOM     35  H   UNL d   1      28.489 -18.201  -1.323  0.00  0.00     0.280 HD
ENDBRANCH   1  29
TORSDOF 11
ENDMDL
MODEL 7
REMARK VINA RESULT:    -9.030      3.872      8.805
REMARK INTER + INTRA:         -14.061
REMARK INTER:                 -12.311
REMARK INTRA:                  -1.750
REMARK CONF_INDEPENDENT:        3.281
REMARK UNBOUND:                -1.750
REMARK  11 active torsions:
REMARK  status: ('A' for Active; 'I' for Inactive)
REMARK    1  A    between atoms: C_2  and  C_3 
REMARK    2  A    between atoms: C_3  and  C_4 
REMARK    3  A    between atoms: C_4  and  S_5 
REMARK    4  A    between atoms: S_5  and  C_6 
REMARK    5  A    between atoms: C_9  and  C_10 
REMARK       I    between atoms: C_10  and  N_12 
REMARK    6  A    between atoms: N_12  and  C_13 
REMARK    7  A    between atoms: C_13  and  C_14 
REMARK    8  A    between atoms: C_14  and  C_15 
REMARK    9  A    between atoms: C_14  and  N_25 
REMARK   10  A    between atoms: C_18  and  O_19 
REMARK   11  A    between atoms: C_21  and  O_22 
ROOT
ATOM      1  C   UNL d   1      27.372 -14.857  -0.471  0.00  0.00     0.238 C 
ENDROOT
BRANCH   1   2
ATOM      2  C   UNL d   1      28.672 -15.338   0.289  0.00  0.00     0.161 C 
BRANCH   2   3
ATOM      3  N   UNL d   1      28.768 -14.856   1.662  0.00  0.00    -0.354 N 
ATOM      4  C   UNL d   1      27.760 -14.158   2.292  0.00  0.00     0.256 C 
ATOM      5  O   UNL d   1      26.727 -13.855   1.690  0.00  0.00    -0.268 OA
ATOM      6  H   UNL d   1      29.534 -15.200   2.235  0.00  0.00     0.162 HD
BRANCH   4   7
ATOM      7  C   UNL d   1      27.948 -13.768   3.716  0.00  0.00     0.090 A 
ATOM      8  C   UNL d   1      28.293 -14.721   4.651  0.00  0.00     0.139 A 
ATOM      9  N   UNL d   1      28.428 -14.472   5.980  0.00  0.00    -0.234 NA
ATOM     10  C   UNL d   1      28.207 -13.216   6.398  0.00  0.00     0.189 A 
ATOM     11  N   UNL d   1      27.895 -12.209   5.579  0.00  0.00    -0.210 NA
ATOM     12  C   UNL d   1      27.780 -12.512   4.268  0.00  0.00     0.146 A 
ATOM     13 CL   UNL d   1      27.406 -11.089   3.362  0.00  0.00    -0.061 Cl
BRANCH  10  14
ATOM     14  S   UNL d   1      28.539 -12.813   8.091  0.00  0.00    -0.090 SA
BRANCH  14  15
ATOM     15  C   UNL d   1      29.650 -14.181   8.585  0.00  0.00     0.082 C 
BRANCH  15  16
ATOM     16  C   UNL d   1      29.252 -14.660   9.989  0.00  0.00     0.010 C 
BRANCH  16  17
ATOM     17  C   UNL d   1      27.855 -14.179  10.390  0.00  0.00    -0.004 C 
ATOM     18  C   UNL d   1      27.934 -13.041  11.401  0.00  0.00     0.005 C 
ENDBRANCH  16  17
ENDBRANCH  15  16
ENDBRANCH  14  15
ENDBRANCH  10  14
ENDBRANCH   4   7
ENDBRANCH   2   3
ENDBRANCH   1   2
BRANCH   1  19
ATOM     19  C   UNL d   1      27.601 -14.726  -1.972  0.00  0.00    -0.023 C 
ATOM     20  C   UNL d   1      26.773 -13.935  -2.778  0.00  0.00     0.012 C 
ATOM     21  C   UNL d   1      26.713 -14.194  -4.150  0.00  0.00     0.040 C 
ATOM     22  C   UNL d   1      27.589 -15.114  -4.751  0.00  0.00     0.101 C 
ATOM     23  C   UNL d   1      28.482 -15.839  -3.953  0.00  0.00     0.102 C 
ATOM     24  C   UNL d   1      28.479 -15.622  -2.587  0.00  0.00     0.049 C 
BRANCH  22  25
ATOM     25  O   UNL d   1      27.459 -15.200  -6.114  0.00  0.00    -0.353 OA
ATOM     26  C   UNL d   1      28.549 -14.698  -6.884  0.00  0.00     0.210 C 
ENDBRANCH  22  25
BRANCH  23  27
ATOM     27  O   UNL d   1      29.280 -16.796  -4.509  0.00  0.00    -0.353 OA
ATOM     28  C   UNL d   1      30.334 -17.358  -3.738  0.00  0.00     0.210 C 
ENDBRANCH  23  27
ENDBRANCH   1  19
BRANCH   1  29
ATOM     29  N   UNL d   1      26.147 -15.820  -0.194  0.00  0.00    -0.061 N 
ATOM     30  C   UNL d   1      25.140 -15.843  -1.364  0.00  0.00     0.236 C 
ATOM     31  C   UNL d   1      24.002 -16.817  -1.134  0.00  0.00     0.028 C 
ATOM     32  C   UNL d   1      24.581 -18.200  -0.895  0.00  0.00     0.003 C 
ATOM     33  C   UNL d   1      25.381 -18.145   0.390  0.00  0.00     0.028 C 
ATOM     34  C   UNL d   1      26.576 -17.225   0.214  0.00  0.00     0.236 C 
ATOM     35  H   UNL d   1      25.652 -15.405   0.605  0.00  0.00     0.280 HD
ENDBRANCH   1  29
TORSDOF 11
ENDMDL
MODEL 8
REMARK VINA RESULT:    -8.531      3.801      8.572
REMARK INTER + INTRA:         -14.038
REMARK INTER:                 -11.812
REMARK INTRA:                  -2.226
REMARK CONF_INDEPENDENT:        3.281
REMARK UNBOUND:                -2.226
REMARK  11 active torsions:
REMARK  status: ('A' for Active; 'I' for Inactive)
REMARK    1  A    between atoms: C_2  and  C_3 
REMARK    2  A    between atoms: C_3  and  C_4 
REMARK    3  A    between atoms: C_4  and  S_5 
REMARK    4  A    between atoms: S_5  and  C_6 
REMARK    5  A    between atoms: C_9  and  C_10 
REMARK       I    between atoms: C_10  and  N_12 
REMARK    6  A    between atoms: N_12  and  C_13 
REMARK    7  A    between atoms: C_13  and  C_14 
REMARK    8  A    between atoms: C_14  and  C_15 
REMARK    9  A    between atoms: C_14  and  N_25 
REMARK   10  A    between atoms: C_18  and  O_19 
REMARK   11  A    between atoms: C_21  and  O_22 
ROOT
ATOM      1  C   UNL d   1      27.790 -15.251  -0.864  0.00  0.00     0.238 C 
ENDROOT
BRANCH   1   2
ATOM      2  C   UNL d   1      29.280 -15.379  -0.353  0.00  0.00     0.161 C 
BRANCH   2   3
ATOM      3  N   UNL d   1      29.434 -15.164   1.082  0.00  0.00    -0.354 N 
ATOM      4  C   UNL d   1      28.546 -14.429   1.837  0.00  0.00     0.256 C 
ATOM      5  O   UNL d   1      27.586 -13.861   1.311  0.00  0.00    -0.268 OA
ATOM      6  H   UNL d   1      30.125 -15.723   1.576  0.00  0.00     0.162 HD
BRANCH   4   7
ATOM      7  C   UNL d   1      28.774 -14.326   3.304  0.00  0.00     0.090 A 
ATOM      8  C   UNL d   1      27.780 -14.705   4.184  0.00  0.00     0.139 A 
ATOM      9  N   UNL d   1      27.874 -14.593   5.534  0.00  0.00    -0.234 NA
ATOM     10  C   UNL d   1      29.009 -14.078   6.033  0.00  0.00     0.189 A 
ATOM     11  N   UNL d   1      30.046 -13.705   5.279  0.00  0.00    -0.210 NA
ATOM     12  C   UNL d   1      29.900 -13.845   3.944  0.00  0.00     0.146 A 
ATOM     13 CL   UNL d   1      31.344 -13.345   3.136  0.00  0.00    -0.061 Cl
BRANCH  10  14
ATOM     14  S   UNL d   1      29.239 -14.075   7.790  0.00  0.00    -0.090 SA
BRANCH  14  15
ATOM     15  C   UNL d   1      29.055 -12.297   8.184  0.00  0.00     0.082 C 
BRANCH  15  16
ATOM     16  C   UNL d   1      28.155 -11.645   7.124  0.00  0.00     0.010 C 
BRANCH  16  17
ATOM     17  C   UNL d   1      28.954 -10.801   6.126  0.00  0.00    -0.004 C 
ATOM     18  C   UNL d   1      28.054 -10.255   5.024  0.00  0.00     0.005 C 
ENDBRANCH  16  17
ENDBRANCH  15  16
ENDBRANCH  14  15
ENDBRANCH  10  14
ENDBRANCH   4   7
ENDBRANCH   2   3
ENDBRANCH   1   2
BRANCH   1  19
ATOM     19  C   UNL d   1      27.675 -15.501  -2.363  0.00  0.00    -0.023 C 
ATOM     20  C   UNL d   1      28.788 -15.841  -3.142  0.00  0.00     0.012 C 
ATOM     21  C   UNL d   1      28.750 -15.609  -4.520  0.00  0.00     0.040 C 
ATOM     22  C   UNL d   1      27.562 -15.202  -5.151  0.00  0.00     0.101 C 
ATOM     23  C   UNL d   1      26.422 -14.950  -4.379  0.00  0.00     0.102 C 
ATOM     24  C   UNL d   1      26.498 -15.116  -3.008  0.00  0.00     0.049 C 
BRANCH  22  25
ATOM     25  O   UNL d   1      27.665 -15.092  -6.514  0.00  0.00    -0.353 OA
ATOM     26  C   UNL d   1      28.535 -14.071  -7.000  0.00  0.00     0.210 C 
ENDBRANCH  22  25
BRANCH  23  27
ATOM     27  O   UNL d   1      25.286 -14.474  -4.967  0.00  0.00    -0.353 OA
ATOM     28  C   UNL d   1      24.376 -13.699  -4.196  0.00  0.00     0.210 C 
ENDBRANCH  23  27
ENDBRANCH   1  19
BRANCH   1  29
ATOM     29  N   UNL d   1      26.820 -16.226  -0.080  0.00  0.00    -0.061 N 
ATOM     30  C   UNL d   1      25.381 -16.197  -0.634  0.00  0.00     0.236 C 
ATOM     31  C   UNL d   1      24.466 -17.180   0.068  0.00  0.00     0.028 C 
ATOM     32  C   UNL d   1      25.059 -18.573  -0.050  0.00  0.00     0.003 C 
ATOM     33  C   UNL d   1      26.373 -18.576   0.705  0.00  0.00     0.028 C 
ATOM     34  C   UNL d   1      27.361 -17.648   0.021  0.00  0.00     0.236 C 
ATOM     35  H   UNL d   1      26.771 -15.848   0.875  0.00  0.00     0.280 HD
ENDBRANCH   1  29
TORSDOF 11
ENDMDL
MODEL 9
REMARK VINA RESULT:    -8.086      5.173      7.955
REMARK INTER + INTRA:         -13.785
REMARK INTER:                 -11.368
REMARK INTRA:                  -2.417
REMARK CONF_INDEPENDENT:        3.281
REMARK UNBOUND:                -2.417
REMARK  11 active torsions:
REMARK  status: ('A' for Active; 'I' for Inactive)
REMARK    1  A    between atoms: C_2  and  C_3 
REMARK    2  A    between atoms: C_3  and  C_4 
REMARK    3  A    between atoms: C_4  and  S_5 
REMARK    4  A    between atoms: S_5  and  C_6 
REMARK    5  A    between atoms: C_9  and  C_10 
REMARK       I    between atoms: C_10  and  N_12 
REMARK    6  A    between atoms: N_12  and  C_13 
REMARK    7  A    between atoms: C_13  and  C_14 
REMARK    8  A    between atoms: C_14  and  C_15 
REMARK    9  A    between atoms: C_14  and  N_25 
REMARK   10  A    between atoms: C_18  and  O_19 
REMARK   11  A    between atoms: C_21  and  O_22 
ROOT
ATOM      1  C   UNL d   1      28.530 -15.500   0.194  0.00  0.00     0.238 C 
ENDROOT
BRANCH   1   2
ATOM      2  C   UNL d   1      28.713 -14.490  -1.007  0.00  0.00     0.161 C 
BRANCH   2   3
ATOM      3  N   UNL d   1      29.342 -15.078  -2.185  0.00  0.00    -0.354 N 
ATOM      4  C   UNL d   1      28.630 -15.546  -3.269  0.00  0.00     0.256 C 
ATOM      5  O   UNL d   1      27.397 -15.539  -3.268  0.00  0.00    -0.268 OA
ATOM      6  H   UNL d   1      30.348 -14.977  -2.289  0.00  0.00     0.162 HD
BRANCH   4   7
ATOM      7  C   UNL d   1      29.382 -16.071  -4.441  0.00  0.00     0.090 A 
ATOM      8  C   UNL d   1      30.326 -17.063  -4.266  0.00  0.00     0.139 A 
ATOM      9  N   UNL d   1      31.101 -17.561  -5.263  0.00  0.00    -0.234 NA
ATOM     10  C   UNL d   1      30.932 -17.049  -6.492  0.00  0.00     0.189 A 
ATOM     11  N   UNL d   1      30.030 -16.108  -6.782  0.00  0.00    -0.210 NA
ATOM     12  C   UNL d   1      29.282 -15.653  -5.754  0.00  0.00     0.146 A 
ATOM     13 CL   UNL d   1      28.155 -14.471  -6.319  0.00  0.00    -0.061 Cl
BRANCH  10  14
ATOM     14  S   UNL d   1      31.798 -17.790  -7.848  0.00  0.00    -0.090 SA
BRANCH  14  15
ATOM     15  C   UNL d   1      30.905 -19.376  -8.035  0.00  0.00     0.082 C 
BRANCH  15  16
ATOM     16  C   UNL d   1      31.383 -20.345  -6.944  0.00  0.00     0.010 C 
BRANCH  16  17
ATOM     17  C   UNL d   1      30.405 -20.421  -5.768  0.00  0.00    -0.004 C 
ATOM     18  C   UNL d   1      31.111 -20.871  -4.495  0.00  0.00     0.005 C 
ENDBRANCH  16  17
ENDBRANCH  15  16
ENDBRANCH  14  15
ENDBRANCH  10  14
ENDBRANCH   4   7
ENDBRANCH   2   3
ENDBRANCH   1   2
BRANCH   1  19
ATOM     19  C   UNL d   1      27.175 -16.196   0.157  0.00  0.00    -0.023 C 
ATOM     20  C   UNL d   1      26.992 -17.483   0.677  0.00  0.00     0.012 C 
ATOM     21  C   UNL d   1      25.914 -18.251   0.226  0.00  0.00     0.040 C 
ATOM     22  C   UNL d   1      24.926 -17.694  -0.603  0.00  0.00     0.101 C 
ATOM     23  C   UNL d   1      25.065 -16.374  -1.050  0.00  0.00     0.102 C 
ATOM     24  C   UNL d   1      26.175 -15.651  -0.652  0.00  0.00     0.049 C 
BRANCH  22  25
ATOM     25  O   UNL d   1      23.895 -18.550  -0.895  0.00  0.00    -0.353 OA
ATOM     26  C   UNL d   1      22.650 -18.278  -0.255  0.00  0.00     0.210 C 
ENDBRANCH  22  25
BRANCH  23  27
ATOM     27  O   UNL d   1      24.159 -15.846  -1.923  0.00  0.00    -0.353 OA
ATOM     28  C   UNL d   1      24.553 -14.774  -2.770  0.00  0.00     0.210 C 
ENDBRANCH  23  27
ENDBRANCH   1  19
BRANCH   1  29
ATOM     29  N   UNL d   1      29.689 -16.578   0.230  0.00  0.00    -0.061 N 
ATOM     30  C   UNL d   1      29.542 -17.638  -0.881  0.00  0.00     0.236 C 
ATOM     31  C   UNL d   1      30.687 -18.631  -0.896  0.00  0.00     0.028 C 
ATOM     32  C   UNL d   1      31.993 -17.871  -1.047  0.00  0.00     0.003 C 
ATOM     33  C   UNL d   1      32.168 -17.012   0.189  0.00  0.00     0.028 C 
ATOM     34  C   UNL d   1      31.080 -15.954   0.239  0.00  0.00     0.236 C 
ATOM     35  H   UNL d   1      29.569 -17.075   1.122  0.00  0.00     0.280 HD
ENDBRANCH   1  29
TORSDOF 11
ENDMDL
