MODEL 1
REMARK VINA RESULT:    -6.727      0.000      0.000
REMARK INTER + INTRA:          -8.859
REMARK INTER:                  -7.920
REMARK INTRA:                  -0.939
REMARK CONF_INDEPENDENT:        1.193
REMARK UNBOUND:                -0.939
REMARK  4 active torsions:
REMARK  status: ('A' for Active; 'I' for Inactive)
REMARK       I    between atoms: C_2  and  N_3 
REMARK    1  A    between atoms: C_2  and  C_13 
REMARK    2  A    between atoms: N_3  and  N_4 
REMARK    3  A    between atoms: N_4  and  C_5 
REMARK    4  A    between atoms: C_22  and  O_23 
ROOT
ATOM      1  O   UNL d   1      26.852 -13.933   1.050  0.00  0.00    -0.266 OA
ATOM      2  C   UNL d   1      27.765 -14.616   1.523  0.00  0.00     0.272 C 
ATOM      3  N   UNL d   1      28.242 -15.761   0.892  0.00  0.00    -0.265 N 
ATOM      4  H   UNL d   1      29.038 -16.294   1.219  0.00  0.00     0.190 HD
ENDROOT
BRANCH   2   5
ATOM      5  C   UNL d   1      28.415 -14.215   2.813  0.00  0.00     0.067 A 
ATOM      6  C   UNL d   1      27.667 -13.691   3.882  0.00  0.00     0.032 A 
ATOM      7  C   UNL d   1      28.274 -13.403   5.132  0.00  0.00    -0.025 A 
ATOM      8  C   UNL d   1      27.540 -12.894   6.221  0.00  0.00     0.012 A 
ATOM      9  C   UNL d   1      29.658 -13.642   5.308  0.00  0.00    -0.023 A 
ATOM     10  C   UNL d   1      28.155 -12.604   7.444  0.00  0.00     0.001 A 
ATOM     11  C   UNL d   1      29.518 -12.821   7.605  0.00  0.00     0.001 A 
ATOM     12  C   UNL d   1      30.264 -13.342   6.546  0.00  0.00     0.012 A 
ATOM     13  C   UNL d   1      30.398 -14.174   4.238  0.00  0.00     0.049 A 
ATOM     14  C   UNL d   1      29.782 -14.450   3.009  0.00  0.00     0.082 A 
BRANCH  14  15
ATOM     15  O   UNL d   1      30.544 -14.922   1.975  0.00  0.00    -0.360 OA
ATOM     16  H   UNL d   1      30.588 -15.891   2.002  0.00  0.00     0.217 HD
ENDBRANCH  14  15
ENDBRANCH   2   5
BRANCH   3  17
ATOM     17  N   UNL d   1      27.651 -16.124  -0.330  0.00  0.00    -0.295 N 
ATOM     18  H   UNL d   1      28.243 -16.128  -1.164  0.00  0.00     0.187 HD
BRANCH  17  19
ATOM     19  C   UNL d   1      26.335 -16.601  -0.361  0.00  0.00     0.086 A 
ATOM     20  C   UNL d   1      25.984 -17.787   0.301  0.00  0.00     0.037 A 
ATOM     21  C   UNL d   1      24.683 -18.297   0.230  0.00  0.00     0.045 A 
ATOM     22  C   UNL d   1      23.721 -17.639  -0.527  0.00  0.00     0.119 A 
ATOM     23  F   UNL d   1      22.485 -18.149  -0.610  0.00  0.00    -0.206 F 
ATOM     24  C   UNL d   1      24.029 -16.465  -1.197  0.00  0.00     0.086 A 
ATOM     25  C   UNL d   1      25.325 -15.951  -1.100  0.00  0.00     0.147 A 
ATOM     26  F   UNL d   1      25.602 -14.816  -1.762  0.00  0.00    -0.204 F 
ENDBRANCH  17  19
ENDBRANCH   3  17
TORSDOF 4
ENDMDL
MODEL 2
REMARK VINA RESULT:    -6.724      5.404      7.098
REMARK INTER + INTRA:          -8.984
REMARK INTER:                  -7.917
REMARK INTRA:                  -1.066
REMARK CONF_INDEPENDENT:        1.193
REMARK UNBOUND:                -1.066
REMARK  4 active torsions:
REMARK  status: ('A' for Active; 'I' for Inactive)
REMARK       I    between atoms: C_2  and  N_3 
REMARK    1  A    between atoms: C_2  and  C_13 
REMARK    2  A    between atoms: N_3  and  N_4 
REMARK    3  A    between atoms: N_4  and  C_5 
REMARK    4  A    between atoms: C_22  and  O_23 
ROOT
ATOM      1  O   UNL d   1      25.485 -18.682   0.146  0.00  0.00    -0.266 OA
ATOM      2  C   UNL d   1      24.837 -17.734  -0.310  0.00  0.00     0.272 C 
ATOM      3  N   UNL d   1      23.476 -17.578  -0.067  0.00  0.00    -0.265 N 
ATOM      4  H   UNL d   1      22.940 -16.772  -0.366  0.00  0.00     0.190 HD
ENDROOT
BRANCH   2   5
ATOM      5  C   UNL d   1      25.517 -16.690  -1.143  0.00  0.00     0.067 A 
ATOM      6  C   UNL d   1      24.804 -15.912  -2.072  0.00  0.00     0.032 A 
ATOM      7  C   UNL d   1      25.435 -14.861  -2.788  0.00  0.00    -0.025 A 
ATOM      8  C   UNL d   1      24.736 -14.059  -3.712  0.00  0.00     0.012 A 
ATOM      9  C   UNL d   1      26.807 -14.592  -2.568  0.00  0.00    -0.023 A 
ATOM     10  C   UNL d   1      25.375 -13.034  -4.418  0.00  0.00     0.001 A 
ATOM     11  C   UNL d   1      26.726 -12.787  -4.214  0.00  0.00     0.001 A 
ATOM     12  C   UNL d   1      27.437 -13.557  -3.290  0.00  0.00     0.012 A 
ATOM     13  C   UNL d   1      27.511 -15.368  -1.632  0.00  0.00     0.049 A 
ATOM     14  C   UNL d   1      26.872 -16.403  -0.936  0.00  0.00     0.082 A 
BRANCH  14  15
ATOM     15  O   UNL d   1      27.602 -17.168  -0.066  0.00  0.00    -0.360 OA
ATOM     16  H   UNL d   1      27.251 -18.073  -0.036  0.00  0.00     0.217 HD
ENDBRANCH  14  15
ENDBRANCH   2   5
BRANCH   3  17
ATOM     17  N   UNL d   1      22.843 -18.542   0.735  0.00  0.00    -0.295 N 
ATOM     18  H   UNL d   1      23.305 -18.817   1.605  0.00  0.00     0.187 HD
BRANCH  17  19
ATOM     19  C   UNL d   1      21.556 -18.989   0.413  0.00  0.00     0.086 A 
ATOM     20  C   UNL d   1      20.637 -19.322   1.418  0.00  0.00     0.037 A 
ATOM     21  C   UNL d   1      19.368 -19.820   1.103  0.00  0.00     0.045 A 
ATOM     22  C   UNL d   1      19.012 -20.016  -0.226  0.00  0.00     0.119 A 
ATOM     23  F   UNL d   1      17.804 -20.518  -0.517  0.00  0.00    -0.206 F 
ATOM     24  C   UNL d   1      19.893 -19.701  -1.249  0.00  0.00     0.086 A 
ATOM     25  C   UNL d   1      21.148 -19.181  -0.924  0.00  0.00     0.147 A 
ATOM     26  F   UNL d   1      21.988 -18.889  -1.930  0.00  0.00    -0.204 F 
ENDBRANCH  17  19
ENDBRANCH   3  17
TORSDOF 4
ENDMDL
MODEL 3
REMARK VINA RESULT:    -6.606      1.538      1.892
REMARK INTER + INTRA:          -8.702
REMARK INTER:                  -7.799
REMARK INTRA:                  -0.904
REMARK CONF_INDEPENDENT:        1.193
REMARK UNBOUND:                -0.904
REMARK  4 active torsions:
REMARK  status: ('A' for Active; 'I' for Inactive)
REMARK       I    between atoms: C_2  and  N_3 
REMARK    1  A    between atoms: C_2  and  C_13 
REMARK    2  A    between atoms: N_3  and  N_4 
REMARK    3  A    between atoms: N_4  and  C_5 
REMARK    4  A    between atoms: C_22  and  O_23 
ROOT
ATOM      1  O   UNL d   1      27.254 -12.801   1.872  0.00  0.00    -0.266 OA
ATOM      2  C   UNL d   1      27.907 -13.618   2.529  0.00  0.00     0.272 C 
ATOM      3  N   UNL d   1      28.358 -14.818   1.988  0.00  0.00    -0.265 N 
ATOM      4  H   UNL d   1      28.958 -15.468   2.482  0.00  0.00     0.190 HD
ENDROOT
BRANCH   2   5
ATOM      5  C   UNL d   1      28.258 -13.326   3.957  0.00  0.00     0.067 A 
ATOM      6  C   UNL d   1      28.467 -12.011   4.409  0.00  0.00     0.032 A 
ATOM      7  C   UNL d   1      28.705 -11.734   5.781  0.00  0.00    -0.025 A 
ATOM      8  C   UNL d   1      28.901 -10.424   6.257  0.00  0.00     0.012 A 
ATOM      9  C   UNL d   1      28.737 -12.800   6.712  0.00  0.00    -0.023 A 
ATOM     10  C   UNL d   1      29.145 -10.168   7.611  0.00  0.00     0.001 A 
ATOM     11  C   UNL d   1      29.196 -11.219   8.518  0.00  0.00     0.001 A 
ATOM     12  C   UNL d   1      28.987 -12.526   8.074  0.00  0.00     0.012 A 
ATOM     13  C   UNL d   1      28.518 -14.111   6.254  0.00  0.00     0.049 A 
ATOM     14  C   UNL d   1      28.287 -14.365   4.896  0.00  0.00     0.082 A 
BRANCH  14  15
ATOM     15  O   UNL d   1      28.127 -15.659   4.480  0.00  0.00    -0.360 OA
ATOM     16  H   UNL d   1      28.902 -15.950   3.973  0.00  0.00     0.217 HD
ENDBRANCH  14  15
ENDBRANCH   2   5
BRANCH   3  17
ATOM     17  N   UNL d   1      28.052 -15.081   0.643  0.00  0.00    -0.295 N 
ATOM     18  H   UNL d   1      28.670 -14.691  -0.072  0.00  0.00     0.187 HD
BRANCH  17  19
ATOM     19  C   UNL d   1      27.019 -15.969   0.317  0.00  0.00     0.086 A 
ATOM     20  C   UNL d   1      27.030 -17.289   0.790  0.00  0.00     0.037 A 
ATOM     21  C   UNL d   1      26.028 -18.196   0.425  0.00  0.00     0.045 A 
ATOM     22  C   UNL d   1      25.017 -17.799  -0.441  0.00  0.00     0.119 A 
ATOM     23  F   UNL d   1      24.078 -18.682  -0.806  0.00  0.00    -0.206 F 
ATOM     24  C   UNL d   1      24.973 -16.503  -0.932  0.00  0.00     0.086 A 
ATOM     25  C   UNL d   1      25.963 -15.599  -0.542  0.00  0.00     0.147 A 
ATOM     26  F   UNL d   1      25.904 -14.351  -1.034  0.00  0.00    -0.204 F 
ENDBRANCH  17  19
ENDBRANCH   3  17
TORSDOF 4
ENDMDL
MODEL 4
REMARK VINA RESULT:    -6.494      1.591      2.218
REMARK INTER + INTRA:          -8.662
REMARK INTER:                  -7.687
REMARK INTRA:                  -0.975
REMARK CONF_INDEPENDENT:        1.193
REMARK UNBOUND:                -0.975
REMARK  4 active torsions:
REMARK  status: ('A' for Active; 'I' for Inactive)
REMARK       I    between atoms: C_2  and  N_3 
REMARK    1  A    between atoms: C_2  and  C_13 
REMARK    2  A    between atoms: N_3  and  N_4 
REMARK    3  A    between atoms: N_4  and  C_5 
REMARK    4  A    between atoms: C_22  and  O_23 
ROOT
ATOM      1  O   UNL d   1      26.518 -13.885   0.603  0.00  0.00    -0.266 OA
ATOM      2  C   UNL d   1      27.304 -14.392   1.408  0.00  0.00     0.272 C 
ATOM      3  N   UNL d   1      27.986 -15.575   1.139  0.00  0.00    -0.265 N 
ATOM      4  H   UNL d   1      28.691 -15.970   1.750  0.00  0.00     0.190 HD
ENDROOT
BRANCH   2   5
ATOM      5  C   UNL d   1      27.568 -13.725   2.724  0.00  0.00     0.067 A 
ATOM      6  C   UNL d   1      28.032 -14.450   3.837  0.00  0.00     0.032 A 
ATOM      7  C   UNL d   1      28.370 -13.797   5.051  0.00  0.00    -0.025 A 
ATOM      8  C   UNL d   1      28.851 -14.501   6.171  0.00  0.00     0.012 A 
ATOM      9  C   UNL d   1      28.235 -12.391   5.148  0.00  0.00    -0.023 A 
ATOM     10  C   UNL d   1      29.170 -13.844   7.365  0.00  0.00     0.001 A 
ATOM     11  C   UNL d   1      29.017 -12.467   7.462  0.00  0.00     0.001 A 
ATOM     12  C   UNL d   1      28.558 -11.743   6.359  0.00  0.00     0.012 A 
ATOM     13  C   UNL d   1      27.780 -11.672   4.029  0.00  0.00     0.049 A 
ATOM     14  C   UNL d   1      27.448 -12.334   2.840  0.00  0.00     0.082 A 
BRANCH  14  15
ATOM     15  O   UNL d   1      26.962 -11.606   1.787  0.00  0.00    -0.360 OA
ATOM     16  H   UNL d   1      26.759 -12.189   1.038  0.00  0.00     0.217 HD
ENDBRANCH  14  15
ENDBRANCH   2   5
BRANCH   3  17
ATOM     17  N   UNL d   1      27.759 -16.188  -0.105  0.00  0.00    -0.295 N 
ATOM     18  H   UNL d   1      28.565 -16.342  -0.714  0.00  0.00     0.187 HD
BRANCH  17  19
ATOM     19  C   UNL d   1      26.492 -16.695  -0.419  0.00  0.00     0.086 A 
ATOM     20  C   UNL d   1      25.677 -16.059  -1.366  0.00  0.00     0.037 A 
ATOM     21  C   UNL d   1      24.389 -16.530  -1.645  0.00  0.00     0.045 A 
ATOM     22  C   UNL d   1      23.891 -17.631  -0.959  0.00  0.00     0.119 A 
ATOM     23  F   UNL d   1      22.647 -18.058  -1.214  0.00  0.00    -0.206 F 
ATOM     24  C   UNL d   1      24.665 -18.286  -0.014  0.00  0.00     0.086 A 
ATOM     25  C   UNL d   1      25.958 -17.822   0.240  0.00  0.00     0.147 A 
ATOM     26  F   UNL d   1      26.688 -18.468   1.163  0.00  0.00    -0.204 F 
ENDBRANCH  17  19
ENDBRANCH   3  17
TORSDOF 4
ENDMDL
MODEL 5
REMARK VINA RESULT:    -6.368      6.109      7.850
REMARK INTER + INTRA:          -8.488
REMARK INTER:                  -7.561
REMARK INTRA:                  -0.927
REMARK CONF_INDEPENDENT:        1.193
REMARK UNBOUND:                -0.927
REMARK  4 active torsions:
REMARK  status: ('A' for Active; 'I' for Inactive)
REMARK       I    between atoms: C_2  and  N_3 
REMARK    1  A    between atoms: C_2  and  C_13 
REMARK    2  A    between atoms: N_3  and  N_4 
REMARK    3  A    between atoms: N_4  and  C_5 
REMARK    4  A    between atoms: C_22  and  O_23 
ROOT
ATOM      1  O   UNL d   1      24.649 -15.123  -2.656  0.00  0.00    -0.266 OA
ATOM      2  C   UNL d   1      25.813 -15.488  -2.466  0.00  0.00     0.272 C 
ATOM      3  N   UNL d   1      26.226 -16.066  -1.269  0.00  0.00    -0.265 N 
ATOM      4  H   UNL d   1      27.154 -16.442  -1.116  0.00  0.00     0.190 HD
ENDROOT
BRANCH   2   5
ATOM      5  C   UNL d   1      26.837 -15.331  -3.549  0.00  0.00     0.067 A 
ATOM      6  C   UNL d   1      28.174 -15.725  -3.360  0.00  0.00     0.032 A 
ATOM      7  C   UNL d   1      29.115 -15.662  -4.420  0.00  0.00    -0.025 A 
ATOM      8  C   UNL d   1      30.455 -16.066  -4.257  0.00  0.00     0.012 A 
ATOM      9  C   UNL d   1      28.705 -15.192  -5.691  0.00  0.00    -0.023 A 
ATOM     10  C   UNL d   1      31.374 -15.988  -5.309  0.00  0.00     0.001 A 
ATOM     11  C   UNL d   1      30.972 -15.506  -6.549  0.00  0.00     0.001 A 
ATOM     12  C   UNL d   1      29.644 -15.117  -6.741  0.00  0.00     0.012 A 
ATOM     13  C   UNL d   1      27.365 -14.809  -5.875  0.00  0.00     0.049 A 
ATOM     14  C   UNL d   1      26.450 -14.875  -4.816  0.00  0.00     0.082 A 
BRANCH  14  15
ATOM     15  O   UNL d   1      25.166 -14.448  -5.020  0.00  0.00    -0.360 OA
ATOM     16  H   UNL d   1      24.698 -14.368  -4.173  0.00  0.00     0.217 HD
ENDBRANCH  14  15
ENDBRANCH   2   5
BRANCH   3  17
ATOM     17  N   UNL d   1      25.261 -16.237  -0.262  0.00  0.00    -0.295 N 
ATOM     18  H   UNL d   1      25.332 -15.651   0.572  0.00  0.00     0.187 HD
BRANCH  17  19
ATOM     19  C   UNL d   1      24.164 -17.082  -0.476  0.00  0.00     0.086 A 
ATOM     20  C   UNL d   1      22.891 -16.555  -0.733  0.00  0.00     0.037 A 
ATOM     21  C   UNL d   1      21.781 -17.393  -0.895  0.00  0.00     0.045 A 
ATOM     22  C   UNL d   1      21.928 -18.768  -0.775  0.00  0.00     0.119 A 
ATOM     23  F   UNL d   1      20.855 -19.561  -0.904  0.00  0.00    -0.206 F 
ATOM     24  C   UNL d   1      23.171 -19.328  -0.519  0.00  0.00     0.086 A 
ATOM     25  C   UNL d   1      24.276 -18.485  -0.384  0.00  0.00     0.147 A 
ATOM     26  F   UNL d   1      25.469 -19.048  -0.130  0.00  0.00    -0.204 F 
ENDBRANCH  17  19
ENDBRANCH   3  17
TORSDOF 4
ENDMDL
MODEL 6
REMARK VINA RESULT:    -6.290      6.045      8.836
REMARK INTER + INTRA:          -8.675
REMARK INTER:                  -7.483
REMARK INTRA:                  -1.192
REMARK CONF_INDEPENDENT:        1.193
REMARK UNBOUND:                -1.192
REMARK  4 active torsions:
REMARK  status: ('A' for Active; 'I' for Inactive)
REMARK       I    between atoms: C_2  and  N_3 
REMARK    1  A    between atoms: C_2  and  C_13 
REMARK    2  A    between atoms: N_3  and  N_4 
REMARK    3  A    between atoms: N_4  and  C_5 
REMARK    4  A    between atoms: C_22  and  O_23 
ROOT
ATOM      1  O   UNL d   1      27.622 -13.001  -4.964  0.00  0.00    -0.266 OA
ATOM      2  C   UNL d   1      26.562 -12.953  -4.333  0.00  0.00     0.272 C 
ATOM      3  N   UNL d   1      25.689 -11.874  -4.426  0.00  0.00    -0.265 N 
ATOM      4  H   UNL d   1      24.780 -11.844  -3.979  0.00  0.00     0.190 HD
ENDROOT
BRANCH   2   5
ATOM      5  C   UNL d   1      26.166 -14.089  -3.439  0.00  0.00     0.067 A 
ATOM      6  C   UNL d   1      27.112 -14.773  -2.656  0.00  0.00     0.032 A 
ATOM      7  C   UNL d   1      26.716 -15.783  -1.741  0.00  0.00    -0.025 A 
ATOM      8  C   UNL d   1      27.646 -16.470  -0.935  0.00  0.00     0.012 A 
ATOM      9  C   UNL d   1      25.345 -16.114  -1.615  0.00  0.00    -0.023 A 
ATOM     10  C   UNL d   1      27.241 -17.472  -0.046  0.00  0.00     0.001 A 
ATOM     11  C   UNL d   1      25.897 -17.807   0.058  0.00  0.00     0.001 A 
ATOM     12  C   UNL d   1      24.954 -17.128  -0.716  0.00  0.00     0.012 A 
ATOM     13  C   UNL d   1      24.404 -15.420  -2.395  0.00  0.00     0.049 A 
ATOM     14  C   UNL d   1      24.814 -14.427  -3.295  0.00  0.00     0.082 A 
BRANCH  14  15
ATOM     15  O   UNL d   1      23.874 -13.806  -4.072  0.00  0.00    -0.360 OA
ATOM     16  H   UNL d   1      24.030 -13.998  -5.011  0.00  0.00     0.217 HD
ENDBRANCH  14  15
ENDBRANCH   2   5
BRANCH   3  17
ATOM     17  N   UNL d   1      26.046 -10.820  -5.284  0.00  0.00    -0.295 N 
ATOM     18  H   UNL d   1      26.671 -11.030  -6.065  0.00  0.00     0.187 HD
BRANCH  17  19
ATOM     19  C   UNL d   1      25.441  -9.564  -5.144  0.00  0.00     0.086 A 
ATOM     20  C   UNL d   1      24.601  -9.055  -6.145  0.00  0.00     0.037 A 
ATOM     21  C   UNL d   1      24.036  -7.779  -6.035  0.00  0.00     0.045 A 
ATOM     22  C   UNL d   1      24.327  -6.986  -4.933  0.00  0.00     0.119 A 
ATOM     23  F   UNL d   1      23.803  -5.755  -4.850  0.00  0.00    -0.206 F 
ATOM     24  C   UNL d   1      25.155  -7.452  -3.923  0.00  0.00     0.086 A 
ATOM     25  C   UNL d   1      25.694  -8.736  -4.030  0.00  0.00     0.147 A 
ATOM     26  F   UNL d   1      26.498  -9.165  -3.044  0.00  0.00    -0.204 F 
ENDBRANCH  17  19
ENDBRANCH   3  17
TORSDOF 4
ENDMDL
MODEL 7
REMARK VINA RESULT:    -6.216      5.612      7.351
REMARK INTER + INTRA:          -8.391
REMARK INTER:                  -7.410
REMARK INTRA:                  -0.981
REMARK CONF_INDEPENDENT:        1.193
REMARK UNBOUND:                -0.981
REMARK  4 active torsions:
REMARK  status: ('A' for Active; 'I' for Inactive)
REMARK       I    between atoms: C_2  and  N_3 
REMARK    1  A    between atoms: C_2  and  C_13 
REMARK    2  A    between atoms: N_3  and  N_4 
REMARK    3  A    between atoms: N_4  and  C_5 
REMARK    4  A    between atoms: C_22  and  O_23 
ROOT
ATOM      1  O   UNL d   1      23.480 -19.672  -0.725  0.00  0.00    -0.266 OA
ATOM      2  C   UNL d   1      23.255 -18.492  -1.009  0.00  0.00     0.272 C 
ATOM      3  N   UNL d   1      21.972 -18.022  -1.274  0.00  0.00    -0.265 N 
ATOM      4  H   UNL d   1      21.751 -17.046  -1.435  0.00  0.00     0.190 HD
ENDROOT
BRANCH   2   5
ATOM      5  C   UNL d   1      24.379 -17.502  -1.062  0.00  0.00     0.067 A 
ATOM      6  C   UNL d   1      24.408 -16.472  -2.019  0.00  0.00     0.032 A 
ATOM      7  C   UNL d   1      25.425 -15.482  -2.003  0.00  0.00    -0.025 A 
ATOM      8  C   UNL d   1      25.464 -14.433  -2.942  0.00  0.00     0.012 A 
ATOM      9  C   UNL d   1      26.433 -15.533  -1.010  0.00  0.00    -0.023 A 
ATOM     10  C   UNL d   1      26.480 -13.471  -2.920  0.00  0.00     0.001 A 
ATOM     11  C   UNL d   1      27.479 -13.537  -1.956  0.00  0.00     0.001 A 
ATOM     12  C   UNL d   1      27.452 -14.558  -1.003  0.00  0.00     0.012 A 
ATOM     13  C   UNL d   1      26.393 -16.560  -0.052  0.00  0.00     0.049 A 
ATOM     14  C   UNL d   1      25.382 -17.530  -0.084  0.00  0.00     0.082 A 
BRANCH  14  15
ATOM     15  O   UNL d   1      25.403 -18.543   0.836  0.00  0.00    -0.360 OA
ATOM     16  H   UNL d   1      24.525 -18.951   0.910  0.00  0.00     0.217 HD
ENDBRANCH  14  15
ENDBRANCH   2   5
BRANCH   3  17
ATOM     17  N   UNL d   1      20.913 -18.943  -1.199  0.00  0.00    -0.295 N 
ATOM     18  H   UNL d   1      20.630 -19.415  -2.060  0.00  0.00     0.187 HD
BRANCH  17  19
ATOM     19  C   UNL d   1      20.377 -19.297   0.045  0.00  0.00     0.086 A 
ATOM     20  C   UNL d   1      21.030 -18.950   1.236  0.00  0.00     0.037 A 
ATOM     21  C   UNL d   1      20.526 -19.347   2.480  0.00  0.00     0.045 A 
ATOM     22  C   UNL d   1      19.374 -20.120   2.545  0.00  0.00     0.119 A 
ATOM     23  F   UNL d   1      18.914 -20.518   3.739  0.00  0.00    -0.206 F 
ATOM     24  C   UNL d   1      18.700 -20.486   1.390  0.00  0.00     0.086 A 
ATOM     25  C   UNL d   1      19.198 -20.064   0.155  0.00  0.00     0.147 A 
ATOM     26  F   UNL d   1      18.532 -20.435  -0.951  0.00  0.00    -0.204 F 
ENDBRANCH  17  19
ENDBRANCH   3  17
TORSDOF 4
ENDMDL
MODEL 8
REMARK VINA RESULT:    -6.165      5.781      8.217
REMARK INTER + INTRA:          -8.614
REMARK INTER:                  -7.359
REMARK INTRA:                  -1.256
REMARK CONF_INDEPENDENT:        1.193
REMARK UNBOUND:                -1.256
REMARK  4 active torsions:
REMARK  status: ('A' for Active; 'I' for Inactive)
REMARK       I    between atoms: C_2  and  N_3 
REMARK    1  A    between atoms: C_2  and  C_13 
REMARK    2  A    between atoms: N_3  and  N_4 
REMARK    3  A    between atoms: N_4  and  C_5 
REMARK    4  A    between atoms: C_22  and  O_23 
ROOT
ATOM      1  O   UNL d   1      24.629 -13.878  -4.600  0.00  0.00    -0.266 OA
ATOM      2  C   UNL d   1      25.350 -13.547  -3.654  0.00  0.00     0.272 C 
ATOM      3  N   UNL d   1      25.864 -12.261  -3.523  0.00  0.00    -0.265 N 
ATOM      4  H   UNL d   1      26.393 -11.945  -2.719  0.00  0.00     0.190 HD
ENDROOT
BRANCH   2   5
ATOM      5  C   UNL d   1      25.686 -14.539  -2.582  0.00  0.00     0.067 A 
ATOM      6  C   UNL d   1      24.797 -15.569  -2.228  0.00  0.00     0.032 A 
ATOM      7  C   UNL d   1      25.162 -16.562  -1.280  0.00  0.00    -0.025 A 
ATOM      8  C   UNL d   1      24.292 -17.611  -0.923  0.00  0.00     0.012 A 
ATOM      9  C   UNL d   1      26.441 -16.514  -0.676  0.00  0.00    -0.023 A 
ATOM     10  C   UNL d   1      24.662 -18.575   0.021  0.00  0.00     0.001 A 
ATOM     11  C   UNL d   1      25.911 -18.512   0.626  0.00  0.00     0.001 A 
ATOM     12  C   UNL d   1      26.798 -17.492   0.275  0.00  0.00     0.012 A 
ATOM     13  C   UNL d   1      27.328 -15.487  -1.042  0.00  0.00     0.049 A 
ATOM     14  C   UNL d   1      26.950 -14.514  -1.978  0.00  0.00     0.082 A 
BRANCH  14  15
ATOM     15  O   UNL d   1      27.822 -13.502  -2.273  0.00  0.00    -0.360 OA
ATOM     16  H   UNL d   1      28.737 -13.787  -2.115  0.00  0.00     0.217 HD
ENDBRANCH  14  15
ENDBRANCH   2   5
BRANCH   3  17
ATOM     17  N   UNL d   1      25.528 -11.322  -4.513  0.00  0.00    -0.295 N 
ATOM     18  H   UNL d   1      25.157 -11.674  -5.398  0.00  0.00     0.187 HD
BRANCH  17  19
ATOM     19  C   UNL d   1      25.567  -9.952  -4.225  0.00  0.00     0.086 A 
ATOM     20  C   UNL d   1      25.932  -9.495  -2.951  0.00  0.00     0.037 A 
ATOM     21  C   UNL d   1      25.922  -8.130  -2.642  0.00  0.00     0.045 A 
ATOM     22  C   UNL d   1      25.520  -7.206  -3.599  0.00  0.00     0.119 A 
ATOM     23  F   UNL d   1      25.488  -5.904  -3.285  0.00  0.00    -0.206 F 
ATOM     24  C   UNL d   1      25.150  -7.619  -4.869  0.00  0.00     0.086 A 
ATOM     25  C   UNL d   1      25.187  -8.981  -5.175  0.00  0.00     0.147 A 
ATOM     26  F   UNL d   1      24.818  -9.359  -6.410  0.00  0.00    -0.204 F 
ENDBRANCH  17  19
ENDBRANCH   3  17
TORSDOF 4
ENDMDL
MODEL 9
REMARK VINA RESULT:    -6.043      5.903      8.396
REMARK INTER + INTRA:          -8.246
REMARK INTER:                  -7.236
REMARK INTRA:                  -1.010
REMARK CONF_INDEPENDENT:        1.193
REMARK UNBOUND:                -1.010
REMARK  4 active torsions:
REMARK  status: ('A' for Active; 'I' for Inactive)
REMARK       I    between atoms: C_2  and  N_3 
REMARK    1  A    between atoms: C_2  and  C_13 
REMARK    2  A    between atoms: N_3  and  N_4 
REMARK    3  A    between atoms: N_4  and  C_5 
REMARK    4  A    between atoms: C_22  and  O_23 
ROOT
ATOM      1  O   UNL d   1      24.034 -13.758  -4.272  0.00  0.00    -0.266 OA
ATOM      2  C   UNL d   1      25.207 -13.751  -3.886  0.00  0.00     0.272 C 
ATOM      3  N   UNL d   1      26.140 -12.832  -4.354  0.00  0.00    -0.265 N 
ATOM      4  H   UNL d   1      27.086 -12.757  -3.997  0.00  0.00     0.190 HD
ENDROOT
BRANCH   2   5
ATOM      5  C   UNL d   1      25.668 -14.746  -2.864  0.00  0.00     0.067 A 
ATOM      6  C   UNL d   1      24.754 -15.464  -2.072  0.00  0.00     0.032 A 
ATOM      7  C   UNL d   1      25.193 -16.473  -1.175  0.00  0.00    -0.025 A 
ATOM      8  C   UNL d   1      24.294 -17.214  -0.384  0.00  0.00     0.012 A 
ATOM      9  C   UNL d   1      26.575 -16.761  -1.069  0.00  0.00    -0.023 A 
ATOM     10  C   UNL d   1      24.743 -18.198   0.504  0.00  0.00     0.001 A 
ATOM     11  C   UNL d   1      26.102 -18.462   0.619  0.00  0.00     0.001 A 
ATOM     12  C   UNL d   1      27.012 -17.753  -0.167  0.00  0.00     0.012 A 
ATOM     13  C   UNL d   1      27.482 -16.045  -1.870  0.00  0.00     0.049 A 
ATOM     14  C   UNL d   1      27.031 -15.051  -2.749  0.00  0.00     0.082 A 
BRANCH  14  15
ATOM     15  O   UNL d   1      27.947 -14.342  -3.478  0.00  0.00    -0.360 OA
ATOM     16  H   UNL d   1      28.312 -13.616  -2.947  0.00  0.00     0.217 HD
ENDBRANCH  14  15
ENDBRANCH   2   5
BRANCH   3  17
ATOM     17  N   UNL d   1      25.704 -11.882  -5.292  0.00  0.00    -0.295 N 
ATOM     18  H   UNL d   1      24.783 -11.462  -5.153  0.00  0.00     0.187 HD
BRANCH  17  19
ATOM     19  C   UNL d   1      26.573 -11.431  -6.294  0.00  0.00     0.086 A 
ATOM     20  C   UNL d   1      26.348 -10.212  -6.947  0.00  0.00     0.037 A 
ATOM     21  C   UNL d   1      27.183  -9.781  -7.984  0.00  0.00     0.045 A 
ATOM     22  C   UNL d   1      28.241 -10.581  -8.398  0.00  0.00     0.119 A 
ATOM     23  F   UNL d   1      29.019 -10.173  -9.410  0.00  0.00    -0.206 F 
ATOM     24  C   UNL d   1      28.496 -11.795  -7.779  0.00  0.00     0.086 A 
ATOM     25  C   UNL d   1      27.671 -12.204  -6.728  0.00  0.00     0.147 A 
ATOM     26  F   UNL d   1      27.932 -13.386  -6.147  0.00  0.00    -0.204 F 
ENDBRANCH  17  19
ENDBRANCH   3  17
TORSDOF 4
ENDMDL
