MODEL 1
REMARK VINA RESULT:   -30.422      0.000      0.000
REMARK INTER + INTRA:         -33.094
REMARK INTER:                 -31.913
REMARK INTRA:                  -1.181
REMARK CONF_INDEPENDENT:        1.492
REMARK UNBOUND:                -1.181
REMARK  5 active torsions:
REMARK  status: ('A' for Active; 'I' for Inactive)
REMARK    1  A    between atoms: C_2  and  O_3 
REMARK    2  A    between atoms: C_2  and  C_12 
REMARK    3  A    between atoms: O_3  and  C_4 
REMARK       I    between atoms: C_12  and  N_14 
REMARK    4  A    between atoms: N_14  and  N_15 
REMARK    5  A    between atoms: N_15  and  C_16 
ROOT
ATOM      1  C   UNL d   1      24.846 -17.515  -0.177  0.00  0.00     0.070 A 
ATOM      2  C   UNL d   1      24.484 -18.862  -0.138  0.00  0.00     0.038 A 
ATOM      3  C   UNL d   1      23.230 -19.321  -0.542  0.00  0.00     0.025 A 
ATOM      4  C   UNL d   1      22.238 -18.412  -0.869  0.00  0.00     0.044 A 
ATOM      5  C   UNL d   1      20.908 -18.895  -1.112  0.00  0.00     0.099 C 
ATOM      6  N   UNL d   1      19.847 -19.324  -1.268  0.00  0.00    -0.191 NA
ATOM      7  C   UNL d   1      22.545 -17.048  -0.861  0.00  0.00     0.025 A 
ATOM      8  C   UNL d   1      23.843 -16.603  -0.525  0.00  0.00     0.038 A 
ENDROOT
BRANCH   1   9
ATOM      9  O   UNL d   1      26.056 -17.016   0.250  0.00  0.00    -0.337 OA
BRANCH   9  10
ATOM     10  C   UNL d   1      26.733 -15.997  -0.523  0.00  0.00     0.218 C 
ATOM     11  C   UNL d   1      28.159 -16.362  -0.964  0.00  0.00     0.050 C 
BRANCH  10  12
ATOM     12  C   UNL d   1      26.866 -14.654   0.292  0.00  0.00     0.265 C 
ATOM     13  O   UNL d   1      26.460 -13.573  -0.151  0.00  0.00    -0.269 OA
ATOM     14  N   UNL d   1      27.435 -14.735   1.562  0.00  0.00    -0.267 N 
ATOM     15  H   UNL d   1      27.624 -15.620   2.017  0.00  0.00     0.190 HD
BRANCH  14  16
ATOM     16  N   UNL d   1      27.402 -13.574   2.363  0.00  0.00    -0.295 N 
ATOM     17  H   UNL d   1      27.157 -12.686   1.913  0.00  0.00     0.187 HD
BRANCH  16  18
ATOM     18  C   UNL d   1      27.785 -13.593   3.714  0.00  0.00     0.090 A 
ATOM     19  C   UNL d   1      28.129 -14.776   4.385  0.00  0.00     0.037 A 
ATOM     20  C   UNL d   1      28.509 -14.762   5.738  0.00  0.00     0.048 A 
ATOM     21  C   UNL d   1      28.533 -13.563   6.443  0.00  0.00     0.158 A 
ATOM     22  F   UNL d   1      28.920 -13.558   7.726  0.00  0.00    -0.203 F 
ATOM     23  C   UNL d   1      28.163 -12.385   5.818  0.00  0.00     0.195 A 
ATOM     24  F   UNL d   1      28.162 -11.235   6.510  0.00  0.00    -0.199 F 
ATOM     25  C   UNL d   1      27.791 -12.400   4.472  0.00  0.00     0.185 A 
ATOM     26  F   UNL d   1      27.410 -11.246   3.899  0.00  0.00    -0.200 F 
ENDBRANCH  16  18
ENDBRANCH  14  16
ENDBRANCH  10  12
ENDBRANCH   9  10
ENDBRANCH   1   9
TORSDOF 5
ENDMDL
MODEL 2
REMARK VINA RESULT:   -30.139      0.380      1.042
REMARK INTER + INTRA:         -33.054
REMARK INTER:                 -31.630
REMARK INTRA:                  -1.424
REMARK CONF_INDEPENDENT:        1.492
REMARK UNBOUND:                -1.424
REMARK  5 active torsions:
REMARK  status: ('A' for Active; 'I' for Inactive)
REMARK    1  A    between atoms: C_2  and  O_3 
REMARK    2  A    between atoms: C_2  and  C_12 
REMARK    3  A    between atoms: O_3  and  C_4 
REMARK       I    between atoms: C_12  and  N_14 
REMARK    4  A    between atoms: N_14  and  N_15 
REMARK    5  A    between atoms: N_15  and  C_16 
ROOT
ATOM      1  C   UNL d   1      24.719 -17.419  -0.150  0.00  0.00     0.070 A 
ATOM      2  C   UNL d   1      23.609 -16.605  -0.383  0.00  0.00     0.038 A 
ATOM      3  C   UNL d   1      22.320 -17.110  -0.545  0.00  0.00     0.025 A 
ATOM      4  C   UNL d   1      22.122 -18.478  -0.621  0.00  0.00     0.044 A 
ATOM      5  C   UNL d   1      20.818 -18.973  -0.962  0.00  0.00     0.099 C 
ATOM      6  N   UNL d   1      19.762 -19.325  -1.269  0.00  0.00    -0.191 NA
ATOM      7  C   UNL d   1      23.220 -19.328  -0.453  0.00  0.00     0.025 A 
ATOM      8  C   UNL d   1      24.509 -18.802  -0.212  0.00  0.00     0.038 A 
ENDROOT
BRANCH   1   9
ATOM      9  O   UNL d   1      26.013 -16.965  -0.027  0.00  0.00    -0.337 OA
BRANCH   9  10
ATOM     10  C   UNL d   1      26.504 -15.929  -0.910  0.00  0.00     0.218 C 
ATOM     11  C   UNL d   1      27.764 -16.303  -1.705  0.00  0.00     0.050 C 
BRANCH  10  12
ATOM     12  C   UNL d   1      26.874 -14.623  -0.109  0.00  0.00     0.265 C 
ATOM     13  O   UNL d   1      26.842 -13.501  -0.630  0.00  0.00    -0.269 OA
ATOM     14  N   UNL d   1      27.211 -14.774   1.235  0.00  0.00    -0.267 N 
ATOM     15  H   UNL d   1      27.087 -15.649   1.730  0.00  0.00     0.190 HD
BRANCH  14  16
ATOM     16  N   UNL d   1      27.376 -13.600   1.999  0.00  0.00    -0.295 N 
ATOM     17  H   UNL d   1      27.273 -12.698   1.523  0.00  0.00     0.187 HD
BRANCH  16  18
ATOM     18  C   UNL d   1      27.768 -13.641   3.348  0.00  0.00     0.090 A 
ATOM     19  C   UNL d   1      28.164 -14.826   3.984  0.00  0.00     0.037 A 
ATOM     20  C   UNL d   1      28.552 -14.835   5.335  0.00  0.00     0.048 A 
ATOM     21  C   UNL d   1      28.531 -13.655   6.072  0.00  0.00     0.158 A 
ATOM     22  F   UNL d   1      28.926 -13.670   7.353  0.00  0.00    -0.203 F 
ATOM     23  C   UNL d   1      28.110 -12.476   5.482  0.00  0.00     0.195 A 
ATOM     24  F   UNL d   1      28.067 -11.347   6.206  0.00  0.00    -0.199 F 
ATOM     25  C   UNL d   1      27.731 -12.469   4.138  0.00  0.00     0.185 A 
ATOM     26  F   UNL d   1      27.300 -11.317   3.599  0.00  0.00    -0.200 F 
ENDBRANCH  16  18
ENDBRANCH  14  16
ENDBRANCH  10  12
ENDBRANCH   9  10
ENDBRANCH   1   9
TORSDOF 5
ENDMDL
MODEL 3
REMARK VINA RESULT:   -30.014      1.105      2.095
REMARK INTER + INTRA:         -32.462
REMARK INTER:                 -31.506
REMARK INTRA:                  -0.957
REMARK CONF_INDEPENDENT:        1.492
REMARK UNBOUND:                -0.957
REMARK  5 active torsions:
REMARK  status: ('A' for Active; 'I' for Inactive)
REMARK    1  A    between atoms: C_2  and  O_3 
REMARK    2  A    between atoms: C_2  and  C_12 
REMARK    3  A    between atoms: O_3  and  C_4 
REMARK       I    between atoms: C_12  and  N_14 
REMARK    4  A    between atoms: N_14  and  N_15 
REMARK    5  A    between atoms: N_15  and  C_16 
ROOT
ATOM      1  C   UNL d   1      24.628 -17.105  -0.341  0.00  0.00     0.070 A 
ATOM      2  C   UNL d   1      23.511 -16.379  -0.756  0.00  0.00     0.038 A 
ATOM      3  C   UNL d   1      22.240 -16.942  -0.868  0.00  0.00     0.025 A 
ATOM      4  C   UNL d   1      22.076 -18.307  -0.700  0.00  0.00     0.044 A 
ATOM      5  C   UNL d   1      20.797 -18.892  -0.989  0.00  0.00     0.099 C 
ATOM      6  N   UNL d   1      19.762 -19.325  -1.264  0.00  0.00    -0.191 NA
ATOM      7  C   UNL d   1      23.185 -19.080  -0.343  0.00  0.00     0.025 A 
ATOM      8  C   UNL d   1      24.452 -18.482  -0.157  0.00  0.00     0.038 A 
ENDROOT
BRANCH   1   9
ATOM      9  O   UNL d   1      25.906 -16.599  -0.258  0.00  0.00    -0.337 OA
BRANCH   9  10
ATOM     10  C   UNL d   1      26.148 -15.199  -0.529  0.00  0.00     0.218 C 
ATOM     11  C   UNL d   1      26.424 -14.864  -2.003  0.00  0.00     0.050 C 
BRANCH  10  12
ATOM     12  C   UNL d   1      27.398 -14.669   0.272  0.00  0.00     0.265 C 
ATOM     13  O   UNL d   1      28.004 -13.642  -0.058  0.00  0.00    -0.269 OA
ATOM     14  N   UNL d   1      27.782 -15.389   1.403  0.00  0.00    -0.267 N 
ATOM     15  H   UNL d   1      27.212 -16.131   1.792  0.00  0.00     0.190 HD
BRANCH  14  16
ATOM     16  N   UNL d   1      28.786 -14.829   2.219  0.00  0.00    -0.295 N 
ATOM     17  H   UNL d   1      29.743 -15.180   2.114  0.00  0.00     0.187 HD
BRANCH  16  18
ATOM     18  C   UNL d   1      28.491 -13.889   3.221  0.00  0.00     0.090 A 
ATOM     19  C   UNL d   1      28.069 -12.583   2.931  0.00  0.00     0.037 A 
ATOM     20  C   UNL d   1      27.780 -11.666   3.956  0.00  0.00     0.048 A 
ATOM     21  C   UNL d   1      27.926 -12.041   5.287  0.00  0.00     0.158 A 
ATOM     22  F   UNL d   1      27.625 -11.166   6.257  0.00  0.00    -0.203 F 
ATOM     23  C   UNL d   1      28.376 -13.311   5.604  0.00  0.00     0.195 A 
ATOM     24  F   UNL d   1      28.541 -13.658   6.890  0.00  0.00    -0.199 F 
ATOM     25  C   UNL d   1      28.657 -14.222   4.585  0.00  0.00     0.185 A 
ATOM     26  F   UNL d   1      29.119 -15.438   4.920  0.00  0.00    -0.200 F 
ENDBRANCH  16  18
ENDBRANCH  14  16
ENDBRANCH  10  12
ENDBRANCH   9  10
ENDBRANCH   1   9
TORSDOF 5
ENDMDL
MODEL 4
REMARK VINA RESULT:   -29.938      5.421      7.109
REMARK INTER + INTRA:         -32.577
REMARK INTER:                 -31.429
REMARK INTRA:                  -1.148
REMARK CONF_INDEPENDENT:        1.492
REMARK UNBOUND:                -1.148
REMARK  5 active torsions:
REMARK  status: ('A' for Active; 'I' for Inactive)
REMARK    1  A    between atoms: C_2  and  O_3 
REMARK    2  A    between atoms: C_2  and  C_12 
REMARK    3  A    between atoms: O_3  and  C_4 
REMARK       I    between atoms: C_12  and  N_14 
REMARK    4  A    between atoms: N_14  and  N_15 
REMARK    5  A    between atoms: N_15  and  C_16 
ROOT
ATOM      1  C   UNL d   1      24.662 -17.214  -0.214  0.00  0.00     0.070 A 
ATOM      2  C   UNL d   1      24.386 -18.582  -0.182  0.00  0.00     0.038 A 
ATOM      3  C   UNL d   1      23.156 -19.115  -0.565  0.00  0.00     0.025 A 
ATOM      4  C   UNL d   1      22.102 -18.267  -0.862  0.00  0.00     0.044 A 
ATOM      5  C   UNL d   1      20.800 -18.831  -1.084  0.00  0.00     0.099 C 
ATOM      6  N   UNL d   1      19.765 -19.325  -1.223  0.00  0.00    -0.191 NA
ATOM      7  C   UNL d   1      22.323 -16.887  -0.847  0.00  0.00     0.025 A 
ATOM      8  C   UNL d   1      23.597 -16.364  -0.531  0.00  0.00     0.038 A 
ENDROOT
BRANCH   1   9
ATOM      9  O   UNL d   1      25.847 -16.643   0.195  0.00  0.00    -0.337 OA
BRANCH   9  10
ATOM     10  C   UNL d   1      27.089 -17.016  -0.447  0.00  0.00     0.218 C 
ATOM     11  C   UNL d   1      28.356 -16.486   0.241  0.00  0.00     0.050 C 
BRANCH  10  12
ATOM     12  C   UNL d   1      27.150 -16.481  -1.929  0.00  0.00     0.265 C 
ATOM     13  O   UNL d   1      28.145 -16.643  -2.646  0.00  0.00    -0.269 OA
ATOM     14  N   UNL d   1      26.014 -15.839  -2.421  0.00  0.00    -0.267 N 
ATOM     15  H   UNL d   1      25.134 -15.837  -1.922  0.00  0.00     0.190 HD
BRANCH  14  16
ATOM     16  N   UNL d   1      25.998 -15.512  -3.793  0.00  0.00    -0.295 N 
ATOM     17  H   UNL d   1      25.963 -16.280  -4.471  0.00  0.00     0.187 HD
BRANCH  16  18
ATOM     18  C   UNL d   1      26.125 -14.186  -4.241  0.00  0.00     0.090 A 
ATOM     19  C   UNL d   1      25.399 -13.126  -3.678  0.00  0.00     0.037 A 
ATOM     20  C   UNL d   1      25.549 -11.810  -4.148  0.00  0.00     0.048 A 
ATOM     21  C   UNL d   1      26.417 -11.541  -5.202  0.00  0.00     0.158 A 
ATOM     22  F   UNL d   1      26.570 -10.278  -5.626  0.00  0.00    -0.203 F 
ATOM     23  C   UNL d   1      27.119 -12.572  -5.801  0.00  0.00     0.195 A 
ATOM     24  F   UNL d   1      27.934 -12.311  -6.835  0.00  0.00    -0.199 F 
ATOM     25  C   UNL d   1      26.973 -13.878  -5.329  0.00  0.00     0.185 A 
ATOM     26  F   UNL d   1      27.645 -14.863  -5.948  0.00  0.00    -0.200 F 
ENDBRANCH  16  18
ENDBRANCH  14  16
ENDBRANCH  10  12
ENDBRANCH   9  10
ENDBRANCH   1   9
TORSDOF 5
ENDMDL
MODEL 5
REMARK VINA RESULT:   -29.913      5.307      6.949
REMARK INTER + INTRA:         -32.349
REMARK INTER:                 -31.405
REMARK INTRA:                  -0.944
REMARK CONF_INDEPENDENT:        1.492
REMARK UNBOUND:                -0.944
REMARK  5 active torsions:
REMARK  status: ('A' for Active; 'I' for Inactive)
REMARK    1  A    between atoms: C_2  and  O_3 
REMARK    2  A    between atoms: C_2  and  C_12 
REMARK    3  A    between atoms: O_3  and  C_4 
REMARK       I    between atoms: C_12  and  N_14 
REMARK    4  A    between atoms: N_14  and  N_15 
REMARK    5  A    between atoms: N_15  and  C_16 
ROOT
ATOM      1  C   UNL d   1      24.663 -17.032  -0.237  0.00  0.00     0.070 A 
ATOM      2  C   UNL d   1      23.544 -16.322  -0.676  0.00  0.00     0.038 A 
ATOM      3  C   UNL d   1      22.285 -16.905  -0.817  0.00  0.00     0.025 A 
ATOM      4  C   UNL d   1      22.138 -18.272  -0.654  0.00  0.00     0.044 A 
ATOM      5  C   UNL d   1      20.875 -18.876  -0.972  0.00  0.00     0.099 C 
ATOM      6  N   UNL d   1      19.852 -19.324  -1.270  0.00  0.00    -0.191 NA
ATOM      7  C   UNL d   1      23.250 -19.028  -0.273  0.00  0.00     0.025 A 
ATOM      8  C   UNL d   1      24.503 -18.411  -0.059  0.00  0.00     0.038 A 
ENDROOT
BRANCH   1   9
ATOM      9  O   UNL d   1      25.931 -16.507  -0.125  0.00  0.00    -0.337 OA
BRANCH   9  10
ATOM     10  C   UNL d   1      26.993 -16.990  -0.980  0.00  0.00     0.218 C 
ATOM     11  C   UNL d   1      28.412 -16.758  -0.441  0.00  0.00     0.050 C 
BRANCH  10  12
ATOM     12  C   UNL d   1      26.952 -16.292  -2.393  0.00  0.00     0.265 C 
ATOM     13  O   UNL d   1      27.977 -15.893  -2.959  0.00  0.00    -0.269 OA
ATOM     14  N   UNL d   1      25.706 -16.169  -3.007  0.00  0.00    -0.267 N 
ATOM     15  H   UNL d   1      24.878 -16.629  -2.649  0.00  0.00     0.190 HD
BRANCH  14  16
ATOM     16  N   UNL d   1      25.682 -15.703  -4.338  0.00  0.00    -0.295 N 
ATOM     17  H   UNL d   1      25.376 -16.353  -5.069  0.00  0.00     0.187 HD
BRANCH  16  18
ATOM     18  C   UNL d   1      26.153 -14.426  -4.687  0.00  0.00     0.090 A 
ATOM     19  C   UNL d   1      27.335 -14.230  -5.414  0.00  0.00     0.037 A 
ATOM     20  C   UNL d   1      27.780 -12.939  -5.748  0.00  0.00     0.048 A 
ATOM     21  C   UNL d   1      27.052 -11.825  -5.341  0.00  0.00     0.158 A 
ATOM     22  F   UNL d   1      27.473 -10.599  -5.686  0.00  0.00    -0.203 F 
ATOM     23  C   UNL d   1      25.901 -11.986  -4.591  0.00  0.00     0.195 A 
ATOM     24  F   UNL d   1      25.217 -10.907  -4.179  0.00  0.00    -0.199 F 
ATOM     25  C   UNL d   1      25.458 -13.269  -4.265  0.00  0.00     0.185 A 
ATOM     26  F   UNL d   1      24.353 -13.395  -3.512  0.00  0.00    -0.200 F 
ENDBRANCH  16  18
ENDBRANCH  14  16
ENDBRANCH  10  12
ENDBRANCH   9  10
ENDBRANCH   1   9
TORSDOF 5
ENDMDL
MODEL 6
REMARK VINA RESULT:   -29.760      5.539      7.868
REMARK INTER + INTRA:         -31.852
REMARK INTER:                 -31.251
REMARK INTRA:                  -0.601
REMARK CONF_INDEPENDENT:        1.492
REMARK UNBOUND:                -0.601
REMARK  5 active torsions:
REMARK  status: ('A' for Active; 'I' for Inactive)
REMARK    1  A    between atoms: C_2  and  O_3 
REMARK    2  A    between atoms: C_2  and  C_12 
REMARK    3  A    between atoms: O_3  and  C_4 
REMARK       I    between atoms: C_12  and  N_14 
REMARK    4  A    between atoms: N_14  and  N_15 
REMARK    5  A    between atoms: N_15  and  C_16 
ROOT
ATOM      1  C   UNL d   1      24.661 -16.922  -0.836  0.00  0.00     0.070 A 
ATOM      2  C   UNL d   1      23.455 -16.225  -0.936  0.00  0.00     0.038 A 
ATOM      3  C   UNL d   1      22.211 -16.850  -0.867  0.00  0.00     0.025 A 
ATOM      4  C   UNL d   1      22.137 -18.233  -0.837  0.00  0.00     0.044 A 
ATOM      5  C   UNL d   1      20.850 -18.861  -0.943  0.00  0.00     0.099 C 
ATOM      6  N   UNL d   1      19.799 -19.324  -1.062  0.00  0.00    -0.191 NA
ATOM      7  C   UNL d   1      23.325 -18.970  -0.797  0.00  0.00     0.025 A 
ATOM      8  C   UNL d   1      24.578 -18.318  -0.790  0.00  0.00     0.038 A 
ENDROOT
BRANCH   1   9
ATOM      9  O   UNL d   1      25.908 -16.349  -0.941  0.00  0.00    -0.337 OA
BRANCH   9  10
ATOM     10  C   UNL d   1      27.048 -16.977  -0.307  0.00  0.00     0.218 C 
ATOM     11  C   UNL d   1      27.537 -16.284   0.974  0.00  0.00     0.050 C 
BRANCH  10  12
ATOM     12  C   UNL d   1      28.292 -17.014  -1.275  0.00  0.00     0.265 C 
ATOM     13  O   UNL d   1      28.269 -16.489  -2.395  0.00  0.00    -0.269 OA
ATOM     14  N   UNL d   1      29.446 -17.639  -0.805  0.00  0.00    -0.267 N 
ATOM     15  H   UNL d   1      29.550 -17.930   0.160  0.00  0.00     0.190 HD
BRANCH  14  16
ATOM     16  N   UNL d   1      30.611 -17.528  -1.592  0.00  0.00    -0.295 N 
ATOM     17  H   UNL d   1      31.342 -16.880  -1.280  0.00  0.00     0.187 HD
BRANCH  16  18
ATOM     18  C   UNL d   1      30.744 -18.198  -2.820  0.00  0.00     0.090 A 
ATOM     19  C   UNL d   1      30.408 -17.603  -4.044  0.00  0.00     0.037 A 
ATOM     20  C   UNL d   1      30.553 -18.300  -5.257  0.00  0.00     0.048 A 
ATOM     21  C   UNL d   1      31.021 -19.609  -5.256  0.00  0.00     0.158 A 
ATOM     22  F   UNL d   1      31.178 -20.256  -6.420  0.00  0.00    -0.203 F 
ATOM     23  C   UNL d   1      31.325 -20.235  -4.059  0.00  0.00     0.195 A 
ATOM     24  F   UNL d   1      31.751 -21.508  -4.063  0.00  0.00    -0.199 F 
ATOM     25  C   UNL d   1      31.186 -19.540  -2.857  0.00  0.00     0.185 A 
ATOM     26  F   UNL d   1      31.462 -20.181  -1.709  0.00  0.00    -0.200 F 
ENDBRANCH  16  18
ENDBRANCH  14  16
ENDBRANCH  10  12
ENDBRANCH   9  10
ENDBRANCH   1   9
TORSDOF 5
ENDMDL
MODEL 7
REMARK VINA RESULT:   -29.191      1.721      2.548
REMARK INTER + INTRA:         -31.699
REMARK INTER:                 -30.682
REMARK INTRA:                  -1.016
REMARK CONF_INDEPENDENT:        1.492
REMARK UNBOUND:                -1.016
REMARK  5 active torsions:
REMARK  status: ('A' for Active; 'I' for Inactive)
REMARK    1  A    between atoms: C_2  and  O_3 
REMARK    2  A    between atoms: C_2  and  C_12 
REMARK    3  A    between atoms: O_3  and  C_4 
REMARK       I    between atoms: C_12  and  N_14 
REMARK    4  A    between atoms: N_14  and  N_15 
REMARK    5  A    between atoms: N_15  and  C_16 
ROOT
ATOM      1  C   UNL d   1      24.476 -17.126  -0.520  0.00  0.00     0.070 A 
ATOM      2  C   UNL d   1      23.330 -16.384  -0.813  0.00  0.00     0.038 A 
ATOM      3  C   UNL d   1      22.057 -16.950  -0.877  0.00  0.00     0.025 A 
ATOM      4  C   UNL d   1      21.911 -18.325  -0.786  0.00  0.00     0.044 A 
ATOM      5  C   UNL d   1      20.619 -18.901  -1.027  0.00  0.00     0.099 C 
ATOM      6  N   UNL d   1      19.569 -19.325  -1.260  0.00  0.00    -0.191 NA
ATOM      7  C   UNL d   1      23.045 -19.108  -0.552  0.00  0.00     0.025 A 
ATOM      8  C   UNL d   1      24.318 -18.512  -0.413  0.00  0.00     0.038 A 
ENDROOT
BRANCH   1   9
ATOM      9  O   UNL d   1      25.754 -16.614  -0.489  0.00  0.00    -0.337 OA
BRANCH   9  10
ATOM     10  C   UNL d   1      26.094 -15.468  -1.302  0.00  0.00     0.218 C 
ATOM     11  C   UNL d   1      26.524 -15.800  -2.739  0.00  0.00     0.050 C 
BRANCH  10  12
ATOM     12  C   UNL d   1      27.291 -14.656  -0.674  0.00  0.00     0.265 C 
ATOM     13  O   UNL d   1      27.882 -13.766  -1.300  0.00  0.00    -0.269 OA
ATOM     14  N   UNL d   1      27.644 -14.956   0.641  0.00  0.00    -0.267 N 
ATOM     15  H   UNL d   1      27.079 -15.556   1.229  0.00  0.00     0.190 HD
BRANCH  14  16
ATOM     16  N   UNL d   1      28.594 -14.121   1.264  0.00  0.00    -0.295 N 
ATOM     17  H   UNL d   1      29.587 -14.326   1.114  0.00  0.00     0.187 HD
BRANCH  16  18
ATOM     18  C   UNL d   1      28.215 -13.097   2.149  0.00  0.00     0.090 A 
ATOM     19  C   UNL d   1      28.579 -13.095   3.503  0.00  0.00     0.037 A 
ATOM     20  C   UNL d   1      28.185 -12.055   4.363  0.00  0.00     0.048 A 
ATOM     21  C   UNL d   1      27.405 -11.010   3.878  0.00  0.00     0.158 A 
ATOM     22  F   UNL d   1      27.055 -10.011   4.701  0.00  0.00    -0.203 F 
ATOM     23  C   UNL d   1      26.999 -11.003   2.555  0.00  0.00     0.195 A 
ATOM     24  F   UNL d   1      26.224 -10.006   2.101  0.00  0.00    -0.199 F 
ATOM     25  C   UNL d   1      27.397 -12.034   1.702  0.00  0.00     0.185 A 
ATOM     26  F   UNL d   1      26.966 -12.016   0.430  0.00  0.00    -0.200 F 
ENDBRANCH  16  18
ENDBRANCH  14  16
ENDBRANCH  10  12
ENDBRANCH   9  10
ENDBRANCH   1   9
TORSDOF 5
ENDMDL
MODEL 8
REMARK VINA RESULT:   -29.016      4.873      7.472
REMARK INTER + INTRA:         -31.928
REMARK INTER:                 -30.507
REMARK INTRA:                  -1.421
REMARK CONF_INDEPENDENT:        1.492
REMARK UNBOUND:                -1.421
REMARK  5 active torsions:
REMARK  status: ('A' for Active; 'I' for Inactive)
REMARK    1  A    between atoms: C_2  and  O_3 
REMARK    2  A    between atoms: C_2  and  C_12 
REMARK    3  A    between atoms: O_3  and  C_4 
REMARK       I    between atoms: C_12  and  N_14 
REMARK    4  A    between atoms: N_14  and  N_15 
REMARK    5  A    between atoms: N_15  and  C_16 
ROOT
ATOM      1  C   UNL d   1      24.632 -16.783  -0.653  0.00  0.00     0.070 A 
ATOM      2  C   UNL d   1      23.423 -16.124  -0.882  0.00  0.00     0.038 A 
ATOM      3  C   UNL d   1      22.192 -16.780  -0.883  0.00  0.00     0.025 A 
ATOM      4  C   UNL d   1      22.150 -18.161  -0.794  0.00  0.00     0.044 A 
ATOM      5  C   UNL d   1      20.890 -18.828  -0.972  0.00  0.00     0.099 C 
ATOM      6  N   UNL d   1      19.863 -19.325  -1.153  0.00  0.00    -0.191 NA
ATOM      7  C   UNL d   1      23.347 -18.863  -0.624  0.00  0.00     0.025 A 
ATOM      8  C   UNL d   1      24.580 -18.177  -0.547  0.00  0.00     0.038 A 
ENDROOT
BRANCH   1   9
ATOM      9  O   UNL d   1      25.871 -16.181  -0.685  0.00  0.00    -0.337 OA
BRANCH   9  10
ATOM     10  C   UNL d   1      27.044 -16.918  -0.269  0.00  0.00     0.218 C 
ATOM     11  C   UNL d   1      27.716 -16.396   1.010  0.00  0.00     0.050 C 
BRANCH  10  12
ATOM     12  C   UNL d   1      28.161 -16.891  -1.382  0.00  0.00     0.265 C 
ATOM     13  O   UNL d   1      29.217 -17.525  -1.269  0.00  0.00    -0.269 OA
ATOM     14  N   UNL d   1      27.898 -16.143  -2.529  0.00  0.00    -0.267 N 
ATOM     15  H   UNL d   1      26.985 -15.751  -2.723  0.00  0.00     0.190 HD
BRANCH  14  16
ATOM     16  N   UNL d   1      28.813 -16.251  -3.597  0.00  0.00    -0.295 N 
ATOM     17  H   UNL d   1      29.521 -16.990  -3.551  0.00  0.00     0.187 HD
BRANCH  16  18
ATOM     18  C   UNL d   1      28.834 -15.323  -4.652  0.00  0.00     0.090 A 
ATOM     19  C   UNL d   1      29.936 -15.177  -5.507  0.00  0.00     0.037 A 
ATOM     20  C   UNL d   1      29.927 -14.239  -6.555  0.00  0.00     0.048 A 
ATOM     21  C   UNL d   1      28.817 -13.423  -6.749  0.00  0.00     0.158 A 
ATOM     22  F   UNL d   1      28.809 -12.550  -7.766  0.00  0.00    -0.203 F 
ATOM     23  C   UNL d   1      27.729 -13.519  -5.898  0.00  0.00     0.195 A 
ATOM     24  F   UNL d   1      26.673 -12.710  -6.074  0.00  0.00    -0.199 F 
ATOM     25  C   UNL d   1      27.738 -14.454  -4.862  0.00  0.00     0.185 A 
ATOM     26  F   UNL d   1      26.681 -14.506  -4.034  0.00  0.00    -0.200 F 
ENDBRANCH  16  18
ENDBRANCH  14  16
ENDBRANCH  10  12
ENDBRANCH   9  10
ENDBRANCH   1   9
TORSDOF 5
ENDMDL
MODEL 9
REMARK VINA RESULT:   -28.931      5.056      7.690
REMARK INTER + INTRA:         -31.846
REMARK INTER:                 -30.423
REMARK INTRA:                  -1.423
REMARK CONF_INDEPENDENT:        1.492
REMARK UNBOUND:                -1.423
REMARK  5 active torsions:
REMARK  status: ('A' for Active; 'I' for Inactive)
REMARK    1  A    between atoms: C_2  and  O_3 
REMARK    2  A    between atoms: C_2  and  C_12 
REMARK    3  A    between atoms: O_3  and  C_4 
REMARK       I    between atoms: C_12  and  N_14 
REMARK    4  A    between atoms: N_14  and  N_15 
REMARK    5  A    between atoms: N_15  and  C_16 
ROOT
ATOM      1  C   UNL d   1      24.732 -16.845  -0.858  0.00  0.00     0.070 A 
ATOM      2  C   UNL d   1      23.518 -16.174  -1.009  0.00  0.00     0.038 A 
ATOM      3  C   UNL d   1      22.282 -16.810  -0.895  0.00  0.00     0.025 A 
ATOM      4  C   UNL d   1      22.228 -18.188  -0.763  0.00  0.00     0.044 A 
ATOM      5  C   UNL d   1      20.950 -18.840  -0.822  0.00  0.00     0.099 C 
ATOM      6  N   UNL d   1      19.905 -19.325  -0.907  0.00  0.00    -0.191 NA
ATOM      7  C   UNL d   1      23.425 -18.903  -0.669  0.00  0.00     0.025 A 
ATOM      8  C   UNL d   1      24.670 -18.235  -0.709  0.00  0.00     0.038 A 
ENDROOT
BRANCH   1   9
ATOM      9  O   UNL d   1      25.972 -16.264  -1.005  0.00  0.00    -0.337 OA
BRANCH   9  10
ATOM     10  C   UNL d   1      26.949 -16.366   0.058  0.00  0.00     0.218 C 
ATOM     11  C   UNL d   1      27.130 -15.088   0.892  0.00  0.00     0.050 C 
BRANCH  10  12
ATOM     12  C   UNL d   1      28.378 -16.713  -0.510  0.00  0.00     0.265 C 
ATOM     13  O   UNL d   1      29.360 -16.860   0.228  0.00  0.00    -0.269 OA
ATOM     14  N   UNL d   1      28.491 -16.886  -1.889  0.00  0.00    -0.267 N 
ATOM     15  H   UNL d   1      27.682 -16.935  -2.496  0.00  0.00     0.190 HD
BRANCH  14  16
ATOM     16  N   UNL d   1      29.722 -17.363  -2.384  0.00  0.00    -0.295 N 
ATOM     17  H   UNL d   1      30.427 -17.670  -1.707  0.00  0.00     0.187 HD
BRANCH  16  18
ATOM     18  C   UNL d   1      30.031 -17.334  -3.755  0.00  0.00     0.090 A 
ATOM     19  C   UNL d   1      30.938 -18.227  -4.343  0.00  0.00     0.037 A 
ATOM     20  C   UNL d   1      31.227 -18.174  -5.718  0.00  0.00     0.048 A 
ATOM     21  C   UNL d   1      30.621 -17.211  -6.519  0.00  0.00     0.158 A 
ATOM     22  F   UNL d   1      30.885 -17.184  -7.833  0.00  0.00    -0.203 F 
ATOM     23  C   UNL d   1      29.749 -16.293  -5.960  0.00  0.00     0.195 A 
ATOM     24  F   UNL d   1      29.189 -15.350  -6.733  0.00  0.00    -0.199 F 
ATOM     25  C   UNL d   1      29.460 -16.352  -4.595  0.00  0.00     0.185 A 
ATOM     26  F   UNL d   1      28.633 -15.431  -4.074  0.00  0.00    -0.200 F 
ENDBRANCH  16  18
ENDBRANCH  14  16
ENDBRANCH  10  12
ENDBRANCH   9  10
ENDBRANCH   1   9
TORSDOF 5
ENDMDL
