MODEL 1
REMARK VINA RESULT:    -7.196      0.000      0.000
REMARK INTER + INTRA:         -11.829
REMARK INTER:                  -9.582
REMARK INTRA:                  -2.248
REMARK CONF_INDEPENDENT:        2.386
REMARK UNBOUND:                -2.248
REMARK  8 active torsions:
REMARK  status: ('A' for Active; 'I' for Inactive)
REMARK    1  A    between atoms: C_2  and  C_4 
REMARK    2  A    between atoms: C_4  and  C_5 
REMARK    3  A    between atoms: C_5  and  C_6 
REMARK       I    between atoms: C_6  and  N_8 
REMARK    4  A    between atoms: N_8  and  N_9 
REMARK       I    between atoms: N_9  and  C_10 
REMARK       I    between atoms: C_10  and  N_12 
REMARK    5  A    between atoms: N_12  and  C_13 
REMARK    6  A    between atoms: C_13  and  C_14 
REMARK    7  A    between atoms: C_14  and  O_15 
REMARK    8  A    between atoms: O_15  and  C_16 
ROOT
ATOM      1  N   UNL d   1      23.654 -17.657  -0.130  0.00  0.00    -0.249 N 
ATOM      2  C   UNL d   1      25.018 -17.822   0.045  0.00  0.00     0.334 C 
ATOM      3  O   UNL d   1      25.529 -18.932   0.207  0.00  0.00    -0.246 OA
ATOM      4  N   UNL d   1      25.752 -16.649   0.024  0.00  0.00    -0.340 N 
ATOM      5  H   UNL d   1      23.195 -16.761  -0.270  0.00  0.00     0.192 HD
ATOM      6  H   UNL d   1      25.273 -15.772  -0.115  0.00  0.00     0.164 HD
ENDROOT
BRANCH   1   7
ATOM      7  N   UNL d   1      22.789 -18.800  -0.121  0.00  0.00    -0.266 N 
ATOM      8  C   UNL d   1      21.476 -18.667  -0.555  0.00  0.00     0.236 C 
ATOM      9  O   UNL d   1      21.031 -17.588  -0.950  0.00  0.00    -0.272 OA
ATOM     10  H   UNL d   1      23.201 -19.674   0.202  0.00  0.00     0.190 HD
BRANCH   8  11
ATOM     11  C   UNL d   1      20.633 -19.949  -0.521  0.00  0.00     0.105 C 
BRANCH  11  12
ATOM     12  C   UNL d   1      19.151 -19.677  -0.182  0.00  0.00     0.013 C 
BRANCH  12  13
ATOM     13  C   UNL d   1      18.727 -20.106   1.240  0.00  0.00    -0.022 C 
ATOM     14  C   UNL d   1      18.127 -21.519   1.222  0.00  0.00     0.009 C 
ATOM     15  C   UNL d   1      19.907 -20.081   2.211  0.00  0.00     0.009 C 
ENDBRANCH  12  13
ENDBRANCH  11  12
ENDBRANCH   8  11
ENDBRANCH   1   7
BRANCH   4  16
ATOM     16  C   UNL d   1      27.218 -16.643   0.186  0.00  0.00     0.151 C 
BRANCH  16  17
ATOM     17  C   UNL d   1      27.926 -15.343  -0.268  0.00  0.00     0.195 C 
BRANCH  17  18
ATOM     18  O   UNL d   1      26.957 -14.390  -0.735  0.00  0.00    -0.350 OA
BRANCH  18  19
ATOM     19  C   UNL d   1      26.588 -14.435  -2.057  0.00  0.00     0.068 A 
ATOM     20  C   UNL d   1      25.809 -13.361  -2.507  0.00  0.00     0.037 A 
ATOM     21  C   UNL d   1      25.217 -13.382  -3.777  0.00  0.00     0.003 A 
ATOM     22  C   UNL d   1      25.455 -14.448  -4.637  0.00  0.00     0.000 A 
ATOM     23  C   UNL d   1      26.264 -15.503  -4.216  0.00  0.00     0.003 A 
ATOM     24  C   UNL d   1      26.824 -15.500  -2.929  0.00  0.00     0.037 A 
ENDBRANCH  18  19
ENDBRANCH  17  18
ENDBRANCH  16  17
ENDBRANCH   4  16
TORSDOF 8
ENDMDL
MODEL 2
REMARK VINA RESULT:    -7.000      0.854      1.270
REMARK INTER + INTRA:         -11.591
REMARK INTER:                  -9.387
REMARK INTRA:                  -2.204
REMARK CONF_INDEPENDENT:        2.386
REMARK UNBOUND:                -2.204
REMARK  8 active torsions:
REMARK  status: ('A' for Active; 'I' for Inactive)
REMARK    1  A    between atoms: C_2  and  C_4 
REMARK    2  A    between atoms: C_4  and  C_5 
REMARK    3  A    between atoms: C_5  and  C_6 
REMARK       I    between atoms: C_6  and  N_8 
REMARK    4  A    between atoms: N_8  and  N_9 
REMARK       I    between atoms: N_9  and  C_10 
REMARK       I    between atoms: C_10  and  N_12 
REMARK    5  A    between atoms: N_12  and  C_13 
REMARK    6  A    between atoms: C_13  and  C_14 
REMARK    7  A    between atoms: C_14  and  O_15 
REMARK    8  A    between atoms: O_15  and  C_16 
ROOT
ATOM      1  N   UNL d   1      23.405 -17.753  -0.625  0.00  0.00    -0.249 N 
ATOM      2  C   UNL d   1      24.715 -17.690  -0.176  0.00  0.00     0.334 C 
ATOM      3  O   UNL d   1      25.210 -18.574   0.525  0.00  0.00    -0.246 OA
ATOM      4  N   UNL d   1      25.412 -16.563  -0.575  0.00  0.00    -0.340 N 
ATOM      5  H   UNL d   1      22.962 -17.047  -1.208  0.00  0.00     0.192 HD
ATOM      6  H   UNL d   1      24.949 -15.876  -1.151  0.00  0.00     0.164 HD
ENDROOT
BRANCH   1   7
ATOM      7  N   UNL d   1      22.581 -18.870  -0.271  0.00  0.00    -0.266 N 
ATOM      8  C   UNL d   1      21.241 -18.874  -0.640  0.00  0.00     0.236 C 
ATOM      9  O   UNL d   1      20.739 -17.939  -1.265  0.00  0.00    -0.272 OA
ATOM     10  H   UNL d   1      23.040 -19.626   0.234  0.00  0.00     0.190 HD
BRANCH   8  11
ATOM     11  C   UNL d   1      20.445 -20.120  -0.228  0.00  0.00     0.105 C 
BRANCH  11  12
ATOM     12  C   UNL d   1      18.959 -19.808   0.056  0.00  0.00     0.013 C 
BRANCH  12  13
ATOM     13  C   UNL d   1      18.409 -20.427   1.360  0.00  0.00    -0.022 C 
ATOM     14  C   UNL d   1      17.918 -21.861   1.112  0.00  0.00     0.009 C 
ATOM     15  C   UNL d   1      19.467 -20.450   2.463  0.00  0.00     0.009 C 
ENDBRANCH  12  13
ENDBRANCH  11  12
ENDBRANCH   8  11
ENDBRANCH   1   7
BRANCH   4  16
ATOM     16  C   UNL d   1      26.819 -16.341  -0.192  0.00  0.00     0.151 C 
BRANCH  16  17
ATOM     17  C   UNL d   1      27.392 -14.952  -0.565  0.00  0.00     0.195 C 
BRANCH  17  18
ATOM     18  O   UNL d   1      26.394 -14.172  -1.245  0.00  0.00    -0.350 OA
BRANCH  18  19
ATOM     19  C   UNL d   1      26.504 -14.022  -2.606  0.00  0.00     0.068 A 
ATOM     20  C   UNL d   1      26.386 -15.198  -3.358  0.00  0.00     0.037 A 
ATOM     21  C   UNL d   1      26.662 -15.207  -4.731  0.00  0.00     0.003 A 
ATOM     22  C   UNL d   1      26.994 -14.022  -5.381  0.00  0.00     0.000 A 
ATOM     23  C   UNL d   1      27.073 -12.837  -4.650  0.00  0.00     0.003 A 
ATOM     24  C   UNL d   1      26.834 -12.838  -3.267  0.00  0.00     0.037 A 
ENDBRANCH  18  19
ENDBRANCH  17  18
ENDBRANCH  16  17
ENDBRANCH   4  16
TORSDOF 8
ENDMDL
MODEL 3
REMARK VINA RESULT:    -6.950      2.477      4.048
REMARK INTER + INTRA:         -10.797
REMARK INTER:                  -9.336
REMARK INTRA:                  -1.462
REMARK CONF_INDEPENDENT:        2.386
REMARK UNBOUND:                -1.462
REMARK  8 active torsions:
REMARK  status: ('A' for Active; 'I' for Inactive)
REMARK    1  A    between atoms: C_2  and  C_4 
REMARK    2  A    between atoms: C_4  and  C_5 
REMARK    3  A    between atoms: C_5  and  C_6 
REMARK       I    between atoms: C_6  and  N_8 
REMARK    4  A    between atoms: N_8  and  N_9 
REMARK       I    between atoms: N_9  and  C_10 
REMARK       I    between atoms: C_10  and  N_12 
REMARK    5  A    between atoms: N_12  and  C_13 
REMARK    6  A    between atoms: C_13  and  C_14 
REMARK    7  A    between atoms: C_14  and  O_15 
REMARK    8  A    between atoms: O_15  and  C_16 
ROOT
ATOM      1  N   UNL d   1      23.664 -17.801  -0.790  0.00  0.00    -0.249 N 
ATOM      2  C   UNL d   1      24.981 -17.723  -0.367  0.00  0.00     0.334 C 
ATOM      3  O   UNL d   1      25.468 -18.544   0.413  0.00  0.00    -0.246 OA
ATOM      4  N   UNL d   1      25.695 -16.658  -0.886  0.00  0.00    -0.340 N 
ATOM      5  H   UNL d   1      23.227 -17.147  -1.434  0.00  0.00     0.192 HD
ATOM      6  H   UNL d   1      25.238 -16.022  -1.523  0.00  0.00     0.164 HD
ENDROOT
BRANCH   1   7
ATOM      7  N   UNL d   1      22.822 -18.859  -0.315  0.00  0.00    -0.266 N 
ATOM      8  C   UNL d   1      21.462 -18.830  -0.600  0.00  0.00     0.236 C 
ATOM      9  O   UNL d   1      20.957 -17.915  -1.252  0.00  0.00    -0.272 OA
ATOM     10  H   UNL d   1      23.283 -19.600   0.210  0.00  0.00     0.190 HD
BRANCH   8  11
ATOM     11  C   UNL d   1      20.647 -20.013  -0.060  0.00  0.00     0.105 C 
BRANCH  11  12
ATOM     12  C   UNL d   1      19.140 -19.692   0.055  0.00  0.00     0.013 C 
BRANCH  12  13
ATOM     13  C   UNL d   1      18.450 -20.281   1.306  0.00  0.00    -0.022 C 
ATOM     14  C   UNL d   1      17.826 -21.646   0.986  0.00  0.00     0.009 C 
ATOM     15  C   UNL d   1      19.432 -20.444   2.465  0.00  0.00     0.009 C 
ENDBRANCH  12  13
ENDBRANCH  11  12
ENDBRANCH   8  11
ENDBRANCH   1   7
BRANCH   4  16
ATOM     16  C   UNL d   1      27.113 -16.430  -0.547  0.00  0.00     0.151 C 
BRANCH  16  17
ATOM     17  C   UNL d   1      27.397 -16.162   0.951  0.00  0.00     0.195 C 
BRANCH  17  18
ATOM     18  O   UNL d   1      27.933 -14.839   1.123  0.00  0.00    -0.350 OA
BRANCH  18  19
ATOM     19  C   UNL d   1      27.809 -14.245   2.356  0.00  0.00     0.068 A 
ATOM     20  C   UNL d   1      27.401 -12.905   2.345  0.00  0.00     0.037 A 
ATOM     21  C   UNL d   1      27.416 -12.137   3.517  0.00  0.00     0.003 A 
ATOM     22  C   UNL d   1      27.775 -12.723   4.727  0.00  0.00     0.000 A 
ATOM     23  C   UNL d   1      28.142 -14.068   4.756  0.00  0.00     0.003 A 
ATOM     24  C   UNL d   1      28.165 -14.825   3.574  0.00  0.00     0.037 A 
ENDBRANCH  18  19
ENDBRANCH  17  18
ENDBRANCH  16  17
ENDBRANCH   4  16
TORSDOF 8
ENDMDL
MODEL 4
REMARK VINA RESULT:    -6.940      2.557      3.214
REMARK INTER + INTRA:         -10.651
REMARK INTER:                  -9.326
REMARK INTRA:                  -1.324
REMARK CONF_INDEPENDENT:        2.386
REMARK UNBOUND:                -1.324
REMARK  8 active torsions:
REMARK  status: ('A' for Active; 'I' for Inactive)
REMARK    1  A    between atoms: C_2  and  C_4 
REMARK    2  A    between atoms: C_4  and  C_5 
REMARK    3  A    between atoms: C_5  and  C_6 
REMARK       I    between atoms: C_6  and  N_8 
REMARK    4  A    between atoms: N_8  and  N_9 
REMARK       I    between atoms: N_9  and  C_10 
REMARK       I    between atoms: C_10  and  N_12 
REMARK    5  A    between atoms: N_12  and  C_13 
REMARK    6  A    between atoms: C_13  and  C_14 
REMARK    7  A    between atoms: C_14  and  O_15 
REMARK    8  A    between atoms: O_15  and  C_16 
ROOT
ATOM      1  N   UNL d   1      23.282 -16.640  -1.324  0.00  0.00    -0.249 N 
ATOM      2  C   UNL d   1      24.576 -16.500  -1.800  0.00  0.00     0.334 C 
ATOM      3  O   UNL d   1      25.429 -17.377  -1.647  0.00  0.00    -0.246 OA
ATOM      4  N   UNL d   1      24.829 -15.306  -2.451  0.00  0.00    -0.340 N 
ATOM      5  H   UNL d   1      22.550 -15.943  -1.434  0.00  0.00     0.192 HD
ATOM      6  H   UNL d   1      24.086 -14.630  -2.545  0.00  0.00     0.164 HD
ENDROOT
BRANCH   1   7
ATOM      7  N   UNL d   1      22.902 -17.833  -0.626  0.00  0.00    -0.266 N 
ATOM      8  C   UNL d   1      21.566 -18.212  -0.599  0.00  0.00     0.236 C 
ATOM      9  O   UNL d   1      20.693 -17.548  -1.160  0.00  0.00    -0.272 OA
ATOM     10  H   UNL d   1      23.657 -18.356  -0.187  0.00  0.00     0.190 HD
BRANCH   8  11
ATOM     11  C   UNL d   1      21.261 -19.510   0.162  0.00  0.00     0.105 C 
BRANCH  11  12
ATOM     12  C   UNL d   1      19.859 -20.072  -0.161  0.00  0.00     0.013 C 
BRANCH  12  13
ATOM     13  C   UNL d   1      18.898 -20.138   1.047  0.00  0.00    -0.022 C 
ATOM     14  C   UNL d   1      18.031 -21.403   0.979  0.00  0.00     0.009 C 
ATOM     15  C   UNL d   1      19.659 -20.129   2.372  0.00  0.00     0.009 C 
ENDBRANCH  12  13
ENDBRANCH  11  12
ENDBRANCH   8  11
ENDBRANCH   1   7
BRANCH   4  16
ATOM     16  C   UNL d   1      26.152 -14.996  -3.027  0.00  0.00     0.151 C 
BRANCH  16  17
ATOM     17  C   UNL d   1      26.124 -14.347  -4.431  0.00  0.00     0.195 C 
BRANCH  17  18
ATOM     18  O   UNL d   1      26.744 -15.218  -5.391  0.00  0.00    -0.350 OA
BRANCH  18  19
ATOM     19  C   UNL d   1      28.116 -15.221  -5.473  0.00  0.00     0.068 A 
ATOM     20  C   UNL d   1      28.659 -14.597  -6.603  0.00  0.00     0.037 A 
ATOM     21  C   UNL d   1      30.025 -14.694  -6.894  0.00  0.00     0.003 A 
ATOM     22  C   UNL d   1      30.877 -15.361  -6.019  0.00  0.00     0.000 A 
ATOM     23  C   UNL d   1      30.354 -15.949  -4.868  0.00  0.00     0.003 A 
ATOM     24  C   UNL d   1      28.978 -15.885  -4.598  0.00  0.00     0.037 A 
ENDBRANCH  18  19
ENDBRANCH  17  18
ENDBRANCH  16  17
ENDBRANCH   4  16
TORSDOF 8
ENDMDL
MODEL 5
REMARK VINA RESULT:    -6.844      1.434      1.951
REMARK INTER + INTRA:         -11.211
REMARK INTER:                  -9.231
REMARK INTRA:                  -1.980
REMARK CONF_INDEPENDENT:        2.386
REMARK UNBOUND:                -1.980
REMARK  8 active torsions:
REMARK  status: ('A' for Active; 'I' for Inactive)
REMARK    1  A    between atoms: C_2  and  C_4 
REMARK    2  A    between atoms: C_4  and  C_5 
REMARK    3  A    between atoms: C_5  and  C_6 
REMARK       I    between atoms: C_6  and  N_8 
REMARK    4  A    between atoms: N_8  and  N_9 
REMARK       I    between atoms: N_9  and  C_10 
REMARK       I    between atoms: C_10  and  N_12 
REMARK    5  A    between atoms: N_12  and  C_13 
REMARK    6  A    between atoms: C_13  and  C_14 
REMARK    7  A    between atoms: C_14  and  O_15 
REMARK    8  A    between atoms: O_15  and  C_16 
ROOT
ATOM      1  N   UNL d   1      23.500 -17.697  -1.119  0.00  0.00    -0.249 N 
ATOM      2  C   UNL d   1      24.826 -17.436  -0.811  0.00  0.00     0.334 C 
ATOM      3  O   UNL d   1      25.409 -18.008   0.113  0.00  0.00    -0.246 OA
ATOM      4  N   UNL d   1      25.433 -16.489  -1.616  0.00  0.00    -0.340 N 
ATOM      5  H   UNL d   1      22.986 -17.250  -1.873  0.00  0.00     0.192 HD
ATOM      6  H   UNL d   1      24.901 -16.059  -2.357  0.00  0.00     0.164 HD
ENDROOT
BRANCH   1   7
ATOM      7  N   UNL d   1      22.762 -18.655  -0.349  0.00  0.00    -0.266 N 
ATOM      8  C   UNL d   1      21.383 -18.730  -0.493  0.00  0.00     0.236 C 
ATOM      9  O   UNL d   1      20.771 -17.992  -1.267  0.00  0.00    -0.272 OA
ATOM     10  H   UNL d   1      23.309 -19.253   0.268  0.00  0.00     0.190 HD
BRANCH   8  11
ATOM     11  C   UNL d   1      20.684 -19.796   0.362  0.00  0.00     0.105 C 
BRANCH  11  12
ATOM     12  C   UNL d   1      19.165 -19.872   0.093  0.00  0.00     0.013 C 
BRANCH  12  13
ATOM     13  C   UNL d   1      18.327 -20.405   1.277  0.00  0.00    -0.022 C 
ATOM     14  C   UNL d   1      17.809 -21.819   0.978  0.00  0.00     0.009 C 
ATOM     15  C   UNL d   1      19.139 -20.438   2.571  0.00  0.00     0.009 C 
ENDBRANCH  12  13
ENDBRANCH  11  12
ENDBRANCH   8  11
ENDBRANCH   1   7
BRANCH   4  16
ATOM     16  C   UNL d   1      26.844 -16.098  -1.432  0.00  0.00     0.151 C 
BRANCH  16  17
ATOM     17  C   UNL d   1      27.606 -15.748  -2.733  0.00  0.00     0.195 C 
BRANCH  17  18
ATOM     18  O   UNL d   1      26.678 -15.572  -3.817  0.00  0.00    -0.350 OA
BRANCH  18  19
ATOM     19  C   UNL d   1      26.414 -14.292  -4.243  0.00  0.00     0.068 A 
ATOM     20  C   UNL d   1      27.128 -13.868  -5.370  0.00  0.00     0.037 A 
ATOM     21  C   UNL d   1      27.087 -12.532  -5.789  0.00  0.00     0.003 A 
ATOM     22  C   UNL d   1      26.274 -11.620  -5.125  0.00  0.00     0.000 A 
ATOM     23  C   UNL d   1      25.524 -12.041  -4.027  0.00  0.00     0.003 A 
ATOM     24  C   UNL d   1      25.598 -13.371  -3.584  0.00  0.00     0.037 A 
ENDBRANCH  18  19
ENDBRANCH  17  18
ENDBRANCH  16  17
ENDBRANCH   4  16
TORSDOF 8
ENDMDL
MODEL 6
REMARK VINA RESULT:    -6.608      2.263      8.784
REMARK INTER + INTRA:         -10.581
REMARK INTER:                  -8.994
REMARK INTRA:                  -1.586
REMARK CONF_INDEPENDENT:        2.386
REMARK UNBOUND:                -1.586
REMARK  8 active torsions:
REMARK  status: ('A' for Active; 'I' for Inactive)
REMARK    1  A    between atoms: C_2  and  C_4 
REMARK    2  A    between atoms: C_4  and  C_5 
REMARK    3  A    between atoms: C_5  and  C_6 
REMARK       I    between atoms: C_6  and  N_8 
REMARK    4  A    between atoms: N_8  and  N_9 
REMARK       I    between atoms: N_9  and  C_10 
REMARK       I    between atoms: C_10  and  N_12 
REMARK    5  A    between atoms: N_12  and  C_13 
REMARK    6  A    between atoms: C_13  and  C_14 
REMARK    7  A    between atoms: C_14  and  O_15 
REMARK    8  A    between atoms: O_15  and  C_16 
ROOT
ATOM      1  N   UNL d   1      24.776 -15.498  -2.445  0.00  0.00    -0.249 N 
ATOM      2  C   UNL d   1      24.984 -16.595  -1.625  0.00  0.00     0.334 C 
ATOM      3  O   UNL d   1      26.081 -17.152  -1.542  0.00  0.00    -0.246 OA
ATOM      4  N   UNL d   1      23.871 -17.011  -0.917  0.00  0.00    -0.340 N 
ATOM      5  H   UNL d   1      23.889 -15.010  -2.538  0.00  0.00     0.192 HD
ATOM      6  H   UNL d   1      23.002 -16.510  -1.027  0.00  0.00     0.164 HD
ENDROOT
BRANCH   1   7
ATOM      7  N   UNL d   1      25.854 -14.979  -3.234  0.00  0.00    -0.266 N 
ATOM      8  C   UNL d   1      25.573 -14.159  -4.319  0.00  0.00     0.236 C 
ATOM      9  O   UNL d   1      24.417 -13.863  -4.625  0.00  0.00    -0.272 OA
ATOM     10  H   UNL d   1      26.793 -15.239  -2.938  0.00  0.00     0.190 HD
BRANCH   8  11
ATOM     11  C   UNL d   1      26.794 -13.642  -5.093  0.00  0.00     0.105 C 
BRANCH  11  12
ATOM     12  C   UNL d   1      27.579 -14.776  -5.789  0.00  0.00     0.013 C 
BRANCH  12  13
ATOM     13  C   UNL d   1      29.019 -14.977  -5.265  0.00  0.00    -0.022 C 
ATOM     14  C   UNL d   1      29.035 -15.976  -4.100  0.00  0.00     0.009 C 
ATOM     15  C   UNL d   1      29.952 -15.482  -6.365  0.00  0.00     0.009 C 
ENDBRANCH  12  13
ENDBRANCH  11  12
ENDBRANCH   8  11
ENDBRANCH   1   7
BRANCH   4  16
ATOM     16  C   UNL d   1      23.919 -18.159   0.009  0.00  0.00     0.151 C 
BRANCH  16  17
ATOM     17  C   UNL d   1      22.767 -19.180  -0.147  0.00  0.00     0.195 C 
BRANCH  17  18
ATOM     18  O   UNL d   1      21.513 -18.568   0.197  0.00  0.00    -0.350 OA
BRANCH  18  19
ATOM     19  C   UNL d   1      20.477 -19.384   0.583  0.00  0.00     0.068 A 
ATOM     20  C   UNL d   1      19.603 -19.779  -0.438  0.00  0.00     0.037 A 
ATOM     21  C   UNL d   1      18.411 -20.454  -0.145  0.00  0.00     0.003 A 
ATOM     22  C   UNL d   1      18.114 -20.802   1.169  0.00  0.00     0.000 A 
ATOM     23  C   UNL d   1      18.998 -20.451   2.188  0.00  0.00     0.003 A 
ATOM     24  C   UNL d   1      20.172 -19.740   1.898  0.00  0.00     0.037 A 
ENDBRANCH  18  19
ENDBRANCH  17  18
ENDBRANCH  16  17
ENDBRANCH   4  16
TORSDOF 8
ENDMDL
MODEL 7
REMARK VINA RESULT:    -6.294      5.234      8.611
REMARK INTER + INTRA:         -10.453
REMARK INTER:                  -8.681
REMARK INTRA:                  -1.772
REMARK CONF_INDEPENDENT:        2.386
REMARK UNBOUND:                -1.772
REMARK  8 active torsions:
REMARK  status: ('A' for Active; 'I' for Inactive)
REMARK    1  A    between atoms: C_2  and  C_4 
REMARK    2  A    between atoms: C_4  and  C_5 
REMARK    3  A    between atoms: C_5  and  C_6 
REMARK       I    between atoms: C_6  and  N_8 
REMARK    4  A    between atoms: N_8  and  N_9 
REMARK       I    between atoms: N_9  and  C_10 
REMARK       I    between atoms: C_10  and  N_12 
REMARK    5  A    between atoms: N_12  and  C_13 
REMARK    6  A    between atoms: C_13  and  C_14 
REMARK    7  A    between atoms: C_14  and  O_15 
REMARK    8  A    between atoms: O_15  and  C_16 
ROOT
ATOM      1  N   UNL d   1      28.108 -14.802   3.122  0.00  0.00    -0.249 N 
ATOM      2  C   UNL d   1      27.803 -14.558   1.792  0.00  0.00     0.334 C 
ATOM      3  O   UNL d   1      27.327 -13.485   1.415  0.00  0.00    -0.246 OA
ATOM      4  N   UNL d   1      28.073 -15.608   0.933  0.00  0.00    -0.340 N 
ATOM      5  H   UNL d   1      28.504 -15.670   3.471  0.00  0.00     0.192 HD
ATOM      6  H   UNL d   1      28.465 -16.460   1.305  0.00  0.00     0.164 HD
ENDROOT
BRANCH   1   7
ATOM      7  N   UNL d   1      27.866 -13.790   4.108  0.00  0.00    -0.266 N 
ATOM      8  C   UNL d   1      28.099 -14.073   5.448  0.00  0.00     0.236 C 
ATOM      9  O   UNL d   1      28.509 -15.176   5.815  0.00  0.00    -0.272 OA
ATOM     10  H   UNL d   1      27.539 -12.891   3.759  0.00  0.00     0.190 HD
BRANCH   8  11
ATOM     11  C   UNL d   1      27.824 -12.923   6.426  0.00  0.00     0.105 C 
BRANCH  11  12
ATOM     12  C   UNL d   1      28.928 -12.777   7.497  0.00  0.00     0.013 C 
BRANCH  12  13
ATOM     13  C   UNL d   1      28.693 -13.604   8.780  0.00  0.00    -0.022 C 
ATOM     14  C   UNL d   1      29.998 -14.268   9.240  0.00  0.00     0.009 C 
ATOM     15  C   UNL d   1      28.149 -12.739   9.916  0.00  0.00     0.009 C 
ENDBRANCH  12  13
ENDBRANCH  11  12
ENDBRANCH   8  11
ENDBRANCH   1   7
BRANCH   4  16
ATOM     16  C   UNL d   1      27.817 -15.514  -0.517  0.00  0.00     0.151 C 
BRANCH  16  17
ATOM     17  C   UNL d   1      27.131 -16.751  -1.146  0.00  0.00     0.195 C 
BRANCH  17  18
ATOM     18  O   UNL d   1      26.394 -17.471  -0.144  0.00  0.00    -0.350 OA
BRANCH  18  19
ATOM     19  C   UNL d   1      25.023 -17.482  -0.229  0.00  0.00     0.068 A 
ATOM     20  C   UNL d   1      24.420 -18.744  -0.152  0.00  0.00     0.037 A 
ATOM     21  C   UNL d   1      23.053 -18.906  -0.410  0.00  0.00     0.003 A 
ATOM     22  C   UNL d   1      22.260 -17.796  -0.681  0.00  0.00     0.000 A 
ATOM     23  C   UNL d   1      22.841 -16.530  -0.719  0.00  0.00     0.003 A 
ATOM     24  C   UNL d   1      24.219 -16.373  -0.500  0.00  0.00     0.037 A 
ENDBRANCH  18  19
ENDBRANCH  17  18
ENDBRANCH  16  17
ENDBRANCH   4  16
TORSDOF 8
ENDMDL
MODEL 8
REMARK VINA RESULT:    -6.134      2.078      2.499
REMARK INTER + INTRA:         -10.510
REMARK INTER:                  -8.520
REMARK INTRA:                  -1.990
REMARK CONF_INDEPENDENT:        2.386
REMARK UNBOUND:                -1.990
REMARK  8 active torsions:
REMARK  status: ('A' for Active; 'I' for Inactive)
REMARK    1  A    between atoms: C_2  and  C_4 
REMARK    2  A    between atoms: C_4  and  C_5 
REMARK    3  A    between atoms: C_5  and  C_6 
REMARK       I    between atoms: C_6  and  N_8 
REMARK    4  A    between atoms: N_8  and  N_9 
REMARK       I    between atoms: N_9  and  C_10 
REMARK       I    between atoms: C_10  and  N_12 
REMARK    5  A    between atoms: N_12  and  C_13 
REMARK    6  A    between atoms: C_13  and  C_14 
REMARK    7  A    between atoms: C_14  and  O_15 
REMARK    8  A    between atoms: O_15  and  C_16 
ROOT
ATOM      1  N   UNL d   1      24.258 -18.097  -0.581  0.00  0.00    -0.249 N 
ATOM      2  C   UNL d   1      25.536 -17.990  -0.054  0.00  0.00     0.334 C 
ATOM      3  O   UNL d   1      25.787 -18.276   1.119  0.00  0.00    -0.246 OA
ATOM      4  N   UNL d   1      26.495 -17.539  -0.943  0.00  0.00    -0.340 N 
ATOM      5  H   UNL d   1      24.012 -17.876  -1.541  0.00  0.00     0.192 HD
ATOM      6  H   UNL d   1      26.224 -17.324  -1.891  0.00  0.00     0.164 HD
ENDROOT
BRANCH   1   7
ATOM      7  N   UNL d   1      23.179 -18.548   0.247  0.00  0.00    -0.266 N 
ATOM      8  C   UNL d   1      21.992 -18.963  -0.344  0.00  0.00     0.236 C 
ATOM      9  O   UNL d   1      21.839 -18.953  -1.566  0.00  0.00    -0.272 OA
ATOM     10  H   UNL d   1      23.353 -18.551   1.251  0.00  0.00     0.190 HD
BRANCH   8  11
ATOM     11  C   UNL d   1      20.901 -19.441   0.625  0.00  0.00     0.105 C 
BRANCH  11  12
ATOM     12  C   UNL d   1      19.586 -19.810  -0.097  0.00  0.00     0.013 C 
BRANCH  12  13
ATOM     13  C   UNL d   1      18.751 -20.903   0.606  0.00  0.00    -0.022 C 
ATOM     14  C   UNL d   1      18.402 -20.477   2.040  0.00  0.00     0.009 C 
ATOM     15  C   UNL d   1      17.457 -21.197  -0.152  0.00  0.00     0.009 C 
ENDBRANCH  12  13
ENDBRANCH  11  12
ENDBRANCH   8  11
ENDBRANCH   1   7
BRANCH   4  16
ATOM     16  C   UNL d   1      27.907 -17.375  -0.551  0.00  0.00     0.151 C 
BRANCH  16  17
ATOM     17  C   UNL d   1      28.787 -16.604  -1.564  0.00  0.00     0.195 C 
BRANCH  17  18
ATOM     18  O   UNL d   1      27.992 -16.165  -2.677  0.00  0.00    -0.350 OA
BRANCH  18  19
ATOM     19  C   UNL d   1      28.633 -15.864  -3.854  0.00  0.00     0.068 A 
ATOM     20  C   UNL d   1      27.890 -15.115  -4.776  0.00  0.00     0.037 A 
ATOM     21  C   UNL d   1      28.360 -14.904  -6.078  0.00  0.00     0.003 A 
ATOM     22  C   UNL d   1      29.612 -15.382  -6.452  0.00  0.00     0.000 A 
ATOM     23  C   UNL d   1      30.379 -16.092  -5.529  0.00  0.00     0.003 A 
ATOM     24  C   UNL d   1      29.889 -16.338  -4.237  0.00  0.00     0.037 A 
ENDBRANCH  18  19
ENDBRANCH  17  18
ENDBRANCH  16  17
ENDBRANCH   4  16
TORSDOF 8
ENDMDL
MODEL 9
REMARK VINA RESULT:    -6.134      3.307      4.537
REMARK INTER + INTRA:         -10.555
REMARK INTER:                  -8.520
REMARK INTRA:                  -2.035
REMARK CONF_INDEPENDENT:        2.386
REMARK UNBOUND:                -2.035
REMARK  8 active torsions:
REMARK  status: ('A' for Active; 'I' for Inactive)
REMARK    1  A    between atoms: C_2  and  C_4 
REMARK    2  A    between atoms: C_4  and  C_5 
REMARK    3  A    between atoms: C_5  and  C_6 
REMARK       I    between atoms: C_6  and  N_8 
REMARK    4  A    between atoms: N_8  and  N_9 
REMARK       I    between atoms: N_9  and  C_10 
REMARK       I    between atoms: C_10  and  N_12 
REMARK    5  A    between atoms: N_12  and  C_13 
REMARK    6  A    between atoms: C_13  and  C_14 
REMARK    7  A    between atoms: C_14  and  O_15 
REMARK    8  A    between atoms: O_15  and  C_16 
ROOT
ATOM      1  N   UNL d   1      24.960 -16.675  -2.066  0.00  0.00    -0.249 N 
ATOM      2  C   UNL d   1      25.039 -15.485  -2.771  0.00  0.00     0.334 C 
ATOM      3  O   UNL d   1      24.134 -14.648  -2.746  0.00  0.00    -0.246 OA
ATOM      4  N   UNL d   1      26.203 -15.317  -3.499  0.00  0.00    -0.340 N 
ATOM      5  H   UNL d   1      25.685 -17.388  -2.058  0.00  0.00     0.192 HD
ATOM      6  H   UNL d   1      26.907 -16.040  -3.475  0.00  0.00     0.164 HD
ENDROOT
BRANCH   1   7
ATOM      7  N   UNL d   1      23.798 -16.965  -1.280  0.00  0.00    -0.266 N 
ATOM      8  C   UNL d   1      23.756 -18.132  -0.527  0.00  0.00     0.236 C 
ATOM      9  O   UNL d   1      24.695 -18.930  -0.517  0.00  0.00    -0.272 OA
ATOM     10  H   UNL d   1      23.051 -16.273  -1.309  0.00  0.00     0.190 HD
BRANCH   8  11
ATOM     11  C   UNL d   1      22.476 -18.347   0.292  0.00  0.00     0.105 C 
BRANCH  11  12
ATOM     12  C   UNL d   1      21.295 -18.844  -0.571  0.00  0.00     0.013 C 
BRANCH  12  13
ATOM     13  C   UNL d   1      20.414 -19.920   0.101  0.00  0.00    -0.022 C 
ATOM     14  C   UNL d   1      20.278 -19.644   1.605  0.00  0.00     0.009 C 
ATOM     15  C   UNL d   1      19.019 -19.974  -0.521  0.00  0.00     0.009 C 
ENDBRANCH  12  13
ENDBRANCH  11  12
ENDBRANCH   8  11
ENDBRANCH   1   7
BRANCH   4  16
ATOM     16  C   UNL d   1      26.454 -14.103  -4.300  0.00  0.00     0.151 C 
BRANCH  16  17
ATOM     17  C   UNL d   1      27.458 -14.278  -5.465  0.00  0.00     0.195 C 
BRANCH  17  18
ATOM     18  O   UNL d   1      28.076 -15.574  -5.394  0.00  0.00    -0.350 OA
BRANCH  18  19
ATOM     19  C   UNL d   1      29.304 -15.740  -5.987  0.00  0.00     0.068 A 
ATOM     20  C   UNL d   1      30.026 -16.871  -5.583  0.00  0.00     0.037 A 
ATOM     21  C   UNL d   1      31.359 -17.053  -5.971  0.00  0.00     0.003 A 
ATOM     22  C   UNL d   1      31.965 -16.138  -6.826  0.00  0.00     0.000 A 
ATOM     23  C   UNL d   1      31.242 -15.030  -7.269  0.00  0.00     0.003 A 
ATOM     24  C   UNL d   1      29.919 -14.829  -6.847  0.00  0.00     0.037 A 
ENDBRANCH  18  19
ENDBRANCH  17  18
ENDBRANCH  16  17
ENDBRANCH   4  16
TORSDOF 8
ENDMDL
