MODEL 1
REMARK VINA RESULT:   -29.822      0.000      0.000
REMARK INTER + INTRA:         -32.433
REMARK INTER:                 -31.611
REMARK INTRA:                  -0.821
REMARK CONF_INDEPENDENT:        1.790
REMARK UNBOUND:                -0.821
REMARK  6 active torsions:
REMARK  status: ('A' for Active; 'I' for Inactive)
REMARK    1  A    between atoms: C_2  and  C_3 
REMARK       I    between atoms: C_3  and  N_5 
REMARK    2  A    between atoms: N_5  and  C_6 
REMARK    3  A    between atoms: C_9  and  N_10 
REMARK       I    between atoms: N_10  and  C_11 
REMARK    4  A    between atoms: C_11  and  C_13 
REMARK    5  A    between atoms: C_16  and  C_17 
REMARK    6  A    between atoms: N_18  and  O_19 
ROOT
ATOM      1  N   UNL d   1      26.696 -16.770   0.280  0.00  0.00    -0.323 N 
ATOM      2  C   UNL d   1      25.706 -16.503  -0.662  0.00  0.00     0.256 C 
ATOM      3  O   UNL d   1      25.797 -15.747  -1.635  0.00  0.00    -0.267 OA
ATOM      4  H   UNL d   1      26.481 -17.408   1.036  0.00  0.00     0.169 HD
ENDROOT
BRANCH   1   5
ATOM      5  C   UNL d   1      28.000 -16.185   0.275  0.00  0.00     0.035 A 
ATOM      6  C   UNL d   1      29.060 -16.794  -0.416  0.00  0.00     0.032 A 
ATOM      7  C   UNL d   1      30.382 -16.287  -0.316  0.00  0.00     0.032 A 
ATOM      8  C   UNL d   1      30.648 -15.154   0.457  0.00  0.00     0.034 A 
ATOM      9  C   UNL d   1      29.585 -14.514   1.080  0.00  0.00     0.032 A 
ATOM     10  C   UNL d   1      28.287 -15.014   0.977  0.00  0.00     0.032 A 
BRANCH   8  11
ATOM     11  N   UNL d   1      31.963 -14.648   0.608  0.00  0.00    -0.327 N 
ATOM     12  C   UNL d   1      32.884 -15.283   1.435  0.00  0.00     0.221 C 
ATOM     13  O   UNL d   1      32.644 -16.311   2.067  0.00  0.00    -0.273 OA
ATOM     14  H   UNL d   1      32.291 -13.964  -0.061  0.00  0.00     0.169 HD
BRANCH  12  15
ATOM     15  C   UNL d   1      34.267 -14.651   1.476  0.00  0.00     0.098 C 
ATOM     16  C   UNL d   1      34.685 -14.411   2.926  0.00  0.00     0.014 C 
ENDBRANCH  12  15
ENDBRANCH   8  11
ENDBRANCH   1   5
BRANCH   2  17
ATOM     17  C   UNL d   1      24.399 -17.193  -0.553  0.00  0.00     0.032 A 
ATOM     18  C   UNL d   1      24.420 -18.572  -0.269  0.00  0.00     0.018 A 
ATOM     19  C   UNL d   1      23.244 -19.333  -0.293  0.00  0.00     0.014 A 
ATOM     20  C   UNL d   1      22.025 -18.702  -0.547  0.00  0.00    -0.017 A 
ATOM     21  C   UNL d   1      22.007 -17.338  -0.875  0.00  0.00     0.014 A 
ATOM     22  C   UNL d   1      23.191 -16.582  -0.888  0.00  0.00     0.018 A 
BRANCH  20  23
ATOM     23  C   UNL d   1      20.749 -19.450  -0.401  0.00  0.00     0.157 C 
ATOM     24  N   UNL d   1      19.792 -19.325  -1.270  0.00  0.00    -0.146 NA
BRANCH  24  25
ATOM     25  O   UNL d   1      18.676 -20.081  -0.871  0.00  0.00    -0.262 OA
ATOM     26  C   UNL d   1      18.924 -20.600   0.437  0.00  0.00     0.240 C 
ENDBRANCH  24  25
ENDBRANCH  20  23
ENDBRANCH   2  17
TORSDOF 6
ENDMDL
MODEL 2
REMARK VINA RESULT:   -29.683      0.568      1.135
REMARK INTER + INTRA:         -32.286
REMARK INTER:                 -31.473
REMARK INTRA:                  -0.814
REMARK CONF_INDEPENDENT:        1.790
REMARK UNBOUND:                -0.814
REMARK  6 active torsions:
REMARK  status: ('A' for Active; 'I' for Inactive)
REMARK    1  A    between atoms: C_2  and  C_3 
REMARK       I    between atoms: C_3  and  N_5 
REMARK    2  A    between atoms: N_5  and  C_6 
REMARK    3  A    between atoms: C_9  and  N_10 
REMARK       I    between atoms: N_10  and  C_11 
REMARK    4  A    between atoms: C_11  and  C_13 
REMARK    5  A    between atoms: C_16  and  C_17 
REMARK    6  A    between atoms: N_18  and  O_19 
ROOT
ATOM      1  N   UNL d   1      27.052 -16.841   0.092  0.00  0.00    -0.323 N 
ATOM      2  C   UNL d   1      25.890 -16.260  -0.408  0.00  0.00     0.256 C 
ATOM      3  O   UNL d   1      25.753 -15.093  -0.789  0.00  0.00    -0.267 OA
ATOM      4  H   UNL d   1      27.020 -17.812   0.378  0.00  0.00     0.169 HD
ENDROOT
BRANCH   1   5
ATOM      5  C   UNL d   1      28.295 -16.156   0.260  0.00  0.00     0.035 A 
ATOM      6  C   UNL d   1      29.477 -16.656  -0.312  0.00  0.00     0.032 A 
ATOM      7  C   UNL d   1      30.731 -16.050  -0.040  0.00  0.00     0.032 A 
ATOM      8  C   UNL d   1      30.810 -14.927   0.787  0.00  0.00     0.034 A 
ATOM      9  C   UNL d   1      29.631 -14.394   1.293  0.00  0.00     0.032 A 
ATOM     10  C   UNL d   1      28.400 -14.991   1.021  0.00  0.00     0.032 A 
BRANCH   8  11
ATOM     11  N   UNL d   1      32.050 -14.324   1.109  0.00  0.00    -0.327 N 
ATOM     12  C   UNL d   1      32.868 -14.854   2.104  0.00  0.00     0.221 C 
ATOM     13  O   UNL d   1      32.594 -15.865   2.750  0.00  0.00    -0.273 OA
ATOM     14  H   UNL d   1      32.438 -13.652   0.461  0.00  0.00     0.169 HD
BRANCH  12  15
ATOM     15  C   UNL d   1      34.185 -14.127   2.320  0.00  0.00     0.098 C 
ATOM     16  C   UNL d   1      35.336 -15.132   2.337  0.00  0.00     0.014 C 
ENDBRANCH  12  15
ENDBRANCH   8  11
ENDBRANCH   1   5
BRANCH   2  17
ATOM     17  C   UNL d   1      24.670 -17.089  -0.549  0.00  0.00     0.032 A 
ATOM     18  C   UNL d   1      23.434 -16.416  -0.585  0.00  0.00     0.018 A 
ATOM     19  C   UNL d   1      22.224 -17.123  -0.568  0.00  0.00     0.014 A 
ATOM     20  C   UNL d   1      22.247 -18.519  -0.574  0.00  0.00    -0.017 A 
ATOM     21  C   UNL d   1      23.476 -19.191  -0.493  0.00  0.00     0.014 A 
ATOM     22  C   UNL d   1      24.688 -18.482  -0.471  0.00  0.00     0.018 A 
BRANCH  20  23
ATOM     23  C   UNL d   1      20.987 -19.289  -0.738  0.00  0.00     0.157 C 
ATOM     24  N   UNL d   1      19.847 -18.689  -0.895  0.00  0.00    -0.146 NA
BRANCH  24  25
ATOM     25  O   UNL d   1      18.808 -19.634  -0.961  0.00  0.00    -0.262 OA
ATOM     26  C   UNL d   1      18.860 -20.448   0.212  0.00  0.00     0.240 C 
ENDBRANCH  24  25
ENDBRANCH  20  23
ENDBRANCH   2  17
TORSDOF 6
ENDMDL
MODEL 3
REMARK VINA RESULT:   -29.602      1.369      1.383
REMARK INTER + INTRA:         -32.226
REMARK INTER:                 -31.392
REMARK INTRA:                  -0.834
REMARK CONF_INDEPENDENT:        1.790
REMARK UNBOUND:                -0.834
REMARK  6 active torsions:
REMARK  status: ('A' for Active; 'I' for Inactive)
REMARK    1  A    between atoms: C_2  and  C_3 
REMARK       I    between atoms: C_3  and  N_5 
REMARK    2  A    between atoms: N_5  and  C_6 
REMARK    3  A    between atoms: C_9  and  N_10 
REMARK       I    between atoms: N_10  and  C_11 
REMARK    4  A    between atoms: C_11  and  C_13 
REMARK    5  A    between atoms: C_16  and  C_17 
REMARK    6  A    between atoms: N_18  and  O_19 
ROOT
ATOM      1  N   UNL d   1      26.908 -16.979  -0.055  0.00  0.00    -0.323 N 
ATOM      2  C   UNL d   1      25.792 -16.468  -0.713  0.00  0.00     0.256 C 
ATOM      3  O   UNL d   1      25.760 -15.477  -1.450  0.00  0.00    -0.267 OA
ATOM      4  H   UNL d   1      26.789 -17.799   0.528  0.00  0.00     0.169 HD
ENDROOT
BRANCH   1   5
ATOM      5  C   UNL d   1      28.219 -16.414  -0.120  0.00  0.00     0.035 A 
ATOM      6  C   UNL d   1      29.228 -17.019  -0.888  0.00  0.00     0.032 A 
ATOM      7  C   UNL d   1      30.560 -16.534  -0.851  0.00  0.00     0.032 A 
ATOM      8  C   UNL d   1      30.889 -15.427  -0.066  0.00  0.00     0.034 A 
ATOM      9  C   UNL d   1      29.874 -14.788   0.635  0.00  0.00     0.032 A 
ATOM     10  C   UNL d   1      28.565 -15.267   0.595  0.00  0.00     0.032 A 
BRANCH   8  11
ATOM     11  N   UNL d   1      32.218 -14.944   0.022  0.00  0.00    -0.327 N 
ATOM     12  C   UNL d   1      32.610 -13.797  -0.663  0.00  0.00     0.221 C 
ATOM     13  O   UNL d   1      31.854 -13.125  -1.364  0.00  0.00    -0.273 OA
ATOM     14  H   UNL d   1      32.810 -15.302   0.760  0.00  0.00     0.169 HD
BRANCH  12  15
ATOM     15  C   UNL d   1      34.055 -13.374  -0.451  0.00  0.00     0.098 C 
ATOM     16  C   UNL d   1      34.169 -12.537   0.822  0.00  0.00     0.014 C 
ENDBRANCH  12  15
ENDBRANCH   8  11
ENDBRANCH   1   5
BRANCH   2  17
ATOM     17  C   UNL d   1      24.490 -17.163  -0.577  0.00  0.00     0.032 A 
ATOM     18  C   UNL d   1      24.517 -18.569  -0.485  0.00  0.00     0.018 A 
ATOM     19  C   UNL d   1      23.332 -19.317  -0.502  0.00  0.00     0.014 A 
ATOM     20  C   UNL d   1      22.105 -18.654  -0.553  0.00  0.00    -0.017 A 
ATOM     21  C   UNL d   1      22.077 -17.258  -0.690  0.00  0.00     0.014 A 
ATOM     22  C   UNL d   1      23.266 -16.510  -0.711  0.00  0.00     0.018 A 
BRANCH  20  23
ATOM     23  C   UNL d   1      20.837 -19.411  -0.391  0.00  0.00     0.157 C 
ATOM     24  N   UNL d   1      19.884 -19.325  -1.269  0.00  0.00    -0.146 NA
BRANCH  24  25
ATOM     25  O   UNL d   1      18.774 -20.081  -0.854  0.00  0.00    -0.262 OA
ATOM     26  C   UNL d   1      18.945 -20.417   0.524  0.00  0.00     0.240 C 
ENDBRANCH  24  25
ENDBRANCH  20  23
ENDBRANCH   2  17
TORSDOF 6
ENDMDL
MODEL 4
REMARK VINA RESULT:   -29.595      4.170      5.031
REMARK INTER + INTRA:         -32.217
REMARK INTER:                 -31.385
REMARK INTRA:                  -0.832
REMARK CONF_INDEPENDENT:        1.790
REMARK UNBOUND:                -0.832
REMARK  6 active torsions:
REMARK  status: ('A' for Active; 'I' for Inactive)
REMARK    1  A    between atoms: C_2  and  C_3 
REMARK       I    between atoms: C_3  and  N_5 
REMARK    2  A    between atoms: N_5  and  C_6 
REMARK    3  A    between atoms: C_9  and  N_10 
REMARK       I    between atoms: N_10  and  C_11 
REMARK    4  A    between atoms: C_11  and  C_13 
REMARK    5  A    between atoms: C_16  and  C_17 
REMARK    6  A    between atoms: N_18  and  O_19 
ROOT
ATOM      1  N   UNL d   1      25.760 -16.012  -3.071  0.00  0.00    -0.323 N 
ATOM      2  C   UNL d   1      25.406 -15.988  -1.725  0.00  0.00     0.256 C 
ATOM      3  O   UNL d   1      25.971 -15.359  -0.824  0.00  0.00    -0.267 OA
ATOM      4  H   UNL d   1      25.210 -16.581  -3.703  0.00  0.00     0.169 HD
ENDROOT
BRANCH   1   5
ATOM      5  C   UNL d   1      26.870 -15.307  -3.632  0.00  0.00     0.035 A 
ATOM      6  C   UNL d   1      26.696 -14.439  -4.722  0.00  0.00     0.032 A 
ATOM      7  C   UNL d   1      27.812 -13.839  -5.361  0.00  0.00     0.032 A 
ATOM      8  C   UNL d   1      29.107 -14.085  -4.901  0.00  0.00     0.034 A 
ATOM      9  C   UNL d   1      29.269 -14.888  -3.778  0.00  0.00     0.032 A 
ATOM     10  C   UNL d   1      28.170 -15.473  -3.152  0.00  0.00     0.032 A 
BRANCH   8  11
ATOM     11  N   UNL d   1      30.243 -13.533  -5.542  0.00  0.00    -0.327 N 
ATOM     12  C   UNL d   1      30.836 -14.174  -6.626  0.00  0.00     0.221 C 
ATOM     13  O   UNL d   1      30.424 -15.228  -7.109  0.00  0.00    -0.273 OA
ATOM     14  H   UNL d   1      30.476 -12.567  -5.354  0.00  0.00     0.169 HD
BRANCH  12  15
ATOM     15  C   UNL d   1      32.027 -13.452  -7.238  0.00  0.00     0.098 C 
ATOM     16  C   UNL d   1      31.654 -12.917  -8.620  0.00  0.00     0.014 C 
ENDBRANCH  12  15
ENDBRANCH   8  11
ENDBRANCH   1   5
BRANCH   2  17
ATOM     17  C   UNL d   1      24.217 -16.751  -1.276  0.00  0.00     0.032 A 
ATOM     18  C   UNL d   1      24.377 -18.137  -1.082  0.00  0.00     0.018 A 
ATOM     19  C   UNL d   1      23.277 -18.959  -0.801  0.00  0.00     0.014 A 
ATOM     20  C   UNL d   1      22.013 -18.385  -0.657  0.00  0.00    -0.017 A 
ATOM     21  C   UNL d   1      21.844 -17.012  -0.895  0.00  0.00     0.014 A 
ATOM     22  C   UNL d   1      22.941 -16.194  -1.213  0.00  0.00     0.018 A 
BRANCH  20  23
ATOM     23  C   UNL d   1      20.867 -19.204  -0.184  0.00  0.00     0.157 C 
ATOM     24  N   UNL d   1      19.787 -19.325  -0.895  0.00  0.00    -0.146 NA
BRANCH  24  25
ATOM     25  O   UNL d   1      18.836 -20.093  -0.202  0.00  0.00    -0.262 OA
ATOM     26  C   UNL d   1      19.140 -20.041   1.193  0.00  0.00     0.240 C 
ENDBRANCH  24  25
ENDBRANCH  20  23
ENDBRANCH   2  17
TORSDOF 6
ENDMDL
MODEL 5
REMARK VINA RESULT:   -29.545      1.840      2.236
REMARK INTER + INTRA:         -32.157
REMARK INTER:                 -31.335
REMARK INTRA:                  -0.822
REMARK CONF_INDEPENDENT:        1.790
REMARK UNBOUND:                -0.822
REMARK  6 active torsions:
REMARK  status: ('A' for Active; 'I' for Inactive)
REMARK    1  A    between atoms: C_2  and  C_3 
REMARK       I    between atoms: C_3  and  N_5 
REMARK    2  A    between atoms: N_5  and  C_6 
REMARK    3  A    between atoms: C_9  and  N_10 
REMARK       I    between atoms: N_10  and  C_11 
REMARK    4  A    between atoms: C_11  and  C_13 
REMARK    5  A    between atoms: C_16  and  C_17 
REMARK    6  A    between atoms: N_18  and  O_19 
ROOT
ATOM      1  N   UNL d   1      26.950 -17.124  -0.109  0.00  0.00    -0.323 N 
ATOM      2  C   UNL d   1      25.818 -16.508  -0.635  0.00  0.00     0.256 C 
ATOM      3  O   UNL d   1      25.775 -15.426  -1.230  0.00  0.00    -0.267 OA
ATOM      4  H   UNL d   1      26.839 -18.013   0.364  0.00  0.00     0.169 HD
ENDROOT
BRANCH   1   5
ATOM      5  C   UNL d   1      28.270 -16.578  -0.162  0.00  0.00     0.035 A 
ATOM      6  C   UNL d   1      28.618 -15.457   0.609  0.00  0.00     0.032 A 
ATOM      7  C   UNL d   1      29.886 -14.836   0.461  0.00  0.00     0.032 A 
ATOM      8  C   UNL d   1      30.823 -15.346  -0.441  0.00  0.00     0.034 A 
ATOM      9  C   UNL d   1      30.501 -16.498  -1.148  0.00  0.00     0.032 A 
ATOM     10  C   UNL d   1      29.255 -17.106  -0.998  0.00  0.00     0.032 A 
BRANCH   8  11
ATOM     11  N   UNL d   1      32.081 -14.726  -0.639  0.00  0.00    -0.327 N 
ATOM     12  C   UNL d   1      32.449 -14.237  -1.889  0.00  0.00     0.221 C 
ATOM     13  O   UNL d   1      31.728 -14.288  -2.885  0.00  0.00    -0.273 OA
ATOM     14  H   UNL d   1      32.606 -14.438   0.176  0.00  0.00     0.169 HD
BRANCH  12  15
ATOM     15  C   UNL d   1      33.812 -13.565  -1.950  0.00  0.00     0.098 C 
ATOM     16  C   UNL d   1      33.684 -12.189  -2.603  0.00  0.00     0.014 C 
ENDBRANCH  12  15
ENDBRANCH   8  11
ENDBRANCH   1   5
BRANCH   2  17
ATOM     17  C   UNL d   1      24.508 -17.192  -0.530  0.00  0.00     0.032 A 
ATOM     18  C   UNL d   1      24.521 -18.567  -0.225  0.00  0.00     0.018 A 
ATOM     19  C   UNL d   1      23.342 -19.325  -0.250  0.00  0.00     0.014 A 
ATOM     20  C   UNL d   1      22.128 -18.693  -0.526  0.00  0.00    -0.017 A 
ATOM     21  C   UNL d   1      22.119 -17.334  -0.875  0.00  0.00     0.014 A 
ATOM     22  C   UNL d   1      23.305 -16.582  -0.887  0.00  0.00     0.018 A 
BRANCH  20  23
ATOM     23  C   UNL d   1      20.849 -19.434  -0.383  0.00  0.00     0.157 C 
ATOM     24  N   UNL d   1      19.905 -19.325  -1.268  0.00  0.00    -0.146 NA
BRANCH  24  25
ATOM     25  O   UNL d   1      18.781 -20.070  -0.869  0.00  0.00    -0.262 OA
ATOM     26  C   UNL d   1      19.055 -20.659   0.403  0.00  0.00     0.240 C 
ENDBRANCH  24  25
ENDBRANCH  20  23
ENDBRANCH   2  17
TORSDOF 6
ENDMDL
MODEL 6
REMARK VINA RESULT:   -29.173      2.521      2.829
REMARK INTER + INTRA:         -31.777
REMARK INTER:                 -30.963
REMARK INTRA:                  -0.814
REMARK CONF_INDEPENDENT:        1.790
REMARK UNBOUND:                -0.814
REMARK  6 active torsions:
REMARK  status: ('A' for Active; 'I' for Inactive)
REMARK    1  A    between atoms: C_2  and  C_3 
REMARK       I    between atoms: C_3  and  N_5 
REMARK    2  A    between atoms: N_5  and  C_6 
REMARK    3  A    between atoms: C_9  and  N_10 
REMARK       I    between atoms: N_10  and  C_11 
REMARK    4  A    between atoms: C_11  and  C_13 
REMARK    5  A    between atoms: C_16  and  C_17 
REMARK    6  A    between atoms: N_18  and  O_19 
ROOT
ATOM      1  N   UNL d   1      25.939 -15.214  -0.101  0.00  0.00    -0.323 N 
ATOM      2  C   UNL d   1      25.800 -16.487  -0.647  0.00  0.00     0.256 C 
ATOM      3  O   UNL d   1      26.679 -17.148  -1.210  0.00  0.00    -0.267 OA
ATOM      4  H   UNL d   1      25.128 -14.783   0.327  0.00  0.00     0.169 HD
ENDROOT
BRANCH   1   5
ATOM      5  C   UNL d   1      27.146 -14.449  -0.120  0.00  0.00     0.035 A 
ATOM      6  C   UNL d   1      28.032 -14.473   0.970  0.00  0.00     0.032 A 
ATOM      7  C   UNL d   1      29.163 -13.617   1.008  0.00  0.00     0.032 A 
ATOM      8  C   UNL d   1      29.429 -12.748  -0.053  0.00  0.00     0.034 A 
ATOM      9  C   UNL d   1      28.591 -12.780  -1.160  0.00  0.00     0.032 A 
ATOM     10  C   UNL d   1      27.481 -13.624  -1.194  0.00  0.00     0.032 A 
BRANCH   8  11
ATOM     11  N   UNL d   1      30.528 -11.855  -0.026  0.00  0.00    -0.327 N 
ATOM     12  C   UNL d   1      30.734 -11.005   1.057  0.00  0.00     0.221 C 
ATOM     13  O   UNL d   1      30.011 -10.975   2.052  0.00  0.00    -0.273 OA
ATOM     14  H   UNL d   1      31.280 -12.001  -0.686  0.00  0.00     0.169 HD
BRANCH  12  15
ATOM     15  C   UNL d   1      31.970 -10.124   0.968  0.00  0.00     0.098 C 
ATOM     16  C   UNL d   1      31.907  -9.266  -0.295  0.00  0.00     0.014 C 
ENDBRANCH  12  15
ENDBRANCH   8  11
ENDBRANCH   1   5
BRANCH   2  17
ATOM     17  C   UNL d   1      24.495 -17.181  -0.543  0.00  0.00     0.032 A 
ATOM     18  C   UNL d   1      24.520 -18.559  -0.256  0.00  0.00     0.018 A 
ATOM     19  C   UNL d   1      23.346 -19.325  -0.283  0.00  0.00     0.014 A 
ATOM     20  C   UNL d   1      22.126 -18.698  -0.544  0.00  0.00    -0.017 A 
ATOM     21  C   UNL d   1      22.105 -17.334  -0.875  0.00  0.00     0.014 A 
ATOM     22  C   UNL d   1      23.287 -16.574  -0.884  0.00  0.00     0.018 A 
BRANCH  20  23
ATOM     23  C   UNL d   1      20.852 -19.449  -0.402  0.00  0.00     0.157 C 
ATOM     24  N   UNL d   1      19.894 -19.320  -1.270  0.00  0.00    -0.146 NA
BRANCH  24  25
ATOM     25  O   UNL d   1      18.780 -20.081  -0.876  0.00  0.00    -0.262 OA
ATOM     26  C   UNL d   1      18.944 -20.450   0.495  0.00  0.00     0.240 C 
ENDBRANCH  24  25
ENDBRANCH  20  23
ENDBRANCH   2  17
TORSDOF 6
ENDMDL
MODEL 7
REMARK VINA RESULT:   -29.163      3.134      3.379
REMARK INTER + INTRA:         -31.776
REMARK INTER:                 -30.953
REMARK INTRA:                  -0.824
REMARK CONF_INDEPENDENT:        1.790
REMARK UNBOUND:                -0.824
REMARK  6 active torsions:
REMARK  status: ('A' for Active; 'I' for Inactive)
REMARK    1  A    between atoms: C_2  and  C_3 
REMARK       I    between atoms: C_3  and  N_5 
REMARK    2  A    between atoms: N_5  and  C_6 
REMARK    3  A    between atoms: C_9  and  N_10 
REMARK       I    between atoms: N_10  and  C_11 
REMARK    4  A    between atoms: C_11  and  C_13 
REMARK    5  A    between atoms: C_16  and  C_17 
REMARK    6  A    between atoms: N_18  and  O_19 
ROOT
ATOM      1  N   UNL d   1      25.969 -15.776  -2.039  0.00  0.00    -0.323 N 
ATOM      2  C   UNL d   1      25.712 -16.469  -0.859  0.00  0.00     0.256 C 
ATOM      3  O   UNL d   1      26.455 -16.555   0.124  0.00  0.00    -0.267 OA
ATOM      4  H   UNL d   1      25.270 -15.796  -2.772  0.00  0.00     0.169 HD
ENDROOT
BRANCH   1   5
ATOM      5  C   UNL d   1      27.170 -15.049  -2.308  0.00  0.00     0.035 A 
ATOM      6  C   UNL d   1      27.594 -14.016  -1.456  0.00  0.00     0.032 A 
ATOM      7  C   UNL d   1      28.712 -13.210  -1.790  0.00  0.00     0.032 A 
ATOM      8  C   UNL d   1      29.429 -13.445  -2.965  0.00  0.00     0.034 A 
ATOM      9  C   UNL d   1      29.050 -14.513  -3.768  0.00  0.00     0.032 A 
ATOM     10  C   UNL d   1      27.951 -15.304  -3.436  0.00  0.00     0.032 A 
BRANCH   8  11
ATOM     11  N   UNL d   1      30.525 -12.632  -3.345  0.00  0.00    -0.327 N 
ATOM     12  C   UNL d   1      31.791 -13.180  -3.534  0.00  0.00     0.221 C 
ATOM     13  O   UNL d   1      32.047 -14.377  -3.406  0.00  0.00    -0.273 OA
ATOM     14  H   UNL d   1      30.334 -11.704  -3.698  0.00  0.00     0.169 HD
BRANCH  12  15
ATOM     15  C   UNL d   1      32.867 -12.199  -3.973  0.00  0.00     0.098 C 
ATOM     16  C   UNL d   1      33.197 -11.243  -2.828  0.00  0.00     0.014 C 
ENDBRANCH  12  15
ENDBRANCH   8  11
ENDBRANCH   1   5
BRANCH   2  17
ATOM     17  C   UNL d   1      24.414 -17.168  -0.699  0.00  0.00     0.032 A 
ATOM     18  C   UNL d   1      24.453 -18.564  -0.516  0.00  0.00     0.018 A 
ATOM     19  C   UNL d   1      23.275 -19.324  -0.504  0.00  0.00     0.014 A 
ATOM     20  C   UNL d   1      22.042 -18.678  -0.618  0.00  0.00    -0.017 A 
ATOM     21  C   UNL d   1      22.004 -17.294  -0.846  0.00  0.00     0.014 A 
ATOM     22  C   UNL d   1      23.186 -16.537  -0.896  0.00  0.00     0.018 A 
BRANCH  20  23
ATOM     23  C   UNL d   1      20.779 -19.436  -0.428  0.00  0.00     0.157 C 
ATOM     24  N   UNL d   1      19.793 -19.323  -1.265  0.00  0.00    -0.146 NA
BRANCH  24  25
ATOM     25  O   UNL d   1      18.697 -20.088  -0.828  0.00  0.00    -0.262 OA
ATOM     26  C   UNL d   1      18.961 -20.537   0.503  0.00  0.00     0.240 C 
ENDBRANCH  24  25
ENDBRANCH  20  23
ENDBRANCH   2  17
TORSDOF 6
ENDMDL
