MODEL 1
REMARK VINA RESULT:    -9.275      0.000      0.000
REMARK INTER + INTRA:         -14.232
REMARK INTER:                 -11.662
REMARK INTRA:                  -2.570
REMARK CONF_INDEPENDENT:        2.386
REMARK UNBOUND:                -2.570
REMARK  8 active torsions:
REMARK  status: ('A' for Active; 'I' for Inactive)
REMARK    1  A    between atoms: C_2  and  N_3 
REMARK    2  A    between atoms: C_2  and  C_14 
REMARK       I    between atoms: N_3  and  C_4 
REMARK    3  A    between atoms: C_4  and  C_6 
REMARK    4  A    between atoms: C_7  and  C_8 
REMARK       I    between atoms: C_14  and  N_16 
REMARK    5  A    between atoms: N_16  and  N_17 
REMARK       I    between atoms: N_17  and  C_18 
REMARK    6  A    between atoms: C_18  and  C_20 
REMARK    7  A    between atoms: C_20  and  C_21 
REMARK    8  A    between atoms: C_21  and  C_22 
ROOT
ATOM      1  C   UNL d   1      27.478 -17.519  -0.201  0.00  0.00     0.258 C 
ATOM      2  O   UNL d   1      27.776 -18.696   0.018  0.00  0.00    -0.269 OA
ATOM      3  N   UNL d   1      26.166 -17.164  -0.466  0.00  0.00    -0.266 N 
ATOM      4  H   UNL d   1      25.832 -16.204  -0.536  0.00  0.00     0.190 HD
ENDROOT
BRANCH   1   5
ATOM      5  C   UNL d   1      28.513 -16.346  -0.131  0.00  0.00     0.174 C 
ATOM      6  C   UNL d   1      28.322 -15.449  -1.363  0.00  0.00     0.042 C 
BRANCH   5   7
ATOM      7  N   UNL d   1      28.438 -15.559   1.117  0.00  0.00    -0.345 N 
ATOM      8  C   UNL d   1      27.388 -14.695   1.364  0.00  0.00     0.241 C 
ATOM      9  O   UNL d   1      26.503 -14.447   0.546  0.00  0.00    -0.269 OA
ATOM     10  H   UNL d   1      29.123 -15.738   1.840  0.00  0.00     0.163 HD
BRANCH   8  11
ATOM     11  C   UNL d   1      27.387 -14.063   2.713  0.00  0.00     0.075 C 
ATOM     12  C   UNL d   1      28.499 -14.074   3.474  0.00  0.00     0.017 C 
BRANCH  12  13
ATOM     13  C   UNL d   1      28.547 -13.601   4.870  0.00  0.00    -0.036 A 
ATOM     14  C   UNL d   1      28.408 -12.241   5.188  0.00  0.00     0.011 A 
ATOM     15  C   UNL d   1      28.626 -11.792   6.499  0.00  0.00     0.001 A 
ATOM     16  C   UNL d   1      28.920 -12.702   7.514  0.00  0.00     0.000 A 
ATOM     17  C   UNL d   1      29.041 -14.054   7.212  0.00  0.00     0.001 A 
ATOM     18  C   UNL d   1      28.870 -14.495   5.899  0.00  0.00     0.011 A 
ENDBRANCH  12  13
ENDBRANCH   8  11
ENDBRANCH   5   7
ENDBRANCH   1   5
BRANCH   3  19
ATOM     19  N   UNL d   1      25.169 -18.171  -0.484  0.00  0.00    -0.267 N 
ATOM     20  C   UNL d   1      23.861 -17.800  -0.752  0.00  0.00     0.236 C 
ATOM     21  O   UNL d   1      23.537 -16.628  -0.935  0.00  0.00    -0.272 OA
ATOM     22  H   UNL d   1      25.476 -19.135  -0.341  0.00  0.00     0.190 HD
BRANCH  20  23
ATOM     23  C   UNL d   1      22.890 -18.960  -0.835  0.00  0.00     0.105 C 
BRANCH  23  24
ATOM     24  C   UNL d   1      21.435 -18.564  -0.509  0.00  0.00     0.014 C 
BRANCH  24  25
ATOM     25  C   UNL d   1      20.639 -19.674   0.215  0.00  0.00    -0.014 C 
ATOM     26  C   UNL d   1      20.446 -19.326   1.699  0.00  0.00     0.004 C 
ATOM     27  C   UNL d   1      19.530 -20.283   2.439  0.00  0.00     0.000 C 
ATOM     28  C   UNL d   1      18.196 -20.413   1.715  0.00  0.00     0.000 C 
ATOM     29  C   UNL d   1      18.402 -20.885   0.280  0.00  0.00     0.000 C 
ATOM     30  C   UNL d   1      19.299 -19.925  -0.494  0.00  0.00     0.004 C 
ENDBRANCH  24  25
ENDBRANCH  23  24
ENDBRANCH  20  23
ENDBRANCH   3  19
TORSDOF 8
ENDMDL
MODEL 2
REMARK VINA RESULT:    -9.135      1.451      9.815
REMARK INTER + INTRA:         -13.445
REMARK INTER:                 -11.521
REMARK INTRA:                  -1.924
REMARK CONF_INDEPENDENT:        2.386
REMARK UNBOUND:                -1.924
REMARK  8 active torsions:
REMARK  status: ('A' for Active; 'I' for Inactive)
REMARK    1  A    between atoms: C_2  and  N_3 
REMARK    2  A    between atoms: C_2  and  C_14 
REMARK       I    between atoms: N_3  and  C_4 
REMARK    3  A    between atoms: C_4  and  C_6 
REMARK    4  A    between atoms: C_7  and  C_8 
REMARK       I    between atoms: C_14  and  N_16 
REMARK    5  A    between atoms: N_16  and  N_17 
REMARK       I    between atoms: N_17  and  C_18 
REMARK    6  A    between atoms: C_18  and  C_20 
REMARK    7  A    between atoms: C_20  and  C_21 
REMARK    8  A    between atoms: C_21  and  C_22 
ROOT
ATOM      1  C   UNL d   1      26.669 -15.852   0.010  0.00  0.00     0.258 C 
ATOM      2  O   UNL d   1      27.534 -16.729  -0.067  0.00  0.00    -0.269 OA
ATOM      3  N   UNL d   1      26.755 -14.863   0.974  0.00  0.00    -0.266 N 
ATOM      4  H   UNL d   1      26.147 -14.047   1.018  0.00  0.00     0.190 HD
ENDROOT
BRANCH   1   5
ATOM      5  C   UNL d   1      25.470 -15.742  -0.992  0.00  0.00     0.174 C 
ATOM      6  C   UNL d   1      25.997 -15.986  -2.415  0.00  0.00     0.042 C 
BRANCH   5   7
ATOM      7  N   UNL d   1      24.346 -16.648  -0.678  0.00  0.00    -0.345 N 
ATOM      8  C   UNL d   1      24.552 -17.989  -0.417  0.00  0.00     0.241 C 
ATOM      9  O   UNL d   1      25.646 -18.543  -0.514  0.00  0.00    -0.269 OA
ATOM     10  H   UNL d   1      23.425 -16.246  -0.558  0.00  0.00     0.163 HD
BRANCH   8  11
ATOM     11  C   UNL d   1      23.340 -18.749   0.001  0.00  0.00     0.075 C 
ATOM     12  C   UNL d   1      22.123 -18.403  -0.463  0.00  0.00     0.017 C 
BRANCH  12  13
ATOM     13  C   UNL d   1      20.860 -19.006   0.006  0.00  0.00    -0.036 A 
ATOM     14  C   UNL d   1      20.658 -19.325   1.357  0.00  0.00     0.011 A 
ATOM     15  C   UNL d   1      19.525 -20.050   1.755  0.00  0.00     0.001 A 
ATOM     16  C   UNL d   1      18.554 -20.404   0.819  0.00  0.00     0.000 A 
ATOM     17  C   UNL d   1      18.736 -20.075  -0.520  0.00  0.00     0.001 A 
ATOM     18  C   UNL d   1      19.886 -19.395  -0.922  0.00  0.00     0.011 A 
ENDBRANCH  12  13
ENDBRANCH   8  11
ENDBRANCH   5   7
ENDBRANCH   1   5
BRANCH   3  19
ATOM     19  N   UNL d   1      27.850 -14.871   1.875  0.00  0.00    -0.267 N 
ATOM     20  C   UNL d   1      27.849 -13.963   2.922  0.00  0.00     0.236 C 
ATOM     21  O   UNL d   1      26.954 -13.133   3.068  0.00  0.00    -0.272 OA
ATOM     22  H   UNL d   1      28.568 -15.582   1.730  0.00  0.00     0.190 HD
BRANCH  20  23
ATOM     23  C   UNL d   1      29.017 -14.111   3.875  0.00  0.00     0.105 C 
BRANCH  23  24
ATOM     24  C   UNL d   1      28.701 -14.994   5.099  0.00  0.00     0.014 C 
BRANCH  24  25
ATOM     25  C   UNL d   1      28.714 -14.224   6.438  0.00  0.00    -0.014 C 
ATOM     26  C   UNL d   1      30.149 -14.075   6.967  0.00  0.00     0.004 C 
ATOM     27  C   UNL d   1      30.262 -13.185   8.191  0.00  0.00     0.000 C 
ATOM     28  C   UNL d   1      29.618 -11.830   7.928  0.00  0.00     0.000 C 
ATOM     29  C   UNL d   1      28.156 -11.994   7.530  0.00  0.00     0.000 C 
ATOM     30  C   UNL d   1      28.016 -12.863   6.284  0.00  0.00     0.004 C 
ENDBRANCH  24  25
ENDBRANCH  23  24
ENDBRANCH  20  23
ENDBRANCH   3  19
TORSDOF 8
ENDMDL
MODEL 3
REMARK VINA RESULT:    -9.064      4.126      9.655
REMARK INTER + INTRA:         -14.157
REMARK INTER:                 -11.450
REMARK INTRA:                  -2.707
REMARK CONF_INDEPENDENT:        2.386
REMARK UNBOUND:                -2.707
REMARK  8 active torsions:
REMARK  status: ('A' for Active; 'I' for Inactive)
REMARK    1  A    between atoms: C_2  and  N_3 
REMARK    2  A    between atoms: C_2  and  C_14 
REMARK       I    between atoms: N_3  and  C_4 
REMARK    3  A    between atoms: C_4  and  C_6 
REMARK    4  A    between atoms: C_7  and  C_8 
REMARK       I    between atoms: C_14  and  N_16 
REMARK    5  A    between atoms: N_16  and  N_17 
REMARK       I    between atoms: N_17  and  C_18 
REMARK    6  A    between atoms: C_18  and  C_20 
REMARK    7  A    between atoms: C_20  and  C_21 
REMARK    8  A    between atoms: C_21  and  C_22 
ROOT
ATOM      1  C   UNL d   1      26.138 -16.377  -0.555  0.00  0.00     0.258 C 
ATOM      2  O   UNL d   1      26.503 -15.572   0.306  0.00  0.00    -0.269 OA
ATOM      3  N   UNL d   1      25.889 -15.954  -1.850  0.00  0.00    -0.266 N 
ATOM      4  H   UNL d   1      25.703 -16.579  -2.633  0.00  0.00     0.190 HD
ENDROOT
BRANCH   1   5
ATOM      5  C   UNL d   1      25.997 -17.913  -0.287  0.00  0.00     0.174 C 
ATOM      6  C   UNL d   1      26.807 -18.267   0.970  0.00  0.00     0.042 C 
BRANCH   5   7
ATOM      7  N   UNL d   1      24.598 -18.372  -0.165  0.00  0.00    -0.345 N 
ATOM      8  C   UNL d   1      23.731 -18.336  -1.241  0.00  0.00     0.241 C 
ATOM      9  O   UNL d   1      24.018 -17.844  -2.332  0.00  0.00    -0.269 OA
ATOM     10  H   UNL d   1      24.310 -18.810   0.700  0.00  0.00     0.163 HD
BRANCH   8  11
ATOM     11  C   UNL d   1      22.391 -18.941  -0.999  0.00  0.00     0.075 C 
ATOM     12  C   UNL d   1      21.714 -18.671   0.135  0.00  0.00     0.017 C 
BRANCH  12  13
ATOM     13  C   UNL d   1      20.453 -19.334   0.520  0.00  0.00    -0.036 A 
ATOM     14  C   UNL d   1      20.184 -19.677   1.853  0.00  0.00     0.011 A 
ATOM     15  C   UNL d   1      19.062 -20.456   2.174  0.00  0.00     0.001 A 
ATOM     16  C   UNL d   1      18.167 -20.841   1.177  0.00  0.00     0.000 A 
ATOM     17  C   UNL d   1      18.415 -20.489  -0.145  0.00  0.00     0.001 A 
ATOM     18  C   UNL d   1      19.556 -19.755  -0.470  0.00  0.00     0.011 A 
ENDBRANCH  12  13
ENDBRANCH   8  11
ENDBRANCH   5   7
ENDBRANCH   1   5
BRANCH   3  19
ATOM     19  N   UNL d   1      26.056 -14.584  -2.174  0.00  0.00    -0.267 N 
ATOM     20  C   UNL d   1      25.450 -14.099  -3.321  0.00  0.00     0.236 C 
ATOM     21  O   UNL d   1      24.808 -14.823  -4.079  0.00  0.00    -0.272 OA
ATOM     22  H   UNL d   1      26.584 -14.010  -1.514  0.00  0.00     0.190 HD
BRANCH  20  23
ATOM     23  C   UNL d   1      25.617 -12.608  -3.529  0.00  0.00     0.105 C 
BRANCH  23  24
ATOM     24  C   UNL d   1      26.812 -12.246  -4.434  0.00  0.00     0.014 C 
BRANCH  24  25
ATOM     25  C   UNL d   1      27.401 -13.455  -5.195  0.00  0.00    -0.014 C 
ATOM     26  C   UNL d   1      28.011 -13.012  -6.533  0.00  0.00     0.004 C 
ATOM     27  C   UNL d   1      28.758 -14.113  -7.262  0.00  0.00     0.000 C 
ATOM     28  C   UNL d   1      29.804 -14.742  -6.351  0.00  0.00     0.000 C 
ATOM     29  C   UNL d   1      29.158 -15.293  -5.084  0.00  0.00     0.000 C 
ATOM     30  C   UNL d   1      28.422 -14.198  -4.318  0.00  0.00     0.004 C 
ENDBRANCH  24  25
ENDBRANCH  23  24
ENDBRANCH  20  23
ENDBRANCH   3  19
TORSDOF 8
ENDMDL
MODEL 4
REMARK VINA RESULT:    -9.064      1.479      1.833
REMARK INTER + INTRA:         -14.033
REMARK INTER:                 -11.450
REMARK INTRA:                  -2.583
REMARK CONF_INDEPENDENT:        2.386
REMARK UNBOUND:                -2.583
REMARK  8 active torsions:
REMARK  status: ('A' for Active; 'I' for Inactive)
REMARK    1  A    between atoms: C_2  and  N_3 
REMARK    2  A    between atoms: C_2  and  C_14 
REMARK       I    between atoms: N_3  and  C_4 
REMARK    3  A    between atoms: C_4  and  C_6 
REMARK    4  A    between atoms: C_7  and  C_8 
REMARK       I    between atoms: C_14  and  N_16 
REMARK    5  A    between atoms: N_16  and  N_17 
REMARK       I    between atoms: N_17  and  C_18 
REMARK    6  A    between atoms: C_18  and  C_20 
REMARK    7  A    between atoms: C_20  and  C_21 
REMARK    8  A    between atoms: C_21  and  C_22 
ROOT
ATOM      1  C   UNL d   1      25.736 -15.304  -2.321  0.00  0.00     0.258 C 
ATOM      2  O   UNL d   1      25.181 -15.225  -3.421  0.00  0.00    -0.269 OA
ATOM      3  N   UNL d   1      25.320 -16.242  -1.392  0.00  0.00    -0.266 N 
ATOM      4  H   UNL d   1      25.807 -16.442  -0.519  0.00  0.00     0.190 HD
ENDROOT
BRANCH   1   5
ATOM      5  C   UNL d   1      26.968 -14.426  -1.918  0.00  0.00     0.174 C 
ATOM      6  C   UNL d   1      27.089 -13.264  -2.916  0.00  0.00     0.042 C 
BRANCH   5   7
ATOM      7  N   UNL d   1      26.916 -13.929  -0.528  0.00  0.00    -0.345 N 
ATOM      8  C   UNL d   1      27.121 -14.773   0.548  0.00  0.00     0.241 C 
ATOM      9  O   UNL d   1      27.264 -15.990   0.442  0.00  0.00    -0.269 OA
ATOM     10  H   UNL d   1      26.828 -12.933  -0.377  0.00  0.00     0.163 HD
BRANCH   8  11
ATOM     11  C   UNL d   1      27.158 -14.108   1.880  0.00  0.00     0.075 C 
ATOM     12  C   UNL d   1      28.065 -14.481   2.805  0.00  0.00     0.017 C 
BRANCH  12  13
ATOM     13  C   UNL d   1      28.081 -13.979   4.193  0.00  0.00    -0.036 A 
ATOM     14  C   UNL d   1      27.791 -12.639   4.491  0.00  0.00     0.011 A 
ATOM     15  C   UNL d   1      27.977 -12.143   5.790  0.00  0.00     0.001 A 
ATOM     16  C   UNL d   1      28.392 -12.993   6.813  0.00  0.00     0.000 A 
ATOM     17  C   UNL d   1      28.665 -14.328   6.531  0.00  0.00     0.001 A 
ATOM     18  C   UNL d   1      28.524 -14.810   5.230  0.00  0.00     0.011 A 
ENDBRANCH  12  13
ENDBRANCH   8  11
ENDBRANCH   5   7
ENDBRANCH   1   5
BRANCH   3  19
ATOM     19  N   UNL d   1      24.248 -17.110  -1.718  0.00  0.00    -0.267 N 
ATOM     20  C   UNL d   1      23.936 -18.134  -0.838  0.00  0.00     0.236 C 
ATOM     21  O   UNL d   1      24.581 -18.333   0.189  0.00  0.00    -0.272 OA
ATOM     22  H   UNL d   1      23.727 -16.907  -2.573  0.00  0.00     0.190 HD
BRANCH  20  23
ATOM     23  C   UNL d   1      22.723 -18.948  -1.236  0.00  0.00     0.105 C 
BRANCH  23  24
ATOM     24  C   UNL d   1      21.426 -18.497  -0.534  0.00  0.00     0.014 C 
BRANCH  24  25
ATOM     25  C   UNL d   1      20.666 -19.648   0.163  0.00  0.00    -0.014 C 
ATOM     26  C   UNL d   1      20.631 -19.434   1.684  0.00  0.00     0.004 C 
ATOM     27  C   UNL d   1      19.759 -20.432   2.424  0.00  0.00     0.000 C 
ATOM     28  C   UNL d   1      18.357 -20.460   1.829  0.00  0.00     0.000 C 
ATOM     29  C   UNL d   1      18.405 -20.802   0.344  0.00  0.00     0.000 C 
ATOM     30  C   UNL d   1      19.255 -19.797  -0.427  0.00  0.00     0.004 C 
ENDBRANCH  24  25
ENDBRANCH  23  24
ENDBRANCH  20  23
ENDBRANCH   3  19
TORSDOF 8
ENDMDL
MODEL 5
REMARK VINA RESULT:    -9.019      4.153      9.831
REMARK INTER + INTRA:         -14.003
REMARK INTER:                 -11.405
REMARK INTRA:                  -2.598
REMARK CONF_INDEPENDENT:        2.386
REMARK UNBOUND:                -2.598
REMARK  8 active torsions:
REMARK  status: ('A' for Active; 'I' for Inactive)
REMARK    1  A    between atoms: C_2  and  N_3 
REMARK    2  A    between atoms: C_2  and  C_14 
REMARK       I    between atoms: N_3  and  C_4 
REMARK    3  A    between atoms: C_4  and  C_6 
REMARK    4  A    between atoms: C_7  and  C_8 
REMARK       I    between atoms: C_14  and  N_16 
REMARK    5  A    between atoms: N_16  and  N_17 
REMARK       I    between atoms: N_17  and  C_18 
REMARK    6  A    between atoms: C_18  and  C_20 
REMARK    7  A    between atoms: C_20  and  C_21 
REMARK    8  A    between atoms: C_21  and  C_22 
ROOT
ATOM      1  C   UNL d   1      25.815 -16.472  -0.845  0.00  0.00     0.258 C 
ATOM      2  O   UNL d   1      26.093 -15.507  -0.128  0.00  0.00    -0.269 OA
ATOM      3  N   UNL d   1      25.570 -16.296  -2.196  0.00  0.00    -0.266 N 
ATOM      4  H   UNL d   1      25.454 -17.057  -2.864  0.00  0.00     0.190 HD
ENDROOT
BRANCH   1   5
ATOM      5  C   UNL d   1      25.784 -17.948  -0.320  0.00  0.00     0.174 C 
ATOM      6  C   UNL d   1      26.611 -18.025   0.972  0.00  0.00     0.042 C 
BRANCH   5   7
ATOM      7  N   UNL d   1      24.421 -18.478  -0.112  0.00  0.00    -0.345 N 
ATOM      8  C   UNL d   1      23.526 -18.599  -1.159  0.00  0.00     0.241 C 
ATOM      9  O   UNL d   1      23.753 -18.198  -2.300  0.00  0.00    -0.269 OA
ATOM     10  H   UNL d   1      24.183 -18.848   0.799  0.00  0.00     0.163 HD
BRANCH   8  11
ATOM     11  C   UNL d   1      22.235 -19.260  -0.819  0.00  0.00     0.075 C 
ATOM     12  C   UNL d   1      21.484 -18.807   0.205  0.00  0.00     0.017 C 
BRANCH  12  13
ATOM     13  C   UNL d   1      20.270 -19.484   0.699  0.00  0.00    -0.036 A 
ATOM     14  C   UNL d   1      20.039 -19.666   2.071  0.00  0.00     0.011 A 
ATOM     15  C   UNL d   1      18.968 -20.458   2.513  0.00  0.00     0.001 A 
ATOM     16  C   UNL d   1      18.085 -21.020   1.594  0.00  0.00     0.000 A 
ATOM     17  C   UNL d   1      18.294 -20.830   0.231  0.00  0.00     0.001 A 
ATOM     18  C   UNL d   1      19.386 -20.081  -0.209  0.00  0.00     0.011 A 
ENDBRANCH  12  13
ENDBRANCH   8  11
ENDBRANCH   5   7
ENDBRANCH   1   5
BRANCH   3  19
ATOM     19  N   UNL d   1      25.642 -14.992  -2.747  0.00  0.00    -0.267 N 
ATOM     20  C   UNL d   1      25.589 -14.854  -4.124  0.00  0.00     0.236 C 
ATOM     21  O   UNL d   1      25.520 -15.823  -4.877  0.00  0.00    -0.272 OA
ATOM     22  H   UNL d   1      25.686 -14.210  -2.091  0.00  0.00     0.190 HD
BRANCH  20  23
ATOM     23  C   UNL d   1      25.585 -13.417  -4.605  0.00  0.00     0.105 C 
BRANCH  23  24
ATOM     24  C   UNL d   1      26.435 -12.476  -3.728  0.00  0.00     0.014 C 
BRANCH  24  25
ATOM     25  C   UNL d   1      26.483 -11.021  -4.247  0.00  0.00    -0.014 C 
ATOM     26  C   UNL d   1      25.888 -10.927  -5.660  0.00  0.00     0.004 C 
ATOM     27  C   UNL d   1      25.744  -9.505  -6.172  0.00  0.00     0.000 C 
ATOM     28  C   UNL d   1      24.964  -8.656  -5.177  0.00  0.00     0.000 C 
ATOM     29  C   UNL d   1      25.644  -8.658  -3.812  0.00  0.00     0.000 C 
ATOM     30  C   UNL d   1      25.776 -10.075  -3.263  0.00  0.00     0.004 C 
ENDBRANCH  24  25
ENDBRANCH  23  24
ENDBRANCH  20  23
ENDBRANCH   3  19
TORSDOF 8
ENDMDL
MODEL 6
REMARK VINA RESULT:    -8.564      6.129     10.645
REMARK INTER + INTRA:         -12.903
REMARK INTER:                 -10.950
REMARK INTRA:                  -1.953
REMARK CONF_INDEPENDENT:        2.386
REMARK UNBOUND:                -1.953
REMARK  8 active torsions:
REMARK  status: ('A' for Active; 'I' for Inactive)
REMARK    1  A    between atoms: C_2  and  N_3 
REMARK    2  A    between atoms: C_2  and  C_14 
REMARK       I    between atoms: N_3  and  C_4 
REMARK    3  A    between atoms: C_4  and  C_6 
REMARK    4  A    between atoms: C_7  and  C_8 
REMARK       I    between atoms: C_14  and  N_16 
REMARK    5  A    between atoms: N_16  and  N_17 
REMARK       I    between atoms: N_17  and  C_18 
REMARK    6  A    between atoms: C_18  and  C_20 
REMARK    7  A    between atoms: C_20  and  C_21 
REMARK    8  A    between atoms: C_21  and  C_22 
ROOT
ATOM      1  C   UNL d   1      25.221 -14.151  -3.202  0.00  0.00     0.258 C 
ATOM      2  O   UNL d   1      24.086 -14.133  -3.687  0.00  0.00    -0.269 OA
ATOM      3  N   UNL d   1      26.051 -13.049  -3.317  0.00  0.00    -0.266 N 
ATOM      4  H   UNL d   1      26.946 -12.951  -2.841  0.00  0.00     0.190 HD
ENDROOT
BRANCH   1   5
ATOM      5  C   UNL d   1      25.780 -15.358  -2.377  0.00  0.00     0.174 C 
ATOM      6  C   UNL d   1      26.741 -14.818  -1.307  0.00  0.00     0.042 C 
BRANCH   5   7
ATOM      7  N   UNL d   1      24.730 -16.203  -1.770  0.00  0.00    -0.345 N 
ATOM      8  C   UNL d   1      25.047 -17.322  -1.024  0.00  0.00     0.241 C 
ATOM      9  O   UNL d   1      26.193 -17.749  -0.887  0.00  0.00    -0.269 OA
ATOM     10  H   UNL d   1      23.770 -15.890  -1.826  0.00  0.00     0.163 HD
BRANCH   8  11
ATOM     11  C   UNL d   1      23.891 -18.004  -0.377  0.00  0.00     0.075 C 
ATOM     12  C   UNL d   1      22.824 -18.384  -1.109  0.00  0.00     0.017 C 
BRANCH  12  13
ATOM     13  C   UNL d   1      21.582 -18.932  -0.533  0.00  0.00    -0.036 A 
ATOM     14  C   UNL d   1      20.505 -19.319  -1.346  0.00  0.00     0.011 A 
ATOM     15  C   UNL d   1      19.275 -19.677  -0.774  0.00  0.00     0.001 A 
ATOM     16  C   UNL d   1      19.129 -19.714   0.611  0.00  0.00     0.000 A 
ATOM     17  C   UNL d   1      20.197 -19.351   1.426  0.00  0.00     0.001 A 
ATOM     18  C   UNL d   1      21.406 -18.950   0.856  0.00  0.00     0.011 A 
ENDBRANCH  12  13
ENDBRANCH   8  11
ENDBRANCH   5   7
ENDBRANCH   1   5
BRANCH   3  19
ATOM     19  N   UNL d   1      25.582 -11.899  -4.001  0.00  0.00    -0.267 N 
ATOM     20  C   UNL d   1      26.508 -10.962  -4.428  0.00  0.00     0.236 C 
ATOM     21  O   UNL d   1      27.710 -11.078  -4.200  0.00  0.00    -0.272 OA
ATOM     22  H   UNL d   1      24.578 -11.842  -4.184  0.00  0.00     0.190 HD
BRANCH  20  23
ATOM     23  C   UNL d   1      25.914  -9.817  -5.222  0.00  0.00     0.105 C 
BRANCH  23  24
ATOM     24  C   UNL d   1      25.497  -8.617  -4.349  0.00  0.00     0.014 C 
BRANCH  24  25
ATOM     25  C   UNL d   1      24.810  -7.482  -5.142  0.00  0.00    -0.014 C 
ATOM     26  C   UNL d   1      23.621  -8.025  -5.950  0.00  0.00     0.004 C 
ATOM     27  C   UNL d   1      22.793  -6.945  -6.622  0.00  0.00     0.000 C 
ATOM     28  C   UNL d   1      22.350  -5.901  -5.606  0.00  0.00     0.000 C 
ATOM     29  C   UNL d   1      23.554  -5.281  -4.906  0.00  0.00     0.000 C 
ATOM     30  C   UNL d   1      24.390  -6.343  -4.199  0.00  0.00     0.004 C 
ENDBRANCH  24  25
ENDBRANCH  23  24
ENDBRANCH  20  23
ENDBRANCH   3  19
TORSDOF 8
ENDMDL
MODEL 7
REMARK VINA RESULT:    -8.297      3.790      9.422
REMARK INTER + INTRA:         -13.422
REMARK INTER:                 -10.684
REMARK INTRA:                  -2.738
REMARK CONF_INDEPENDENT:        2.386
REMARK UNBOUND:                -2.738
REMARK  8 active torsions:
REMARK  status: ('A' for Active; 'I' for Inactive)
REMARK    1  A    between atoms: C_2  and  N_3 
REMARK    2  A    between atoms: C_2  and  C_14 
REMARK       I    between atoms: N_3  and  C_4 
REMARK    3  A    between atoms: C_4  and  C_6 
REMARK    4  A    between atoms: C_7  and  C_8 
REMARK       I    between atoms: C_14  and  N_16 
REMARK    5  A    between atoms: N_16  and  N_17 
REMARK       I    between atoms: N_17  and  C_18 
REMARK    6  A    between atoms: C_18  and  C_20 
REMARK    7  A    between atoms: C_20  and  C_21 
REMARK    8  A    between atoms: C_21  and  C_22 
ROOT
ATOM      1  C   UNL d   1      25.857 -16.212  -0.850  0.00  0.00     0.258 C 
ATOM      2  O   UNL d   1      26.157 -15.262  -0.122  0.00  0.00    -0.269 OA
ATOM      3  N   UNL d   1      25.380 -15.992  -2.131  0.00  0.00    -0.266 N 
ATOM      4  H   UNL d   1      25.229 -16.724  -2.823  0.00  0.00     0.190 HD
ENDROOT
BRANCH   1   5
ATOM      5  C   UNL d   1      26.051 -17.708  -0.429  0.00  0.00     0.174 C 
ATOM      6  C   UNL d   1      27.133 -17.775   0.659  0.00  0.00     0.042 C 
BRANCH   5   7
ATOM      7  N   UNL d   1      24.806 -18.367   0.018  0.00  0.00    -0.345 N 
ATOM      8  C   UNL d   1      23.729 -18.527  -0.833  0.00  0.00     0.241 C 
ATOM      9  O   UNL d   1      23.684 -18.062  -1.971  0.00  0.00    -0.269 OA
ATOM     10  H   UNL d   1      24.791 -18.793   0.935  0.00  0.00     0.163 HD
BRANCH   8  11
ATOM     11  C   UNL d   1      22.592 -19.315  -0.279  0.00  0.00     0.075 C 
ATOM     12  C   UNL d   1      21.330 -18.852  -0.374  0.00  0.00     0.017 C 
BRANCH  12  13
ATOM     13  C   UNL d   1      20.166 -19.493   0.269  0.00  0.00    -0.036 A 
ATOM     14  C   UNL d   1      20.101 -19.669   1.659  0.00  0.00     0.011 A 
ATOM     15  C   UNL d   1      19.071 -20.429   2.233  0.00  0.00     0.001 A 
ATOM     16  C   UNL d   1      18.064 -20.965   1.431  0.00  0.00     0.000 A 
ATOM     17  C   UNL d   1      18.110 -20.780   0.053  0.00  0.00     0.001 A 
ATOM     18  C   UNL d   1      19.160 -20.063  -0.521  0.00  0.00     0.011 A 
ENDBRANCH  12  13
ENDBRANCH   8  11
ENDBRANCH   5   7
ENDBRANCH   1   5
BRANCH   3  19
ATOM     19  N   UNL d   1      25.239 -14.660  -2.596  0.00  0.00    -0.267 N 
ATOM     20  C   UNL d   1      25.264 -14.432  -3.962  0.00  0.00     0.236 C 
ATOM     21  O   UNL d   1      25.442 -15.338  -4.774  0.00  0.00    -0.272 OA
ATOM     22  H   UNL d   1      25.079 -13.935  -1.894  0.00  0.00     0.190 HD
BRANCH  20  23
ATOM     23  C   UNL d   1      25.018 -12.990  -4.357  0.00  0.00     0.105 C 
BRANCH  23  24
ATOM     24  C   UNL d   1      26.197 -12.054  -4.023  0.00  0.00     0.014 C 
BRANCH  24  25
ATOM     25  C   UNL d   1      26.653 -12.134  -2.548  0.00  0.00    -0.014 C 
ATOM     26  C   UNL d   1      27.805 -13.138  -2.389  0.00  0.00     0.004 C 
ATOM     27  C   UNL d   1      28.421 -13.150  -1.002  0.00  0.00     0.000 C 
ATOM     28  C   UNL d   1      28.841 -11.745  -0.592  0.00  0.00     0.000 C 
ATOM     29  C   UNL d   1      27.652 -10.790  -0.633  0.00  0.00     0.000 C 
ATOM     30  C   UNL d   1      27.031 -10.740  -2.025  0.00  0.00     0.004 C 
ENDBRANCH  24  25
ENDBRANCH  23  24
ENDBRANCH  20  23
ENDBRANCH   3  19
TORSDOF 8
ENDMDL
MODEL 8
REMARK VINA RESULT:    -8.047      4.464     10.108
REMARK INTER + INTRA:         -12.979
REMARK INTER:                 -10.434
REMARK INTRA:                  -2.546
REMARK CONF_INDEPENDENT:        2.386
REMARK UNBOUND:                -2.546
REMARK  8 active torsions:
REMARK  status: ('A' for Active; 'I' for Inactive)
REMARK    1  A    between atoms: C_2  and  N_3 
REMARK    2  A    between atoms: C_2  and  C_14 
REMARK       I    between atoms: N_3  and  C_4 
REMARK    3  A    between atoms: C_4  and  C_6 
REMARK    4  A    between atoms: C_7  and  C_8 
REMARK       I    between atoms: C_14  and  N_16 
REMARK    5  A    between atoms: N_16  and  N_17 
REMARK       I    between atoms: N_17  and  C_18 
REMARK    6  A    between atoms: C_18  and  C_20 
REMARK    7  A    between atoms: C_20  and  C_21 
REMARK    8  A    between atoms: C_21  and  C_22 
ROOT
ATOM      1  C   UNL d   1      25.894 -15.285  -3.595  0.00  0.00     0.258 C 
ATOM      2  O   UNL d   1      24.998 -14.519  -3.960  0.00  0.00    -0.269 OA
ATOM      3  N   UNL d   1      27.088 -15.352  -4.293  0.00  0.00    -0.266 N 
ATOM      4  H   UNL d   1      27.909 -15.868  -3.981  0.00  0.00     0.190 HD
ENDROOT
BRANCH   1   5
ATOM      5  C   UNL d   1      25.792 -16.172  -2.308  0.00  0.00     0.174 C 
ATOM      6  C   UNL d   1      26.339 -15.370  -1.117  0.00  0.00     0.042 C 
BRANCH   5   7
ATOM      7  N   UNL d   1      24.429 -16.670  -2.034  0.00  0.00    -0.345 N 
ATOM      8  C   UNL d   1      24.164 -17.488  -0.952  0.00  0.00     0.241 C 
ATOM      9  O   UNL d   1      25.034 -17.933  -0.204  0.00  0.00    -0.269 OA
ATOM     10  H   UNL d   1      23.667 -16.318  -2.598  0.00  0.00     0.163 HD
BRANCH   8  11
ATOM     11  C   UNL d   1      22.726 -17.811  -0.736  0.00  0.00     0.075 C 
ATOM     12  C   UNL d   1      22.357 -18.679   0.227  0.00  0.00     0.017 C 
BRANCH  12  13
ATOM     13  C   UNL d   1      20.977 -19.164   0.416  0.00  0.00    -0.036 A 
ATOM     14  C   UNL d   1      20.461 -19.426   1.694  0.00  0.00     0.011 A 
ATOM     15  C   UNL d   1      19.211 -20.045   1.844  0.00  0.00     0.001 A 
ATOM     16  C   UNL d   1      18.439 -20.347   0.723  0.00  0.00     0.000 A 
ATOM     17  C   UNL d   1      18.933 -20.073  -0.548  0.00  0.00     0.001 A 
ATOM     18  C   UNL d   1      20.197 -19.501  -0.697  0.00  0.00     0.011 A 
ENDBRANCH  12  13
ENDBRANCH   8  11
ENDBRANCH   5   7
ENDBRANCH   1   5
BRANCH   3  19
ATOM     19  N   UNL d   1      27.268 -14.529  -5.434  0.00  0.00    -0.267 N 
ATOM     20  C   UNL d   1      28.478 -14.588  -6.105  0.00  0.00     0.236 C 
ATOM     21  O   UNL d   1      29.406 -15.297  -5.722  0.00  0.00    -0.272 OA
ATOM     22  H   UNL d   1      26.471 -13.963  -5.731  0.00  0.00     0.190 HD
BRANCH  20  23
ATOM     23  C   UNL d   1      28.536 -13.738  -7.358  0.00  0.00     0.105 C 
BRANCH  23  24
ATOM     24  C   UNL d   1      29.167 -12.349  -7.127  0.00  0.00     0.014 C 
BRANCH  24  25
ATOM     25  C   UNL d   1      28.253 -11.376  -6.347  0.00  0.00    -0.014 C 
ATOM     26  C   UNL d   1      26.811 -11.447  -6.870  0.00  0.00     0.004 C 
ATOM     27  C   UNL d   1      25.820 -10.646  -6.045  0.00  0.00     0.000 C 
ATOM     28  C   UNL d   1      25.904 -11.041  -4.577  0.00  0.00     0.000 C 
ATOM     29  C   UNL d   1      27.318 -10.840  -4.043  0.00  0.00     0.000 C 
ATOM     30  C   UNL d   1      28.331 -11.656  -4.838  0.00  0.00     0.004 C 
ENDBRANCH  24  25
ENDBRANCH  23  24
ENDBRANCH  20  23
ENDBRANCH   3  19
TORSDOF 8
ENDMDL
MODEL 9
REMARK VINA RESULT:    -7.728      3.594      9.748
REMARK INTER + INTRA:         -12.912
REMARK INTER:                 -10.115
REMARK INTRA:                  -2.797
REMARK CONF_INDEPENDENT:        2.386
REMARK UNBOUND:                -2.797
REMARK  8 active torsions:
REMARK  status: ('A' for Active; 'I' for Inactive)
REMARK    1  A    between atoms: C_2  and  N_3 
REMARK    2  A    between atoms: C_2  and  C_14 
REMARK       I    between atoms: N_3  and  C_4 
REMARK    3  A    between atoms: C_4  and  C_6 
REMARK    4  A    between atoms: C_7  and  C_8 
REMARK       I    between atoms: C_14  and  N_16 
REMARK    5  A    between atoms: N_16  and  N_17 
REMARK       I    between atoms: N_17  and  C_18 
REMARK    6  A    between atoms: C_18  and  C_20 
REMARK    7  A    between atoms: C_20  and  C_21 
REMARK    8  A    between atoms: C_21  and  C_22 
ROOT
ATOM      1  C   UNL d   1      28.099 -16.376  -1.341  0.00  0.00     0.258 C 
ATOM      2  O   UNL d   1      29.189 -16.726  -1.802  0.00  0.00    -0.269 OA
ATOM      3  N   UNL d   1      27.146 -15.794  -2.159  0.00  0.00    -0.266 N 
ATOM      4  H   UNL d   1      26.189 -15.592  -1.873  0.00  0.00     0.190 HD
ENDROOT
BRANCH   1   5
ATOM      5  C   UNL d   1      27.682 -16.616   0.150  0.00  0.00     0.174 C 
ATOM      6  C   UNL d   1      27.511 -15.252   0.836  0.00  0.00     0.042 C 
BRANCH   5   7
ATOM      7  N   UNL d   1      26.470 -17.445   0.303  0.00  0.00    -0.345 N 
ATOM      8  C   UNL d   1      25.235 -17.007  -0.138  0.00  0.00     0.241 C 
ATOM      9  O   UNL d   1      25.034 -15.883  -0.595  0.00  0.00    -0.269 OA
ATOM     10  H   UNL d   1      26.575 -18.390   0.649  0.00  0.00     0.163 HD
BRANCH   8  11
ATOM     11  C   UNL d   1      24.130 -17.999  -0.024  0.00  0.00     0.075 C 
ATOM     12  C   UNL d   1      22.882 -17.681  -0.423  0.00  0.00     0.017 C 
BRANCH  12  13
ATOM     13  C   UNL d   1      21.705 -18.546  -0.216  0.00  0.00    -0.036 A 
ATOM     14  C   UNL d   1      20.839 -18.870  -1.272  0.00  0.00     0.011 A 
ATOM     15  C   UNL d   1      19.637 -19.550  -1.023  0.00  0.00     0.001 A 
ATOM     16  C   UNL d   1      19.321 -19.967   0.269  0.00  0.00     0.000 A 
ATOM     17  C   UNL d   1      20.182 -19.667   1.320  0.00  0.00     0.001 A 
ATOM     18  C   UNL d   1      21.355 -18.950   1.079  0.00  0.00     0.011 A 
ENDBRANCH  12  13
ENDBRANCH   8  11
ENDBRANCH   5   7
ENDBRANCH   1   5
BRANCH   3  19
ATOM     19  N   UNL d   1      27.438 -15.603  -3.533  0.00  0.00    -0.267 N 
ATOM     20  C   UNL d   1      26.454 -15.067  -4.348  0.00  0.00     0.236 C 
ATOM     21  O   UNL d   1      25.333 -14.790  -3.926  0.00  0.00    -0.272 OA
ATOM     22  H   UNL d   1      28.383 -15.833  -3.845  0.00  0.00     0.190 HD
BRANCH  20  23
ATOM     23  C   UNL d   1      26.895 -14.824  -5.777  0.00  0.00     0.105 C 
BRANCH  23  24
ATOM     24  C   UNL d   1      28.204 -14.017  -5.884  0.00  0.00     0.014 C 
BRANCH  24  25
ATOM     25  C   UNL d   1      29.292 -14.710  -6.736  0.00  0.00    -0.014 C 
ATOM     26  C   UNL d   1      30.360 -13.701  -7.182  0.00  0.00     0.004 C 
ATOM     27  C   UNL d   1      31.549 -14.335  -7.880  0.00  0.00     0.000 C 
ATOM     28  C   UNL d   1      32.147 -15.439  -7.018  0.00  0.00     0.000 C 
ATOM     29  C   UNL d   1      31.101 -16.499  -6.694  0.00  0.00     0.000 C 
ATOM     30  C   UNL d   1      29.905 -15.892  -5.967  0.00  0.00     0.004 C 
ENDBRANCH  24  25
ENDBRANCH  23  24
ENDBRANCH  20  23
ENDBRANCH   3  19
TORSDOF 8
ENDMDL
