MODEL 1
REMARK VINA RESULT:   -11.047      0.000      0.000
REMARK INTER + INTRA:         -15.643
REMARK INTER:                 -14.030
REMARK INTRA:                  -1.613
REMARK CONF_INDEPENDENT:        2.983
REMARK UNBOUND:                -1.613
REMARK  10 active torsions:
REMARK  status: ('A' for Active; 'I' for Inactive)
REMARK    1  A    between atoms: C_2  and  C_3 
REMARK       I    between atoms: C_2  and  N_30 
REMARK    2  A    between atoms: C_3  and  S_4 
REMARK    3  A    between atoms: S_4  and  C_5 
REMARK    4  A    between atoms: N_15  and  N_16 
REMARK       I    between atoms: N_16  and  C_17 
REMARK    5  A    between atoms: C_17  and  C_19 
REMARK    6  A    between atoms: C_19  and  C_20 
REMARK    7  A    between atoms: C_20  and  C_21 
REMARK    8  A    between atoms: N_30  and  C_31 
REMARK    9  A    between atoms: C_31  and  C_32 
REMARK   10  A    between atoms: C_32  and  C_33 
ROOT
ATOM      1  C   UNL d   1      27.398 -16.259  -0.914  0.00  0.00     0.274 C 
ATOM      2  N   UNL d   1      26.362 -16.145  -1.921  0.00  0.00    -0.358 N 
ATOM      3  C   UNL d   1      26.390 -15.006  -2.726  0.00  0.00     0.046 A 
ATOM      4  C   UNL d   1      25.748 -14.943  -3.966  0.00  0.00     0.030 A 
ATOM      5  C   UNL d   1      25.646 -13.726  -4.668  0.00  0.00     0.002 A 
ATOM      6  C   UNL d   1      26.156 -12.547  -4.131  0.00  0.00     0.001 A 
ATOM      7  C   UNL d   1      26.823 -12.597  -2.921  0.00  0.00     0.019 A 
ATOM      8  C   UNL d   1      26.954 -13.821  -2.251  0.00  0.00     0.060 A 
ATOM      9  C   UNL d   1      27.679 -13.843  -0.980  0.00  0.00     0.277 C 
ATOM     10  O   UNL d   1      28.359 -12.850  -0.713  0.00  0.00    -0.266 OA
ATOM     11  N   UNL d   1      27.519 -14.992  -0.197  0.00  0.00    -0.221 N 
ATOM     12  H   UNL d   1      26.039 -17.015  -2.329  0.00  0.00     0.162 HD
ENDROOT
BRANCH  11  13
ATOM     13  N   UNL d   1      28.146 -15.026   1.112  0.00  0.00    -0.262 N 
ATOM     14  C   UNL d   1      27.590 -14.243   2.116  0.00  0.00     0.236 C 
ATOM     15  O   UNL d   1      26.722 -13.387   1.973  0.00  0.00    -0.272 OA
ATOM     16  H   UNL d   1      28.568 -15.921   1.356  0.00  0.00     0.190 HD
BRANCH  14  17
ATOM     17  C   UNL d   1      28.028 -14.558   3.519  0.00  0.00     0.109 C 
BRANCH  17  18
ATOM     18  C   UNL d   1      27.101 -13.748   4.437  0.00  0.00     0.046 C 
BRANCH  18  19
ATOM     19  C   UNL d   1      27.809 -12.742   5.254  0.00  0.00    -0.050 A 
ATOM     20  C   UNL d   1      28.575 -12.991   6.316  0.00  0.00    -0.006 A 
ATOM     21  C   UNL d   1      28.946 -14.178   7.008  0.00  0.00     0.014 A 
ATOM     22  C   UNL d   1      29.080 -11.668   6.717  0.00  0.00     0.038 A 
ATOM     23  C   UNL d   1      29.766 -14.065   8.063  0.00  0.00     0.001 A 
ATOM     24  C   UNL d   1      30.273 -12.771   8.495  0.00  0.00     0.002 A 
ATOM     25  C   UNL d   1      29.973 -11.607   7.886  0.00  0.00     0.030 A 
ATOM     26  N   UNL d   1      28.650 -10.733   5.957  0.00  0.00    -0.385 N 
ATOM     27  C   UNL d   1      27.781 -11.289   4.907  0.00  0.00     0.155 A 
ATOM     28  H   UNL d   1      28.886  -9.751   6.081  0.00  0.00     0.160 HD
ENDBRANCH  18  19
ENDBRANCH  17  18
ENDBRANCH  14  17
ENDBRANCH  11  13
BRANCH   1  29
ATOM     29  S   UNL d   1      27.036 -17.703   0.124  0.00  0.00    -0.112 SA
BRANCH  29  30
ATOM     30  C   UNL d   1      25.377 -18.201  -0.464  0.00  0.00     0.180 C 
BRANCH  30  31
ATOM     31  C   UNL d   1      24.347 -17.103  -0.147  0.00  0.00     0.227 C 
ATOM     32  O   UNL d   1      24.622 -15.916   0.011  0.00  0.00    -0.273 OA
ATOM     33  N   UNL d   1      23.024 -17.457  -0.088  0.00  0.00    -0.360 N 
ATOM     34  H   UNL d   1      22.403 -16.687   0.140  0.00  0.00     0.162 HD
BRANCH  33  35
ATOM     35  C   UNL d   1      22.489 -18.777  -0.312  0.00  0.00     0.127 C 
BRANCH  35  36
ATOM     36  C   UNL d   1      21.078 -18.800  -0.914  0.00  0.00     0.058 C 
BRANCH  36  37
ATOM     37  C   UNL d   1      20.080 -19.497  -0.012  0.00  0.00    -0.057 C 
ATOM     38  C   UNL d   1      20.313 -19.566   1.368  0.00  0.00     0.007 C 
ATOM     39  C   UNL d   1      19.503 -20.369   2.177  0.00  0.00     0.001 C 
ATOM     40  C   UNL d   1      18.387 -21.009   1.642  0.00  0.00     0.000 C 
ATOM     41  C   UNL d   1      18.062 -20.824   0.305  0.00  0.00     0.001 C 
ATOM     42  C   UNL d   1      18.920 -20.104  -0.520  0.00  0.00     0.007 C 
ENDBRANCH  36  37
ENDBRANCH  35  36
ENDBRANCH  33  35
ENDBRANCH  30  31
ENDBRANCH  29  30
ENDBRANCH   1  29
TORSDOF 10
ENDMDL
MODEL 2
REMARK VINA RESULT:   -10.248      2.434      7.387
REMARK INTER + INTRA:         -15.902
REMARK INTER:                 -13.231
REMARK INTRA:                  -2.671
REMARK CONF_INDEPENDENT:        2.983
REMARK UNBOUND:                -2.671
REMARK  10 active torsions:
REMARK  status: ('A' for Active; 'I' for Inactive)
REMARK    1  A    between atoms: C_2  and  C_3 
REMARK       I    between atoms: C_2  and  N_30 
REMARK    2  A    between atoms: C_3  and  S_4 
REMARK    3  A    between atoms: S_4  and  C_5 
REMARK    4  A    between atoms: N_15  and  N_16 
REMARK       I    between atoms: N_16  and  C_17 
REMARK    5  A    between atoms: C_17  and  C_19 
REMARK    6  A    between atoms: C_19  and  C_20 
REMARK    7  A    between atoms: C_20  and  C_21 
REMARK    8  A    between atoms: N_30  and  C_31 
REMARK    9  A    between atoms: C_31  and  C_32 
REMARK   10  A    between atoms: C_32  and  C_33 
ROOT
ATOM      1  C   UNL d   1      27.074 -14.930   0.847  0.00  0.00     0.274 C 
ATOM      2  N   UNL d   1      27.986 -15.195   1.942  0.00  0.00    -0.358 N 
ATOM      3  C   UNL d   1      27.960 -14.300   3.013  0.00  0.00     0.046 A 
ATOM      4  C   UNL d   1      28.449 -14.627   4.281  0.00  0.00     0.030 A 
ATOM      5  C   UNL d   1      28.571 -13.646   5.285  0.00  0.00     0.002 A 
ATOM      6  C   UNL d   1      28.234 -12.319   5.031  0.00  0.00     0.001 A 
ATOM      7  C   UNL d   1      27.717 -11.984   3.794  0.00  0.00     0.019 A 
ATOM      8  C   UNL d   1      27.563 -12.976   2.815  0.00  0.00     0.060 A 
ATOM      9  C   UNL d   1      26.998 -12.593   1.521  0.00  0.00     0.277 C 
ATOM     10  O   UNL d   1      26.444 -11.493   1.462  0.00  0.00    -0.266 OA
ATOM     11  N   UNL d   1      27.151 -13.518   0.482  0.00  0.00    -0.221 N 
ATOM     12  H   UNL d   1      28.179 -16.170   2.135  0.00  0.00     0.162 HD
ENDROOT
BRANCH  11  13
ATOM     13  N   UNL d   1      26.688 -13.148  -0.844  0.00  0.00    -0.262 N 
ATOM     14  C   UNL d   1      27.588 -13.253  -1.897  0.00  0.00     0.236 C 
ATOM     15  O   UNL d   1      28.793 -13.464  -1.803  0.00  0.00    -0.272 OA
ATOM     16  H   UNL d   1      25.701 -13.333  -1.013  0.00  0.00     0.190 HD
BRANCH  14  17
ATOM     17  C   UNL d   1      26.997 -13.206  -3.278  0.00  0.00     0.109 C 
BRANCH  17  18
ATOM     18  C   UNL d   1      26.953 -14.662  -3.762  0.00  0.00     0.046 C 
BRANCH  18  19
ATOM     19  C   UNL d   1      27.919 -14.957  -4.841  0.00  0.00    -0.050 A 
ATOM     20  C   UNL d   1      28.953 -15.793  -4.761  0.00  0.00    -0.006 A 
ATOM     21  C   UNL d   1      29.482 -16.612  -3.724  0.00  0.00     0.014 A 
ATOM     22  C   UNL d   1      29.546 -15.765  -6.108  0.00  0.00     0.038 A 
ATOM     23  C   UNL d   1      30.562 -17.359  -3.997  0.00  0.00     0.001 A 
ATOM     24  C   UNL d   1      31.181 -17.346  -5.314  0.00  0.00     0.002 A 
ATOM     25  C   UNL d   1      30.733 -16.604  -6.346  0.00  0.00     0.030 A 
ATOM     26  N   UNL d   1      28.914 -14.986  -6.901  0.00  0.00    -0.385 N 
ATOM     27  C   UNL d   1      27.777 -14.363  -6.204  0.00  0.00     0.155 A 
ATOM     28  H   UNL d   1      29.178 -14.832  -7.871  0.00  0.00     0.160 HD
ENDBRANCH  18  19
ENDBRANCH  17  18
ENDBRANCH  14  17
ENDBRANCH  11  13
BRANCH   1  29
ATOM     29  S   UNL d   1      27.432 -16.097  -0.495  0.00  0.00    -0.112 SA
BRANCH  29  30
ATOM     30  C   UNL d   1      25.908 -17.107  -0.551  0.00  0.00     0.180 C 
BRANCH  30  31
ATOM     31  C   UNL d   1      24.787 -16.341  -1.274  0.00  0.00     0.227 C 
ATOM     32  O   UNL d   1      24.904 -15.208  -1.736  0.00  0.00    -0.273 OA
ATOM     33  N   UNL d   1      23.588 -16.980  -1.467  0.00  0.00    -0.360 N 
ATOM     34  H   UNL d   1      22.891 -16.411  -1.936  0.00  0.00     0.162 HD
BRANCH  33  35
ATOM     35  C   UNL d   1      23.273 -18.328  -1.066  0.00  0.00     0.127 C 
BRANCH  35  36
ATOM     36  C   UNL d   1      22.606 -18.444   0.311  0.00  0.00     0.058 C 
BRANCH  36  37
ATOM     37  C   UNL d   1      21.220 -19.052   0.228  0.00  0.00    -0.057 C 
ATOM     38  C   UNL d   1      20.650 -19.652   1.359  0.00  0.00     0.007 C 
ATOM     39  C   UNL d   1      19.463 -20.380   1.243  0.00  0.00     0.001 C 
ATOM     40  C   UNL d   1      18.773 -20.415   0.033  0.00  0.00     0.000 C 
ATOM     41  C   UNL d   1      19.253 -19.697  -1.055  0.00  0.00     0.001 C 
ATOM     42  C   UNL d   1      20.482 -19.052  -0.967  0.00  0.00     0.007 C 
ENDBRANCH  36  37
ENDBRANCH  35  36
ENDBRANCH  33  35
ENDBRANCH  30  31
ENDBRANCH  29  30
ENDBRANCH   1  29
TORSDOF 10
ENDMDL
MODEL 3
REMARK VINA RESULT:   -10.155      1.579      9.355
REMARK INTER + INTRA:         -15.510
REMARK INTER:                 -13.138
REMARK INTRA:                  -2.372
REMARK CONF_INDEPENDENT:        2.983
REMARK UNBOUND:                -2.372
REMARK  10 active torsions:
REMARK  status: ('A' for Active; 'I' for Inactive)
REMARK    1  A    between atoms: C_2  and  C_3 
REMARK       I    between atoms: C_2  and  N_30 
REMARK    2  A    between atoms: C_3  and  S_4 
REMARK    3  A    between atoms: S_4  and  C_5 
REMARK    4  A    between atoms: N_15  and  N_16 
REMARK       I    between atoms: N_16  and  C_17 
REMARK    5  A    between atoms: C_17  and  C_19 
REMARK    6  A    between atoms: C_19  and  C_20 
REMARK    7  A    between atoms: C_20  and  C_21 
REMARK    8  A    between atoms: N_30  and  C_31 
REMARK    9  A    between atoms: C_31  and  C_32 
REMARK   10  A    between atoms: C_32  and  C_33 
ROOT
ATOM      1  C   UNL d   1      26.800 -14.948  -0.555  0.00  0.00     0.274 C 
ATOM      2  N   UNL d   1      27.731 -14.457  -1.551  0.00  0.00    -0.358 N 
ATOM      3  C   UNL d   1      27.186 -13.770  -2.636  0.00  0.00     0.046 A 
ATOM      4  C   UNL d   1      27.938 -12.903  -3.433  0.00  0.00     0.030 A 
ATOM      5  C   UNL d   1      27.405 -12.366  -4.621  0.00  0.00     0.002 A 
ATOM      6  C   UNL d   1      26.124 -12.708  -5.048  0.00  0.00     0.001 A 
ATOM      7  C   UNL d   1      25.354 -13.537  -4.254  0.00  0.00     0.019 A 
ATOM      8  C   UNL d   1      25.880 -14.033  -3.054  0.00  0.00     0.060 A 
ATOM      9  C   UNL d   1      25.035 -14.896  -2.228  0.00  0.00     0.277 C 
ATOM     10  O   UNL d   1      23.832 -14.912  -2.497  0.00  0.00    -0.266 OA
ATOM     11  N   UNL d   1      25.685 -15.617  -1.220  0.00  0.00    -0.221 N 
ATOM     12  H   UNL d   1      28.641 -14.173  -1.208  0.00  0.00     0.162 HD
ENDROOT
BRANCH  11  13
ATOM     13  N   UNL d   1      24.905 -16.554  -0.431  0.00  0.00    -0.262 N 
ATOM     14  C   UNL d   1      24.331 -17.634  -1.091  0.00  0.00     0.236 C 
ATOM     15  O   UNL d   1      24.267 -17.792  -2.307  0.00  0.00    -0.272 OA
ATOM     16  H   UNL d   1      25.229 -16.673   0.527  0.00  0.00     0.190 HD
BRANCH  14  17
ATOM     17  C   UNL d   1      23.839 -18.755  -0.219  0.00  0.00     0.109 C 
BRANCH  17  18
ATOM     18  C   UNL d   1      22.530 -18.253   0.407  0.00  0.00     0.046 C 
BRANCH  18  19
ATOM     19  C   UNL d   1      21.328 -18.943  -0.102  0.00  0.00    -0.050 A 
ATOM     20  C   UNL d   1      20.403 -19.557   0.636  0.00  0.00    -0.006 A 
ATOM     21  C   UNL d   1      20.245 -19.782   2.033  0.00  0.00     0.014 A 
ATOM     22  C   UNL d   1      19.405 -20.018  -0.342  0.00  0.00     0.038 A 
ATOM     23  C   UNL d   1      19.159 -20.449   2.447  0.00  0.00     0.001 A 
ATOM     24  C   UNL d   1      18.159 -20.931   1.506  0.00  0.00     0.002 A 
ATOM     25  C   UNL d   1      18.235 -20.749   0.173  0.00  0.00     0.030 A 
ATOM     26  N   UNL d   1      19.717 -19.700  -1.541  0.00  0.00    -0.385 N 
ATOM     27  C   UNL d   1      20.989 -18.959  -1.557  0.00  0.00     0.155 A 
ATOM     28  H   UNL d   1      19.153 -19.936  -2.353  0.00  0.00     0.160 HD
ENDBRANCH  18  19
ENDBRANCH  17  18
ENDBRANCH  14  17
ENDBRANCH  11  13
BRANCH   1  29
ATOM     29  S   UNL d   1      27.714 -15.970   0.635  0.00  0.00    -0.112 SA
BRANCH  29  30
ATOM     30  C   UNL d   1      28.096 -14.773   1.964  0.00  0.00     0.180 C 
BRANCH  30  31
ATOM     31  C   UNL d   1      28.758 -13.515   1.375  0.00  0.00     0.227 C 
ATOM     32  O   UNL d   1      29.685 -13.530   0.569  0.00  0.00    -0.273 OA
ATOM     33  N   UNL d   1      28.250 -12.292   1.730  0.00  0.00    -0.360 N 
ATOM     34  H   UNL d   1      28.744 -11.507   1.317  0.00  0.00     0.162 HD
BRANCH  33  35
ATOM     35  C   UNL d   1      27.127 -12.062   2.604  0.00  0.00     0.127 C 
BRANCH  35  36
ATOM     36  C   UNL d   1      27.461 -11.279   3.880  0.00  0.00     0.058 C 
BRANCH  36  37
ATOM     37  C   UNL d   1      28.079 -12.158   4.948  0.00  0.00    -0.057 C 
ATOM     38  C   UNL d   1      28.391 -13.493   4.662  0.00  0.00     0.007 C 
ATOM     39  C   UNL d   1      28.778 -14.359   5.689  0.00  0.00     0.001 C 
ATOM     40  C   UNL d   1      28.975 -13.875   6.980  0.00  0.00     0.000 C 
ATOM     41  C   UNL d   1      28.815 -12.521   7.242  0.00  0.00     0.001 C 
ATOM     42  C   UNL d   1      28.338 -11.679   6.243  0.00  0.00     0.007 C 
ENDBRANCH  36  37
ENDBRANCH  35  36
ENDBRANCH  33  35
ENDBRANCH  30  31
ENDBRANCH  29  30
ENDBRANCH   1  29
TORSDOF 10
ENDMDL
MODEL 4
REMARK VINA RESULT:    -9.625      5.274      8.098
REMARK INTER + INTRA:         -15.985
REMARK INTER:                 -12.608
REMARK INTRA:                  -3.377
REMARK CONF_INDEPENDENT:        2.983
REMARK UNBOUND:                -3.377
REMARK  10 active torsions:
REMARK  status: ('A' for Active; 'I' for Inactive)
REMARK    1  A    between atoms: C_2  and  C_3 
REMARK       I    between atoms: C_2  and  N_30 
REMARK    2  A    between atoms: C_3  and  S_4 
REMARK    3  A    between atoms: S_4  and  C_5 
REMARK    4  A    between atoms: N_15  and  N_16 
REMARK       I    between atoms: N_16  and  C_17 
REMARK    5  A    between atoms: C_17  and  C_19 
REMARK    6  A    between atoms: C_19  and  C_20 
REMARK    7  A    between atoms: C_20  and  C_21 
REMARK    8  A    between atoms: N_30  and  C_31 
REMARK    9  A    between atoms: C_31  and  C_32 
REMARK   10  A    between atoms: C_32  and  C_33 
ROOT
ATOM      1  C   UNL d   1      30.637 -16.433  -4.534  0.00  0.00     0.274 C 
ATOM      2  N   UNL d   1      30.258 -17.781  -4.159  0.00  0.00    -0.358 N 
ATOM      3  C   UNL d   1      30.709 -18.813  -4.982  0.00  0.00     0.046 A 
ATOM      4  C   UNL d   1      30.787 -20.141  -4.552  0.00  0.00     0.030 A 
ATOM      5  C   UNL d   1      31.075 -21.180  -5.458  0.00  0.00     0.002 A 
ATOM      6  C   UNL d   1      31.260 -20.915  -6.813  0.00  0.00     0.001 A 
ATOM      7  C   UNL d   1      31.219 -19.605  -7.250  0.00  0.00     0.019 A 
ATOM      8  C   UNL d   1      30.972 -18.574  -6.332  0.00  0.00     0.060 A 
ATOM      9  C   UNL d   1      30.951 -17.196  -6.823  0.00  0.00     0.277 C 
ATOM     10  O   UNL d   1      31.417 -17.002  -7.948  0.00  0.00    -0.266 OA
ATOM     11  N   UNL d   1      30.398 -16.242  -5.962  0.00  0.00    -0.221 N 
ATOM     12  H   UNL d   1      30.173 -17.959  -3.165  0.00  0.00     0.162 HD
ENDROOT
BRANCH  11  13
ATOM     13  N   UNL d   1      30.272 -14.876  -6.438  0.00  0.00    -0.262 N 
ATOM     14  C   UNL d   1      28.992 -14.384  -6.662  0.00  0.00     0.236 C 
ATOM     15  O   UNL d   1      27.953 -15.037  -6.664  0.00  0.00    -0.272 OA
ATOM     16  H   UNL d   1      30.996 -14.243  -6.103  0.00  0.00     0.190 HD
BRANCH  14  17
ATOM     17  C   UNL d   1      28.874 -12.892  -6.809  0.00  0.00     0.109 C 
BRANCH  17  18
ATOM     18  C   UNL d   1      27.405 -12.560  -6.512  0.00  0.00     0.046 C 
BRANCH  18  19
ATOM     19  C   UNL d   1      27.091 -12.508  -5.069  0.00  0.00    -0.050 A 
ATOM     20  C   UNL d   1      26.527 -13.480  -4.353  0.00  0.00    -0.006 A 
ATOM     21  C   UNL d   1      26.043 -14.781  -4.665  0.00  0.00     0.014 A 
ATOM     22  C   UNL d   1      26.491 -12.946  -2.982  0.00  0.00     0.038 A 
ATOM     23  C   UNL d   1      25.530 -15.521  -3.672  0.00  0.00     0.001 A 
ATOM     24  C   UNL d   1      25.467 -15.019  -2.306  0.00  0.00     0.002 A 
ATOM     25  C   UNL d   1      25.912 -13.803  -1.934  0.00  0.00     0.030 A 
ATOM     26  N   UNL d   1      26.992 -11.772  -2.905  0.00  0.00    -0.385 N 
ATOM     27  C   UNL d   1      27.454 -11.326  -4.230  0.00  0.00     0.155 A 
ATOM     28  H   UNL d   1      27.051 -11.238  -2.041  0.00  0.00     0.160 HD
ENDBRANCH  18  19
ENDBRANCH  17  18
ENDBRANCH  14  17
ENDBRANCH  11  13
BRANCH   1  29
ATOM     29  S   UNL d   1      29.776 -15.267  -3.443  0.00  0.00    -0.112 SA
BRANCH  29  30
ATOM     30  C   UNL d   1      28.538 -16.338  -2.627  0.00  0.00     0.180 C 
BRANCH  30  31
ATOM     31  C   UNL d   1      29.158 -17.031  -1.402  0.00  0.00     0.227 C 
ATOM     32  O   UNL d   1      30.355 -17.273  -1.271  0.00  0.00    -0.273 OA
ATOM     33  N   UNL d   1      28.330 -17.357  -0.357  0.00  0.00    -0.360 N 
ATOM     34  H   UNL d   1      28.803 -17.825   0.410  0.00  0.00     0.162 HD
BRANCH  33  35
ATOM     35  C   UNL d   1      26.914 -17.097  -0.284  0.00  0.00     0.127 C 
BRANCH  35  36
ATOM     36  C   UNL d   1      26.064 -18.306   0.126  0.00  0.00     0.058 C 
BRANCH  36  37
ATOM     37  C   UNL d   1      24.608 -18.142  -0.263  0.00  0.00    -0.057 C 
ATOM     38  C   UNL d   1      24.048 -16.861  -0.356  0.00  0.00     0.007 C 
ATOM     39  C   UNL d   1      22.669 -16.709  -0.523  0.00  0.00     0.001 C 
ATOM     40  C   UNL d   1      21.856 -17.824  -0.720  0.00  0.00     0.000 C 
ATOM     41  C   UNL d   1      22.425 -19.089  -0.781  0.00  0.00     0.001 C 
ATOM     42  C   UNL d   1      23.782 -19.248  -0.520  0.00  0.00     0.007 C 
ENDBRANCH  36  37
ENDBRANCH  35  36
ENDBRANCH  33  35
ENDBRANCH  30  31
ENDBRANCH  29  30
ENDBRANCH   1  29
TORSDOF 10
ENDMDL
MODEL 5
REMARK VINA RESULT:    -9.296      4.086      9.285
REMARK INTER + INTRA:         -16.085
REMARK INTER:                 -12.279
REMARK INTRA:                  -3.807
REMARK CONF_INDEPENDENT:        2.983
REMARK UNBOUND:                -3.807
REMARK  10 active torsions:
REMARK  status: ('A' for Active; 'I' for Inactive)
REMARK    1  A    between atoms: C_2  and  C_3 
REMARK       I    between atoms: C_2  and  N_30 
REMARK    2  A    between atoms: C_3  and  S_4 
REMARK    3  A    between atoms: S_4  and  C_5 
REMARK    4  A    between atoms: N_15  and  N_16 
REMARK       I    between atoms: N_16  and  C_17 
REMARK    5  A    between atoms: C_17  and  C_19 
REMARK    6  A    between atoms: C_19  and  C_20 
REMARK    7  A    between atoms: C_20  and  C_21 
REMARK    8  A    between atoms: N_30  and  C_31 
REMARK    9  A    between atoms: C_31  and  C_32 
REMARK   10  A    between atoms: C_32  and  C_33 
ROOT
ATOM      1  C   UNL d   1      26.457 -14.447  -0.222  0.00  0.00     0.274 C 
ATOM      2  N   UNL d   1      27.270 -13.389  -0.789  0.00  0.00    -0.358 N 
ATOM      3  C   UNL d   1      26.771 -12.753  -1.927  0.00  0.00     0.046 A 
ATOM      4  C   UNL d   1      27.204 -11.488  -2.334  0.00  0.00     0.030 A 
ATOM      5  C   UNL d   1      26.813 -10.955  -3.578  0.00  0.00     0.002 A 
ATOM      6  C   UNL d   1      26.008 -11.687  -4.448  0.00  0.00     0.001 A 
ATOM      7  C   UNL d   1      25.543 -12.926  -4.046  0.00  0.00     0.019 A 
ATOM      8  C   UNL d   1      25.906 -13.429  -2.790  0.00  0.00     0.060 A 
ATOM      9  C   UNL d   1      25.385 -14.736  -2.387  0.00  0.00     0.277 C 
ATOM     10  O   UNL d   1      24.451 -15.188  -3.053  0.00  0.00    -0.266 OA
ATOM     11  N   UNL d   1      26.008 -15.338  -1.289  0.00  0.00    -0.221 N 
ATOM     12  H   UNL d   1      27.812 -12.842  -0.131  0.00  0.00     0.162 HD
ENDROOT
BRANCH  11  13
ATOM     13  N   UNL d   1      25.588 -16.674  -0.905  0.00  0.00    -0.262 N 
ATOM     14  C   UNL d   1      24.243 -16.873  -0.620  0.00  0.00     0.236 C 
ATOM     15  O   UNL d   1      23.392 -15.998  -0.491  0.00  0.00    -0.272 OA
ATOM     16  H   UNL d   1      26.120 -17.426  -1.340  0.00  0.00     0.190 HD
BRANCH  14  17
ATOM     17  C   UNL d   1      23.781 -18.303  -0.573  0.00  0.00     0.109 C 
BRANCH  17  18
ATOM     18  C   UNL d   1      22.616 -18.331   0.426  0.00  0.00     0.046 C 
BRANCH  18  19
ATOM     19  C   UNL d   1      21.397 -18.974  -0.106  0.00  0.00    -0.050 A 
ATOM     20  C   UNL d   1      20.448 -19.573   0.613  0.00  0.00    -0.006 A 
ATOM     21  C   UNL d   1      20.272 -19.819   2.004  0.00  0.00     0.014 A 
ATOM     22  C   UNL d   1      19.445 -19.986  -0.382  0.00  0.00     0.038 A 
ATOM     23  C   UNL d   1      19.162 -20.460   2.397  0.00  0.00     0.001 A 
ATOM     24  C   UNL d   1      18.155 -20.894   1.439  0.00  0.00     0.002 A 
ATOM     25  C   UNL d   1      18.249 -20.690   0.110  0.00  0.00     0.030 A 
ATOM     26  N   UNL d   1      19.777 -19.655  -1.572  0.00  0.00    -0.385 N 
ATOM     27  C   UNL d   1      21.071 -18.953  -1.564  0.00  0.00     0.155 A 
ATOM     28  H   UNL d   1      19.212 -19.859  -2.393  0.00  0.00     0.160 HD
ENDBRANCH  18  19
ENDBRANCH  17  18
ENDBRANCH  14  17
ENDBRANCH  11  13
BRANCH   1  29
ATOM     29  S   UNL d   1      27.397 -15.245   1.108  0.00  0.00    -0.112 SA
BRANCH  29  30
ATOM     30  C   UNL d   1      28.939 -15.737   0.256  0.00  0.00     0.180 C 
BRANCH  30  31
ATOM     31  C   UNL d   1      28.661 -16.887  -0.727  0.00  0.00     0.227 C 
ATOM     32  O   UNL d   1      27.929 -17.844  -0.489  0.00  0.00    -0.273 OA
ATOM     33  N   UNL d   1      29.223 -16.817  -1.977  0.00  0.00    -0.360 N 
ATOM     34  H   UNL d   1      29.010 -17.615  -2.567  0.00  0.00     0.162 HD
BRANCH  33  35
ATOM     35  C   UNL d   1      30.052 -15.748  -2.475  0.00  0.00     0.127 C 
BRANCH  35  36
ATOM     36  C   UNL d   1      29.291 -14.463  -2.828  0.00  0.00     0.058 C 
BRANCH  36  37
ATOM     37  C   UNL d   1      29.129 -14.285  -4.324  0.00  0.00    -0.057 C 
ATOM     38  C   UNL d   1      29.375 -13.036  -4.910  0.00  0.00     0.007 C 
ATOM     39  C   UNL d   1      29.043 -12.813  -6.250  0.00  0.00     0.001 C 
ATOM     40  C   UNL d   1      28.580 -13.859  -7.044  0.00  0.00     0.000 C 
ATOM     41  C   UNL d   1      28.477 -15.137  -6.510  0.00  0.00     0.001 C 
ATOM     42  C   UNL d   1      28.716 -15.338  -5.155  0.00  0.00     0.007 C 
ENDBRANCH  36  37
ENDBRANCH  35  36
ENDBRANCH  33  35
ENDBRANCH  30  31
ENDBRANCH  29  30
ENDBRANCH   1  29
TORSDOF 10
ENDMDL
MODEL 6
REMARK VINA RESULT:    -9.105      5.093     10.064
REMARK INTER + INTRA:         -15.416
REMARK INTER:                 -12.088
REMARK INTRA:                  -3.328
REMARK CONF_INDEPENDENT:        2.983
REMARK UNBOUND:                -3.328
REMARK  10 active torsions:
REMARK  status: ('A' for Active; 'I' for Inactive)
REMARK    1  A    between atoms: C_2  and  C_3 
REMARK       I    between atoms: C_2  and  N_30 
REMARK    2  A    between atoms: C_3  and  S_4 
REMARK    3  A    between atoms: S_4  and  C_5 
REMARK    4  A    between atoms: N_15  and  N_16 
REMARK       I    between atoms: N_16  and  C_17 
REMARK    5  A    between atoms: C_17  and  C_19 
REMARK    6  A    between atoms: C_19  and  C_20 
REMARK    7  A    between atoms: C_20  and  C_21 
REMARK    8  A    between atoms: N_30  and  C_31 
REMARK    9  A    between atoms: C_31  and  C_32 
REMARK   10  A    between atoms: C_32  and  C_33 
ROOT
ATOM      1  C   UNL d   1      26.263 -15.457  -0.808  0.00  0.00     0.274 C 
ATOM      2  N   UNL d   1      24.912 -15.568  -1.319  0.00  0.00    -0.358 N 
ATOM      3  C   UNL d   1      24.139 -16.621  -0.830  0.00  0.00     0.046 A 
ATOM      4  C   UNL d   1      22.742 -16.625  -0.895  0.00  0.00     0.030 A 
ATOM      5  C   UNL d   1      22.005 -17.777  -0.557  0.00  0.00     0.002 A 
ATOM      6  C   UNL d   1      22.650 -18.952  -0.177  0.00  0.00     0.001 A 
ATOM      7  C   UNL d   1      24.028 -18.955  -0.075  0.00  0.00     0.019 A 
ATOM      8  C   UNL d   1      24.749 -17.792  -0.375  0.00  0.00     0.060 A 
ATOM      9  C   UNL d   1      26.206 -17.823  -0.243  0.00  0.00     0.277 C 
ATOM     10  O   UNL d   1      26.685 -18.773   0.380  0.00  0.00    -0.266 OA
ATOM     11  N   UNL d   1      26.904 -16.769  -0.844  0.00  0.00    -0.221 N 
ATOM     12  H   UNL d   1      24.449 -14.695  -1.546  0.00  0.00     0.162 HD
ENDROOT
BRANCH  11  13
ATOM     13  N   UNL d   1      28.356 -16.801  -0.817  0.00  0.00    -0.262 N 
ATOM     14  C   UNL d   1      29.028 -16.670  -2.026  0.00  0.00     0.236 C 
ATOM     15  O   UNL d   1      28.523 -16.701  -3.145  0.00  0.00    -0.272 OA
ATOM     16  H   UNL d   1      28.772 -16.413   0.027  0.00  0.00     0.190 HD
BRANCH  14  17
ATOM     17  C   UNL d   1      30.495 -16.357  -1.936  0.00  0.00     0.109 C 
BRANCH  17  18
ATOM     18  C   UNL d   1      31.083 -16.714  -3.309  0.00  0.00     0.046 C 
BRANCH  18  19
ATOM     19  C   UNL d   1      31.125 -18.167  -3.574  0.00  0.00    -0.050 A 
ATOM     20  C   UNL d   1      31.021 -18.750  -4.768  0.00  0.00    -0.006 A 
ATOM     21  C   UNL d   1      30.829 -18.263  -6.091  0.00  0.00     0.014 A 
ATOM     22  C   UNL d   1      31.183 -20.186  -4.485  0.00  0.00     0.038 A 
ATOM     23  C   UNL d   1      30.780 -19.152  -7.092  0.00  0.00     0.001 A 
ATOM     24  C   UNL d   1      30.923 -20.580  -6.847  0.00  0.00     0.002 A 
ATOM     25  C   UNL d   1      31.116 -21.115  -5.625  0.00  0.00     0.030 A 
ATOM     26  N   UNL d   1      31.367 -20.418  -3.241  0.00  0.00    -0.385 N 
ATOM     27  C   UNL d   1      31.363 -19.157  -2.481  0.00  0.00     0.155 A 
ATOM     28  H   UNL d   1      31.494 -21.350  -2.853  0.00  0.00     0.160 HD
ENDBRANCH  18  19
ENDBRANCH  17  18
ENDBRANCH  14  17
ENDBRANCH  11  13
BRANCH   1  29
ATOM     29  S   UNL d   1      27.123 -14.152  -1.730  0.00  0.00    -0.112 SA
BRANCH  29  30
ATOM     30  C   UNL d   1      26.681 -14.541  -3.462  0.00  0.00     0.180 C 
BRANCH  30  31
ATOM     31  C   UNL d   1      25.429 -13.752  -3.882  0.00  0.00     0.227 C 
ATOM     32  O   UNL d   1      24.276 -14.084  -3.617  0.00  0.00    -0.273 OA
ATOM     33  N   UNL d   1      25.607 -12.569  -4.552  0.00  0.00    -0.360 N 
ATOM     34  H   UNL d   1      24.739 -12.110  -4.811  0.00  0.00     0.162 HD
BRANCH  33  35
ATOM     35  C   UNL d   1      26.873 -11.972  -4.896  0.00  0.00     0.127 C 
BRANCH  35  36
ATOM     36  C   UNL d   1      27.315 -12.203  -6.347  0.00  0.00     0.058 C 
BRANCH  36  37
ATOM     37  C   UNL d   1      28.435 -13.217  -6.452  0.00  0.00    -0.057 C 
ATOM     38  C   UNL d   1      29.701 -12.819  -6.902  0.00  0.00     0.007 C 
ATOM     39  C   UNL d   1      30.679 -13.777  -7.185  0.00  0.00     0.001 C 
ATOM     40  C   UNL d   1      30.447 -15.122  -6.906  0.00  0.00     0.000 C 
ATOM     41  C   UNL d   1      29.251 -15.509  -6.318  0.00  0.00     0.001 C 
ATOM     42  C   UNL d   1      28.243 -14.570  -6.125  0.00  0.00     0.007 C 
ENDBRANCH  36  37
ENDBRANCH  35  36
ENDBRANCH  33  35
ENDBRANCH  30  31
ENDBRANCH  29  30
ENDBRANCH   1  29
TORSDOF 10
ENDMDL
MODEL 7
REMARK VINA RESULT:    -8.949      2.864      7.355
REMARK INTER + INTRA:         -15.826
REMARK INTER:                 -11.932
REMARK INTRA:                  -3.894
REMARK CONF_INDEPENDENT:        2.983
REMARK UNBOUND:                -3.894
REMARK  10 active torsions:
REMARK  status: ('A' for Active; 'I' for Inactive)
REMARK    1  A    between atoms: C_2  and  C_3 
REMARK       I    between atoms: C_2  and  N_30 
REMARK    2  A    between atoms: C_3  and  S_4 
REMARK    3  A    between atoms: S_4  and  C_5 
REMARK    4  A    between atoms: N_15  and  N_16 
REMARK       I    between atoms: N_16  and  C_17 
REMARK    5  A    between atoms: C_17  and  C_19 
REMARK    6  A    between atoms: C_19  and  C_20 
REMARK    7  A    between atoms: C_20  and  C_21 
REMARK    8  A    between atoms: N_30  and  C_31 
REMARK    9  A    between atoms: C_31  and  C_32 
REMARK   10  A    between atoms: C_32  and  C_33 
ROOT
ATOM      1  C   UNL d   1      25.989 -15.402  -0.519  0.00  0.00     0.274 C 
ATOM      2  N   UNL d   1      24.742 -15.631  -1.222  0.00  0.00    -0.358 N 
ATOM      3  C   UNL d   1      23.947 -16.683  -0.766  0.00  0.00     0.046 A 
ATOM      4  C   UNL d   1      22.580 -16.772  -1.047  0.00  0.00     0.030 A 
ATOM      5  C   UNL d   1      21.849 -17.932  -0.725  0.00  0.00     0.002 A 
ATOM      6  C   UNL d   1      22.475 -19.033  -0.145  0.00  0.00     0.001 A 
ATOM      7  C   UNL d   1      23.818 -18.950   0.169  0.00  0.00     0.019 A 
ATOM      8  C   UNL d   1      24.527 -17.776  -0.118  0.00  0.00     0.060 A 
ATOM      9  C   UNL d   1      25.944 -17.713   0.241  0.00  0.00     0.277 C 
ATOM     10  O   UNL d   1      26.357 -18.580   1.014  0.00  0.00    -0.266 OA
ATOM     11  N   UNL d   1      26.683 -16.674  -0.336  0.00  0.00    -0.221 N 
ATOM     12  H   UNL d   1      24.284 -14.808  -1.596  0.00  0.00     0.162 HD
ENDROOT
BRANCH  11  13
ATOM     13  N   UNL d   1      28.112 -16.621  -0.081  0.00  0.00    -0.262 N 
ATOM     14  C   UNL d   1      28.961 -16.526  -1.177  0.00  0.00     0.236 C 
ATOM     15  O   UNL d   1      28.642 -16.653  -2.355  0.00  0.00    -0.272 OA
ATOM     16  H   UNL d   1      28.369 -16.160   0.789  0.00  0.00     0.190 HD
BRANCH  14  17
ATOM     17  C   UNL d   1      30.379 -16.124  -0.881  0.00  0.00     0.109 C 
BRANCH  17  18
ATOM     18  C   UNL d   1      30.301 -14.687  -0.345  0.00  0.00     0.046 C 
BRANCH  18  19
ATOM     19  C   UNL d   1      30.423 -14.596   1.124  0.00  0.00    -0.050 A 
ATOM     20  C   UNL d   1      29.445 -14.290   1.976  0.00  0.00    -0.006 A 
ATOM     21  C   UNL d   1      28.072 -13.949   1.820  0.00  0.00     0.014 A 
ATOM     22  C   UNL d   1      30.073 -14.395   3.303  0.00  0.00     0.038 A 
ATOM     23  C   UNL d   1      27.352 -13.703   2.923  0.00  0.00     0.001 A 
ATOM     24  C   UNL d   1      27.945 -13.785   4.251  0.00  0.00     0.002 A 
ATOM     25  C   UNL d   1      29.233 -14.110   4.478  0.00  0.00     0.030 A 
ATOM     26  N   UNL d   1      31.304 -14.734   3.232  0.00  0.00    -0.385 N 
ATOM     27  C   UNL d   1      31.702 -14.918   1.826  0.00  0.00     0.155 A 
ATOM     28  H   UNL d   1      31.906 -14.852   4.044  0.00  0.00     0.160 HD
ENDBRANCH  18  19
ENDBRANCH  17  18
ENDBRANCH  14  17
ENDBRANCH  11  13
BRANCH   1  29
ATOM     29  S   UNL d   1      26.928 -14.131  -1.410  0.00  0.00    -0.112 SA
BRANCH  29  30
ATOM     30  C   UNL d   1      26.658 -14.599  -3.157  0.00  0.00     0.180 C 
BRANCH  30  31
ATOM     31  C   UNL d   1      25.434 -13.860  -3.724  0.00  0.00     0.227 C 
ATOM     32  O   UNL d   1      24.281 -14.283  -3.674  0.00  0.00    -0.273 OA
ATOM     33  N   UNL d   1      25.627 -12.620  -4.277  0.00  0.00    -0.360 N 
ATOM     34  H   UNL d   1      24.780 -12.198  -4.644  0.00  0.00     0.162 HD
BRANCH  33  35
ATOM     35  C   UNL d   1      26.884 -11.920  -4.369  0.00  0.00     0.127 C 
BRANCH  35  36
ATOM     36  C   UNL d   1      27.684 -12.210  -5.645  0.00  0.00     0.058 C 
BRANCH  36  37
ATOM     37  C   UNL d   1      28.616 -13.394  -5.481  0.00  0.00    -0.057 C 
ATOM     38  C   UNL d   1      28.567 -14.454  -6.396  0.00  0.00     0.007 C 
ATOM     39  C   UNL d   1      29.281 -15.630  -6.146  0.00  0.00     0.001 C 
ATOM     40  C   UNL d   1      30.139 -15.713  -5.052  0.00  0.00     0.000 C 
ATOM     41  C   UNL d   1      30.309 -14.612  -4.223  0.00  0.00     0.001 C 
ATOM     42  C   UNL d   1      29.528 -13.477  -4.417  0.00  0.00     0.007 C 
ENDBRANCH  36  37
ENDBRANCH  35  36
ENDBRANCH  33  35
ENDBRANCH  30  31
ENDBRANCH  29  30
ENDBRANCH   1  29
TORSDOF 10
ENDMDL
MODEL 8
REMARK VINA RESULT:    -8.203      3.243      4.962
REMARK INTER + INTRA:         -15.436
REMARK INTER:                 -11.186
REMARK INTRA:                  -4.250
REMARK CONF_INDEPENDENT:        2.983
REMARK UNBOUND:                -4.250
REMARK  10 active torsions:
REMARK  status: ('A' for Active; 'I' for Inactive)
REMARK    1  A    between atoms: C_2  and  C_3 
REMARK       I    between atoms: C_2  and  N_30 
REMARK    2  A    between atoms: C_3  and  S_4 
REMARK    3  A    between atoms: S_4  and  C_5 
REMARK    4  A    between atoms: N_15  and  N_16 
REMARK       I    between atoms: N_16  and  C_17 
REMARK    5  A    between atoms: C_17  and  C_19 
REMARK    6  A    between atoms: C_19  and  C_20 
REMARK    7  A    between atoms: C_20  and  C_21 
REMARK    8  A    between atoms: N_30  and  C_31 
REMARK    9  A    between atoms: C_31  and  C_32 
REMARK   10  A    between atoms: C_32  and  C_33 
ROOT
ATOM      1  C   UNL d   1      28.366 -14.100  -2.848  0.00  0.00     0.274 C 
ATOM      2  N   UNL d   1      29.161 -14.937  -3.724  0.00  0.00    -0.358 N 
ATOM      3  C   UNL d   1      29.662 -16.120  -3.180  0.00  0.00     0.046 A 
ATOM      4  C   UNL d   1      30.073 -17.198  -3.969  0.00  0.00     0.030 A 
ATOM      5  C   UNL d   1      30.737 -18.302  -3.398  0.00  0.00     0.002 A 
ATOM      6  C   UNL d   1      31.026 -18.335  -2.036  0.00  0.00     0.001 A 
ATOM      7  C   UNL d   1      30.597 -17.293  -1.235  0.00  0.00     0.019 A 
ATOM      8  C   UNL d   1      29.902 -16.219  -1.808  0.00  0.00     0.060 A 
ATOM      9  C   UNL d   1      29.447 -15.139  -0.932  0.00  0.00     0.277 C 
ATOM     10  O   UNL d   1      29.460 -15.367   0.280  0.00  0.00    -0.266 OA
ATOM     11  N   UNL d   1      29.047 -13.956  -1.564  0.00  0.00    -0.221 N 
ATOM     12  H   UNL d   1      28.902 -14.930  -4.704  0.00  0.00     0.162 HD
ENDROOT
BRANCH  11  13
ATOM     13  N   UNL d   1      28.672 -12.825  -0.735  0.00  0.00    -0.262 N 
ATOM     14  C   UNL d   1      27.649 -13.009   0.186  0.00  0.00     0.236 C 
ATOM     15  O   UNL d   1      26.906 -13.983   0.261  0.00  0.00    -0.272 OA
ATOM     16  H   UNL d   1      29.439 -12.194  -0.507  0.00  0.00     0.190 HD
BRANCH  14  17
ATOM     17  C   UNL d   1      27.521 -11.956   1.252  0.00  0.00     0.109 C 
BRANCH  17  18
ATOM     18  C   UNL d   1      26.675 -12.590   2.365  0.00  0.00     0.046 C 
BRANCH  18  19
ATOM     19  C   UNL d   1      27.462 -13.399   3.318  0.00  0.00    -0.050 A 
ATOM     20  C   UNL d   1      27.886 -13.006   4.518  0.00  0.00    -0.006 A 
ATOM     21  C   UNL d   1      27.780 -11.792   5.253  0.00  0.00     0.014 A 
ATOM     22  C   UNL d   1      28.560 -14.192   5.071  0.00  0.00     0.038 A 
ATOM     23  C   UNL d   1      28.331 -11.741   6.474  0.00  0.00     0.001 A 
ATOM     24  C   UNL d   1      29.016 -12.892   7.047  0.00  0.00     0.002 A 
ATOM     25  C   UNL d   1      29.148 -14.075   6.416  0.00  0.00     0.030 A 
ATOM     26  N   UNL d   1      28.528 -15.187   4.268  0.00  0.00    -0.385 N 
ATOM     27  C   UNL d   1      27.814 -14.823   3.033  0.00  0.00     0.155 A 
ATOM     28  H   UNL d   1      28.946 -16.092   4.473  0.00  0.00     0.160 HD
ENDBRANCH  18  19
ENDBRANCH  17  18
ENDBRANCH  14  17
ENDBRANCH  11  13
BRANCH   1  29
ATOM     29  S   UNL d   1      28.004 -12.545  -3.709  0.00  0.00    -0.112 SA
BRANCH  29  30
ATOM     30  C   UNL d   1      26.580 -13.003  -4.762  0.00  0.00     0.180 C 
BRANCH  30  31
ATOM     31  C   UNL d   1      26.476 -14.534  -4.881  0.00  0.00     0.227 C 
ATOM     32  O   UNL d   1      27.037 -15.204  -5.744  0.00  0.00    -0.273 OA
ATOM     33  N   UNL d   1      25.753 -15.207  -3.929  0.00  0.00    -0.360 N 
ATOM     34  H   UNL d   1      25.715 -16.211  -4.078  0.00  0.00     0.162 HD
BRANCH  33  35
ATOM     35  C   UNL d   1      25.080 -14.616  -2.800  0.00  0.00     0.127 C 
BRANCH  35  36
ATOM     36  C   UNL d   1      24.176 -15.580  -2.020  0.00  0.00     0.058 C 
BRANCH  36  37
ATOM     37  C   UNL d   1      24.971 -16.560  -1.181  0.00  0.00    -0.057 C 
ATOM     38  C   UNL d   1      24.307 -17.433  -0.309  0.00  0.00     0.007 C 
ATOM     39  C   UNL d   1      25.036 -18.200   0.605  0.00  0.00     0.001 C 
ATOM     40  C   UNL d   1      26.429 -18.196   0.574  0.00  0.00     0.000 C 
ATOM     41  C   UNL d   1      27.095 -17.449  -0.388  0.00  0.00     0.001 C 
ATOM     42  C   UNL d   1      26.373 -16.613  -1.233  0.00  0.00     0.007 C 
ENDBRANCH  36  37
ENDBRANCH  35  36
ENDBRANCH  33  35
ENDBRANCH  30  31
ENDBRANCH  29  30
ENDBRANCH   1  29
TORSDOF 10
ENDMDL
MODEL 9
REMARK VINA RESULT:    -8.091      2.852      7.290
REMARK INTER + INTRA:         -15.501
REMARK INTER:                 -11.074
REMARK INTRA:                  -4.427
REMARK CONF_INDEPENDENT:        2.983
REMARK UNBOUND:                -4.427
REMARK  10 active torsions:
REMARK  status: ('A' for Active; 'I' for Inactive)
REMARK    1  A    between atoms: C_2  and  C_3 
REMARK       I    between atoms: C_2  and  N_30 
REMARK    2  A    between atoms: C_3  and  S_4 
REMARK    3  A    between atoms: S_4  and  C_5 
REMARK    4  A    between atoms: N_15  and  N_16 
REMARK       I    between atoms: N_16  and  C_17 
REMARK    5  A    between atoms: C_17  and  C_19 
REMARK    6  A    between atoms: C_19  and  C_20 
REMARK    7  A    between atoms: C_20  and  C_21 
REMARK    8  A    between atoms: N_30  and  C_31 
REMARK    9  A    between atoms: C_31  and  C_32 
REMARK   10  A    between atoms: C_32  and  C_33 
ROOT
ATOM      1  C   UNL d   1      26.119 -15.414  -0.506  0.00  0.00     0.274 C 
ATOM      2  N   UNL d   1      24.910 -15.647  -1.269  0.00  0.00    -0.358 N 
ATOM      3  C   UNL d   1      24.088 -16.691  -0.843  0.00  0.00     0.046 A 
ATOM      4  C   UNL d   1      22.738 -16.778  -1.192  0.00  0.00     0.030 A 
ATOM      5  C   UNL d   1      21.986 -17.932  -0.895  0.00  0.00     0.002 A 
ATOM      6  C   UNL d   1      22.577 -19.028  -0.272  0.00  0.00     0.001 A 
ATOM      7  C   UNL d   1      23.903 -18.946   0.111  0.00  0.00     0.019 A 
ATOM      8  C   UNL d   1      24.630 -17.778  -0.154  0.00  0.00     0.060 A 
ATOM      9  C   UNL d   1      26.027 -17.716   0.277  0.00  0.00     0.277 C 
ATOM     10  O   UNL d   1      26.397 -18.575   1.080  0.00  0.00    -0.266 OA
ATOM     11  N   UNL d   1      26.799 -16.686  -0.273  0.00  0.00    -0.221 N 
ATOM     12  H   UNL d   1      24.475 -14.827  -1.675  0.00  0.00     0.162 HD
ENDROOT
BRANCH  11  13
ATOM     13  N   UNL d   1      28.212 -16.635   0.054  0.00  0.00    -0.262 N 
ATOM     14  C   UNL d   1      29.117 -16.548  -0.997  0.00  0.00     0.236 C 
ATOM     15  O   UNL d   1      28.859 -16.681  -2.190  0.00  0.00    -0.272 OA
ATOM     16  H   UNL d   1      28.427 -16.169   0.934  0.00  0.00     0.190 HD
BRANCH  14  17
ATOM     17  C   UNL d   1      30.519 -16.147  -0.631  0.00  0.00     0.109 C 
BRANCH  17  18
ATOM     18  C   UNL d   1      30.422 -14.697  -0.136  0.00  0.00     0.046 C 
BRANCH  18  19
ATOM     19  C   UNL d   1      30.442 -14.572   1.336  0.00  0.00    -0.050 A 
ATOM     20  C   UNL d   1      29.403 -14.263   2.111  0.00  0.00    -0.006 A 
ATOM     21  C   UNL d   1      28.039 -13.948   1.853  0.00  0.00     0.014 A 
ATOM     22  C   UNL d   1      29.940 -14.329   3.480  0.00  0.00     0.038 A 
ATOM     23  C   UNL d   1      27.241 -13.689   2.899  0.00  0.00     0.001 A 
ATOM     24  C   UNL d   1      27.742 -13.732   4.266  0.00  0.00     0.002 A 
ATOM     25  C   UNL d   1      29.016 -14.031   4.587  0.00  0.00     0.030 A 
ATOM     26  N   UNL d   1      31.177 -14.650   3.501  0.00  0.00    -0.385 N 
ATOM     27  C   UNL d   1      31.674 -14.859   2.131  0.00  0.00     0.155 A 
ATOM     28  H   UNL d   1      31.723 -14.740   4.355  0.00  0.00     0.160 HD
ENDBRANCH  18  19
ENDBRANCH  17  18
ENDBRANCH  14  17
ENDBRANCH  11  13
BRANCH   1  29
ATOM     29  S   UNL d   1      27.108 -14.156  -1.362  0.00  0.00    -0.112 SA
BRANCH  29  30
ATOM     30  C   UNL d   1      26.847 -14.584  -3.121  0.00  0.00     0.180 C 
BRANCH  30  31
ATOM     31  C   UNL d   1      25.583 -13.890  -3.656  0.00  0.00     0.227 C 
ATOM     32  O   UNL d   1      24.504 -14.450  -3.833  0.00  0.00    -0.273 OA
ATOM     33  N   UNL d   1      25.643 -12.542  -3.904  0.00  0.00    -0.360 N 
ATOM     34  H   UNL d   1      24.779 -12.154  -4.269  0.00  0.00     0.162 HD
BRANCH  33  35
ATOM     35  C   UNL d   1      26.788 -11.692  -3.696  0.00  0.00     0.127 C 
BRANCH  35  36
ATOM     36  C   UNL d   1      26.655 -10.720  -2.518  0.00  0.00     0.058 C 
BRANCH  36  37
ATOM     37  C   UNL d   1      27.711 -10.955  -1.457  0.00  0.00    -0.057 C 
ATOM     38  C   UNL d   1      27.419 -10.699  -0.110  0.00  0.00     0.007 C 
ATOM     39  C   UNL d   1      28.439 -10.727   0.846  0.00  0.00     0.001 C 
ATOM     40  C   UNL d   1      29.725 -11.128   0.492  0.00  0.00     0.000 C 
ATOM     41  C   UNL d   1      29.988 -11.530  -0.811  0.00  0.00     0.001 C 
ATOM     42  C   UNL d   1      28.999 -11.410  -1.782  0.00  0.00     0.007 C 
ENDBRANCH  36  37
ENDBRANCH  35  36
ENDBRANCH  33  35
ENDBRANCH  30  31
ENDBRANCH  29  30
ENDBRANCH   1  29
TORSDOF 10
ENDMDL
