MODEL 1
REMARK VINA RESULT:    -7.719      0.000      0.000
REMARK INTER + INTRA:          -9.947
REMARK INTER:                  -9.210
REMARK INTRA:                  -0.737
REMARK CONF_INDEPENDENT:        1.492
REMARK UNBOUND:                -0.737
REMARK  5 active torsions:
REMARK  status: ('A' for Active; 'I' for Inactive)
REMARK    1  A    between atoms: C_2  and  N_5 
REMARK       I    between atoms: N_5  and  C_6 
REMARK    2  A    between atoms: C_6  and  C_8 
REMARK    3  A    between atoms: C_11  and  N_12 
REMARK       I    between atoms: N_12  and  C_13 
REMARK    4  A    between atoms: C_13  and  C_15 
REMARK    5  A    between atoms: C_19  and  N_20 
ROOT
ATOM      1  C   UNL d   1      22.224 -18.411  -0.584  0.00  0.00     0.032 A 
ATOM      2  C   UNL d   1      23.498 -18.994  -0.544  0.00  0.00     0.019 A 
ATOM      3  C   UNL d   1      24.640 -18.221  -0.847  0.00  0.00     0.030 A 
ATOM      4  C   UNL d   1      24.500 -16.880  -1.236  0.00  0.00     0.035 A 
ATOM      5  C   UNL d   1      23.220 -16.319  -1.215  0.00  0.00     0.030 A 
ATOM      6  C   UNL d   1      22.094 -17.066  -0.894  0.00  0.00     0.019 A 
ENDROOT
BRANCH   4   7
ATOM      7  N   UNL d   1      25.628 -16.131  -1.669  0.00  0.00    -0.323 N 
ATOM      8  C   UNL d   1      25.606 -15.183  -2.690  0.00  0.00     0.256 C 
ATOM      9  O   UNL d   1      24.634 -14.798  -3.336  0.00  0.00    -0.267 OA
ATOM     10  H   UNL d   1      26.514 -16.347  -1.225  0.00  0.00     0.169 HD
BRANCH   8  11
ATOM     11  C   UNL d   1      26.892 -14.578  -3.084  0.00  0.00     0.034 A 
ATOM     12  C   UNL d   1      27.537 -13.699  -2.196  0.00  0.00     0.017 A 
ATOM     13  C   UNL d   1      28.668 -12.987  -2.604  0.00  0.00     0.003 A 
ATOM     14  C   UNL d   1      29.182 -13.181  -3.886  0.00  0.00     0.036 A 
ATOM     15  C   UNL d   1      28.513 -14.036  -4.776  0.00  0.00     0.103 A 
ATOM     16  C   UNL d   1      27.362 -14.731  -4.386  0.00  0.00     0.053 A 
BRANCH  15  17
ATOM     17  N   UNL d   1      28.995 -14.181  -6.152  0.00  0.00    -0.116 N 
ATOM     18  O   UNL d   1      29.709 -13.280  -6.613  0.00  0.00    -0.532 OA
ATOM     19  O   UNL d   1      28.659 -15.202  -6.770  0.00  0.00    -0.532 OA
ENDBRANCH  15  17
ENDBRANCH   8  11
ENDBRANCH   4   7
BRANCH   1  20
ATOM     20  C   UNL d   1      21.011 -19.147  -0.178  0.00  0.00     0.252 C 
ATOM     21  N   UNL d   1      20.819 -19.319   1.185  0.00  0.00    -0.349 N 
ATOM     22  H   UNL d   1      21.465 -18.876   1.828  0.00  0.00     0.163 HD
ATOM     23  O   UNL d   1      20.272 -19.580  -1.060  0.00  0.00    -0.268 OA
BRANCH  21  24
ATOM     24  C   UNL d   1      19.683 -20.067   1.750  0.00  0.00     0.022 C 
ATOM     25  C   UNL d   1      18.405 -19.202   1.733  0.00  0.00     0.037 C 
ATOM     26  C   UNL d   1      19.972 -20.450   3.209  0.00  0.00     0.037 C 
ATOM     27  C   UNL d   1      19.413 -21.321   0.906  0.00  0.00     0.037 C 
ENDBRANCH  21  24
ENDBRANCH   1  20
TORSDOF 5
ENDMDL
MODEL 2
REMARK VINA RESULT:    -7.173      7.489      8.948
REMARK INTER + INTRA:          -9.450
REMARK INTER:                  -8.665
REMARK INTRA:                  -0.785
REMARK CONF_INDEPENDENT:        1.492
REMARK UNBOUND:                -0.785
REMARK  5 active torsions:
REMARK  status: ('A' for Active; 'I' for Inactive)
REMARK    1  A    between atoms: C_2  and  N_5 
REMARK       I    between atoms: N_5  and  C_6 
REMARK    2  A    between atoms: C_6  and  C_8 
REMARK    3  A    between atoms: C_11  and  N_12 
REMARK       I    between atoms: N_12  and  C_13 
REMARK    4  A    between atoms: C_13  and  C_15 
REMARK    5  A    between atoms: C_19  and  N_20 
ROOT
ATOM      1  C   UNL d   1      28.616 -13.747   6.147  0.00  0.00     0.032 A 
ATOM      2  C   UNL d   1      29.759 -14.151   5.443  0.00  0.00     0.019 A 
ATOM      3  C   UNL d   1      29.671 -14.452   4.067  0.00  0.00     0.030 A 
ATOM      4  C   UNL d   1      28.432 -14.396   3.410  0.00  0.00     0.035 A 
ATOM      5  C   UNL d   1      27.326 -13.941   4.132  0.00  0.00     0.030 A 
ATOM      6  C   UNL d   1      27.407 -13.618   5.480  0.00  0.00     0.019 A 
ENDROOT
BRANCH   4   7
ATOM      7  N   UNL d   1      28.309 -14.823   2.061  0.00  0.00    -0.323 N 
ATOM      8  C   UNL d   1      27.375 -14.329   1.154  0.00  0.00     0.256 C 
ATOM      9  O   UNL d   1      26.556 -13.430   1.334  0.00  0.00    -0.267 OA
ATOM     10  H   UNL d   1      28.924 -15.574   1.764  0.00  0.00     0.169 HD
BRANCH   8  11
ATOM     11  C   UNL d   1      27.315 -14.962  -0.177  0.00  0.00     0.034 A 
ATOM     12  C   UNL d   1      28.407 -15.729  -0.620  0.00  0.00     0.017 A 
ATOM     13  C   UNL d   1      28.449 -16.205  -1.933  0.00  0.00     0.003 A 
ATOM     14  C   UNL d   1      27.383 -15.950  -2.796  0.00  0.00     0.036 A 
ATOM     15  C   UNL d   1      26.313 -15.156  -2.354  0.00  0.00     0.103 A 
ATOM     16  C   UNL d   1      26.276 -14.650  -1.049  0.00  0.00     0.053 A 
BRANCH  15  17
ATOM     17  N   UNL d   1      25.229 -14.810  -3.278  0.00  0.00    -0.116 N 
ATOM     18  O   UNL d   1      25.454 -14.900  -4.493  0.00  0.00    -0.532 OA
ATOM     19  O   UNL d   1      24.151 -14.451  -2.784  0.00  0.00    -0.532 OA
ENDBRANCH  15  17
ENDBRANCH   8  11
ENDBRANCH   4   7
BRANCH   1  20
ATOM     20  C   UNL d   1      28.673 -13.323   7.560  0.00  0.00     0.252 C 
ATOM     21  N   UNL d   1      29.116 -14.270   8.473  0.00  0.00    -0.349 N 
ATOM     22  H   UNL d   1      29.446 -15.164   8.127  0.00  0.00     0.163 HD
ATOM     23  O   UNL d   1      28.302 -12.185   7.841  0.00  0.00    -0.268 OA
BRANCH  21  24
ATOM     24  C   UNL d   1      29.190 -14.019   9.922  0.00  0.00     0.022 C 
ATOM     25  C   UNL d   1      30.026 -12.754  10.208  0.00  0.00     0.037 C 
ATOM     26  C   UNL d   1      29.867 -15.201  10.632  0.00  0.00     0.037 C 
ATOM     27  C   UNL d   1      27.780 -13.788  10.483  0.00  0.00     0.037 C 
ENDBRANCH  21  24
ENDBRANCH   1  20
TORSDOF 5
ENDMDL
MODEL 3
REMARK VINA RESULT:    -7.022      2.661      3.078
REMARK INTER + INTRA:          -9.053
REMARK INTER:                  -8.514
REMARK INTRA:                  -0.540
REMARK CONF_INDEPENDENT:        1.492
REMARK UNBOUND:                -0.540
REMARK  5 active torsions:
REMARK  status: ('A' for Active; 'I' for Inactive)
REMARK    1  A    between atoms: C_2  and  N_5 
REMARK       I    between atoms: N_5  and  C_6 
REMARK    2  A    between atoms: C_6  and  C_8 
REMARK    3  A    between atoms: C_11  and  N_12 
REMARK       I    between atoms: N_12  and  C_13 
REMARK    4  A    between atoms: C_13  and  C_15 
REMARK    5  A    between atoms: C_19  and  N_20 
ROOT
ATOM      1  C   UNL d   1      22.840 -17.947  -0.517  0.00  0.00     0.032 A 
ATOM      2  C   UNL d   1      23.270 -16.716  -1.033  0.00  0.00     0.019 A 
ATOM      3  C   UNL d   1      24.648 -16.422  -1.104  0.00  0.00     0.030 A 
ATOM      4  C   UNL d   1      25.591 -17.340  -0.615  0.00  0.00     0.035 A 
ATOM      5  C   UNL d   1      25.129 -18.576  -0.157  0.00  0.00     0.030 A 
ATOM      6  C   UNL d   1      23.776 -18.884  -0.106  0.00  0.00     0.019 A 
ENDROOT
BRANCH   4   7
ATOM      7  N   UNL d   1      26.970 -17.000  -0.562  0.00  0.00    -0.323 N 
ATOM      8  C   UNL d   1      27.666 -16.347  -1.576  0.00  0.00     0.256 C 
ATOM      9  O   UNL d   1      27.218 -15.914  -2.636  0.00  0.00    -0.267 OA
ATOM     10  H   UNL d   1      27.481 -17.301   0.261  0.00  0.00     0.169 HD
BRANCH   8  11
ATOM     11  C   UNL d   1      29.119 -16.169  -1.400  0.00  0.00     0.034 A 
ATOM     12  C   UNL d   1      29.655 -16.150  -0.100  0.00  0.00     0.017 A 
ATOM     13  C   UNL d   1      30.997 -15.822   0.106  0.00  0.00     0.003 A 
ATOM     14  C   UNL d   1      31.819 -15.552  -0.988  0.00  0.00     0.036 A 
ATOM     15  C   UNL d   1      31.268 -15.542  -2.280  0.00  0.00     0.103 A 
ATOM     16  C   UNL d   1      29.916 -15.839  -2.493  0.00  0.00     0.053 A 
BRANCH  15  17
ATOM     17  N   UNL d   1      32.101 -15.175  -3.427  0.00  0.00    -0.116 N 
ATOM     18  O   UNL d   1      32.331 -13.972  -3.615  0.00  0.00    -0.532 OA
ATOM     19  O   UNL d   1      32.530 -16.095  -4.139  0.00  0.00    -0.532 OA
ENDBRANCH  15  17
ENDBRANCH   8  11
ENDBRANCH   4   7
BRANCH   1  20
ATOM     20  C   UNL d   1      21.418 -18.344  -0.515  0.00  0.00     0.252 C 
ATOM     21  N   UNL d   1      21.070 -19.395   0.320  0.00  0.00    -0.349 N 
ATOM     22  H   UNL d   1      21.776 -19.784   0.935  0.00  0.00     0.163 HD
ATOM     23  O   UNL d   1      20.648 -17.747  -1.265  0.00  0.00    -0.268 OA
BRANCH  21  24
ATOM     24  C   UNL d   1      19.704 -19.938   0.405  0.00  0.00     0.022 C 
ATOM     25  C   UNL d   1      19.743 -21.468   0.605  0.00  0.00     0.037 C 
ATOM     26  C   UNL d   1      18.938 -19.654  -0.896  0.00  0.00     0.037 C 
ATOM     27  C   UNL d   1      18.973 -19.325   1.607  0.00  0.00     0.037 C 
ENDBRANCH  21  24
ENDBRANCH   1  20
TORSDOF 5
ENDMDL
MODEL 4
REMARK VINA RESULT:    -6.654      2.913     10.349
REMARK INTER + INTRA:          -9.000
REMARK INTER:                  -8.145
REMARK INTRA:                  -0.855
REMARK CONF_INDEPENDENT:        1.492
REMARK UNBOUND:                -0.855
REMARK  5 active torsions:
REMARK  status: ('A' for Active; 'I' for Inactive)
REMARK    1  A    between atoms: C_2  and  N_5 
REMARK       I    between atoms: N_5  and  C_6 
REMARK    2  A    between atoms: C_6  and  C_8 
REMARK    3  A    between atoms: C_11  and  N_12 
REMARK       I    between atoms: N_12  and  C_13 
REMARK    4  A    between atoms: C_13  and  C_15 
REMARK    5  A    between atoms: C_19  and  N_20 
ROOT
ATOM      1  C   UNL d   1      27.571 -12.918  -6.179  0.00  0.00     0.032 A 
ATOM      2  C   UNL d   1      27.939 -14.270  -6.148  0.00  0.00     0.019 A 
ATOM      3  C   UNL d   1      27.263 -15.167  -5.294  0.00  0.00     0.030 A 
ATOM      4  C   UNL d   1      26.253 -14.700  -4.437  0.00  0.00     0.035 A 
ATOM      5  C   UNL d   1      25.879 -13.357  -4.533  0.00  0.00     0.030 A 
ATOM      6  C   UNL d   1      26.522 -12.473  -5.389  0.00  0.00     0.019 A 
ENDROOT
BRANCH   4   7
ATOM      7  N   UNL d   1      25.658 -15.567  -3.482  0.00  0.00    -0.323 N 
ATOM      8  C   UNL d   1      25.652 -15.346  -2.106  0.00  0.00     0.256 C 
ATOM      9  O   UNL d   1      26.094 -14.372  -1.500  0.00  0.00    -0.267 OA
ATOM     10  H   UNL d   1      25.252 -16.425  -3.837  0.00  0.00     0.169 HD
BRANCH   8  11
ATOM     11  C   UNL d   1      25.084 -16.403  -1.249  0.00  0.00     0.034 A 
ATOM     12  C   UNL d   1      25.949 -17.202  -0.482  0.00  0.00     0.017 A 
ATOM     13  C   UNL d   1      25.457 -18.312   0.211  0.00  0.00     0.003 A 
ATOM     14  C   UNL d   1      24.094 -18.603   0.173  0.00  0.00     0.036 A 
ATOM     15  C   UNL d   1      23.242 -17.818  -0.622  0.00  0.00     0.103 A 
ATOM     16  C   UNL d   1      23.732 -16.722  -1.344  0.00  0.00     0.053 A 
BRANCH  15  17
ATOM     17  N   UNL d   1      21.824 -18.166  -0.738  0.00  0.00    -0.116 N 
ATOM     18  O   UNL d   1      21.514 -19.363  -0.671  0.00  0.00    -0.532 OA
ATOM     19  O   UNL d   1      21.020 -17.236  -0.894  0.00  0.00    -0.532 OA
ENDBRANCH  15  17
ENDBRANCH   8  11
ENDBRANCH   4   7
BRANCH   1  20
ATOM     20  C   UNL d   1      28.176 -11.961  -7.127  0.00  0.00     0.252 C 
ATOM     21  N   UNL d   1      28.974 -12.501  -8.125  0.00  0.00    -0.349 N 
ATOM     22  H   UNL d   1      29.042 -13.509  -8.204  0.00  0.00     0.163 HD
ATOM     23  O   UNL d   1      27.963 -10.762  -6.958  0.00  0.00    -0.268 OA
BRANCH  21  24
ATOM     24  C   UNL d   1      29.684 -11.679  -9.120  0.00  0.00     0.022 C 
ATOM     25  C   UNL d   1      30.490 -12.576 -10.084  0.00  0.00     0.037 C 
ATOM     26  C   UNL d   1      30.672 -10.733  -8.421  0.00  0.00     0.037 C 
ATOM     27  C   UNL d   1      28.672 -10.882  -9.955  0.00  0.00     0.037 C 
ENDBRANCH  21  24
ENDBRANCH   1  20
TORSDOF 5
ENDMDL
MODEL 5
REMARK VINA RESULT:    -6.365      3.504      4.013
REMARK INTER + INTRA:          -8.664
REMARK INTER:                  -7.856
REMARK INTRA:                  -0.808
REMARK CONF_INDEPENDENT:        1.492
REMARK UNBOUND:                -0.808
REMARK  5 active torsions:
REMARK  status: ('A' for Active; 'I' for Inactive)
REMARK    1  A    between atoms: C_2  and  N_5 
REMARK       I    between atoms: N_5  and  C_6 
REMARK    2  A    between atoms: C_6  and  C_8 
REMARK    3  A    between atoms: C_11  and  N_12 
REMARK       I    between atoms: N_12  and  C_13 
REMARK    4  A    between atoms: C_13  and  C_15 
REMARK    5  A    between atoms: C_19  and  N_20 
ROOT
ATOM      1  C   UNL d   1      23.333 -18.144  -0.594  0.00  0.00     0.032 A 
ATOM      2  C   UNL d   1      24.322 -18.575   0.302  0.00  0.00     0.019 A 
ATOM      3  C   UNL d   1      25.498 -17.814   0.476  0.00  0.00     0.030 A 
ATOM      4  C   UNL d   1      25.703 -16.650  -0.282  0.00  0.00     0.035 A 
ATOM      5  C   UNL d   1      24.674 -16.225  -1.126  0.00  0.00     0.030 A 
ATOM      6  C   UNL d   1      23.503 -16.954  -1.285  0.00  0.00     0.019 A 
ENDROOT
BRANCH   4   7
ATOM      7  N   UNL d   1      26.938 -15.950  -0.212  0.00  0.00    -0.323 N 
ATOM      8  C   UNL d   1      28.193 -16.541  -0.334  0.00  0.00     0.256 C 
ATOM      9  O   UNL d   1      28.447 -17.720  -0.573  0.00  0.00    -0.267 OA
ATOM     10  H   UNL d   1      26.887 -14.957  -0.012  0.00  0.00     0.169 HD
BRANCH   8  11
ATOM     11  C   UNL d   1      29.374 -15.683  -0.127  0.00  0.00     0.034 A 
ATOM     12  C   UNL d   1      30.618 -16.281   0.139  0.00  0.00     0.017 A 
ATOM     13  C   UNL d   1      31.716 -15.496   0.499  0.00  0.00     0.003 A 
ATOM     14  C   UNL d   1      31.586 -14.108   0.554  0.00  0.00     0.036 A 
ATOM     15  C   UNL d   1      30.332 -13.522   0.318  0.00  0.00     0.103 A 
ATOM     16  C   UNL d   1      29.218 -14.304  -0.013  0.00  0.00     0.053 A 
BRANCH  15  17
ATOM     17  N   UNL d   1      30.163 -12.073   0.458  0.00  0.00    -0.116 N 
ATOM     18  O   UNL d   1      29.017 -11.613   0.367  0.00  0.00    -0.532 OA
ATOM     19  O   UNL d   1      31.182 -11.398   0.665  0.00  0.00    -0.532 OA
ENDBRANCH  15  17
ENDBRANCH   8  11
ENDBRANCH   4   7
BRANCH   1  20
ATOM     20  C   UNL d   1      22.043 -18.848  -0.736  0.00  0.00     0.252 C 
ATOM     21  N   UNL d   1      21.261 -18.944   0.406  0.00  0.00    -0.349 N 
ATOM     22  H   UNL d   1      21.568 -18.471   1.248  0.00  0.00     0.163 HD
ATOM     23  O   UNL d   1      21.760 -19.324  -1.834  0.00  0.00    -0.268 OA
BRANCH  21  24
ATOM     24  C   UNL d   1      19.970 -19.652   0.440  0.00  0.00     0.022 C 
ATOM     25  C   UNL d   1      19.151 -19.219   1.674  0.00  0.00     0.037 C 
ATOM     26  C   UNL d   1      20.198 -21.168   0.536  0.00  0.00     0.037 C 
ATOM     27  C   UNL d   1      19.153 -19.306  -0.812  0.00  0.00     0.037 C 
ENDBRANCH  21  24
ENDBRANCH   1  20
TORSDOF 5
ENDMDL
MODEL 6
REMARK VINA RESULT:    -6.315      7.899      9.518
REMARK INTER + INTRA:          -8.605
REMARK INTER:                  -7.807
REMARK INTRA:                  -0.798
REMARK CONF_INDEPENDENT:        1.492
REMARK UNBOUND:                -0.798
REMARK  5 active torsions:
REMARK  status: ('A' for Active; 'I' for Inactive)
REMARK    1  A    between atoms: C_2  and  N_5 
REMARK       I    between atoms: N_5  and  C_6 
REMARK    2  A    between atoms: C_6  and  C_8 
REMARK    3  A    between atoms: C_11  and  N_12 
REMARK       I    between atoms: N_12  and  C_13 
REMARK    4  A    between atoms: C_13  and  C_15 
REMARK    5  A    between atoms: C_19  and  N_20 
ROOT
ATOM      1  C   UNL d   1      28.698 -13.583   6.603  0.00  0.00     0.032 A 
ATOM      2  C   UNL d   1      27.503 -13.244   5.953  0.00  0.00     0.019 A 
ATOM      3  C   UNL d   1      27.257 -13.703   4.641  0.00  0.00     0.030 A 
ATOM      4  C   UNL d   1      28.228 -14.459   3.965  0.00  0.00     0.035 A 
ATOM      5  C   UNL d   1      29.383 -14.820   4.663  0.00  0.00     0.030 A 
ATOM      6  C   UNL d   1      29.622 -14.394   5.962  0.00  0.00     0.019 A 
ENDROOT
BRANCH   4   7
ATOM      7  N   UNL d   1      28.046 -14.814   2.601  0.00  0.00    -0.323 N 
ATOM      8  C   UNL d   1      27.338 -14.055   1.672  0.00  0.00     0.256 C 
ATOM      9  O   UNL d   1      26.811 -12.958   1.844  0.00  0.00    -0.267 OA
ATOM     10  H   UNL d   1      28.427 -15.707   2.309  0.00  0.00     0.169 HD
BRANCH   8  11
ATOM     11  C   UNL d   1      27.156 -14.625   0.324  0.00  0.00     0.034 A 
ATOM     12  C   UNL d   1      27.640 -13.918  -0.790  0.00  0.00     0.017 A 
ATOM     13  C   UNL d   1      27.341 -14.350  -2.085  0.00  0.00     0.003 A 
ATOM     14  C   UNL d   1      26.593 -15.512  -2.271  0.00  0.00     0.036 A 
ATOM     15  C   UNL d   1      26.087 -16.194  -1.153  0.00  0.00     0.103 A 
ATOM     16  C   UNL d   1      26.356 -15.751   0.148  0.00  0.00     0.053 A 
BRANCH  15  17
ATOM     17  N   UNL d   1      25.228 -17.367  -1.338  0.00  0.00    -0.116 N 
ATOM     18  O   UNL d   1      24.585 -17.452  -2.393  0.00  0.00    -0.532 OA
ATOM     19  O   UNL d   1      25.202 -18.204  -0.425  0.00  0.00    -0.532 OA
ENDBRANCH  15  17
ENDBRANCH   8  11
ENDBRANCH   4   7
BRANCH   1  20
ATOM     20  C   UNL d   1      28.959 -13.215   8.009  0.00  0.00     0.252 C 
ATOM     21  N   UNL d   1      29.234 -14.258   8.881  0.00  0.00    -0.349 N 
ATOM     22  H   UNL d   1      29.318 -15.197   8.507  0.00  0.00     0.163 HD
ATOM     23  O   UNL d   1      28.887 -12.028   8.321  0.00  0.00    -0.268 OA
BRANCH  21  24
ATOM     24  C   UNL d   1      29.473 -14.062  10.321  0.00  0.00     0.022 C 
ATOM     25  C   UNL d   1      30.501 -12.934  10.549  0.00  0.00     0.037 C 
ATOM     26  C   UNL d   1      30.038 -15.347  10.945  0.00  0.00     0.037 C 
ATOM     27  C   UNL d   1      28.166 -13.655  11.015  0.00  0.00     0.037 C 
ENDBRANCH  21  24
ENDBRANCH   1  20
TORSDOF 5
ENDMDL
MODEL 7
REMARK VINA RESULT:    -6.289      6.940      9.026
REMARK INTER + INTRA:          -8.603
REMARK INTER:                  -7.780
REMARK INTRA:                  -0.823
REMARK CONF_INDEPENDENT:        1.492
REMARK UNBOUND:                -0.823
REMARK  5 active torsions:
REMARK  status: ('A' for Active; 'I' for Inactive)
REMARK    1  A    between atoms: C_2  and  N_5 
REMARK       I    between atoms: N_5  and  C_6 
REMARK    2  A    between atoms: C_6  and  C_8 
REMARK    3  A    between atoms: C_11  and  N_12 
REMARK       I    between atoms: N_12  and  C_13 
REMARK    4  A    between atoms: C_13  and  C_15 
REMARK    5  A    between atoms: C_19  and  N_20 
ROOT
ATOM      1  C   UNL d   1      29.188 -13.608   5.186  0.00  0.00     0.032 A 
ATOM      2  C   UNL d   1      30.016 -14.010   4.128  0.00  0.00     0.019 A 
ATOM      3  C   UNL d   1      29.447 -14.450   2.914  0.00  0.00     0.030 A 
ATOM      4  C   UNL d   1      28.052 -14.532   2.777  0.00  0.00     0.035 A 
ATOM      5  C   UNL d   1      27.260 -14.075   3.833  0.00  0.00     0.030 A 
ATOM      6  C   UNL d   1      27.811 -13.617   5.023  0.00  0.00     0.019 A 
ENDROOT
BRANCH   4   7
ATOM      7  N   UNL d   1      27.473 -15.097   1.609  0.00  0.00    -0.323 N 
ATOM      8  C   UNL d   1      26.642 -14.412   0.725  0.00  0.00     0.256 C 
ATOM      9  O   UNL d   1      26.318 -13.226   0.765  0.00  0.00    -0.267 OA
ATOM     10  H   UNL d   1      27.649 -16.082   1.444  0.00  0.00     0.169 HD
BRANCH   8  11
ATOM     11  C   UNL d   1      26.039 -15.182  -0.379  0.00  0.00     0.034 A 
ATOM     12  C   UNL d   1      25.621 -16.503  -0.145  0.00  0.00     0.017 A 
ATOM     13  C   UNL d   1      25.198 -17.308  -1.206  0.00  0.00     0.003 A 
ATOM     14  C   UNL d   1      25.154 -16.784  -2.498  0.00  0.00     0.036 A 
ATOM     15  C   UNL d   1      25.605 -15.474  -2.727  0.00  0.00     0.103 A 
ATOM     16  C   UNL d   1      26.059 -14.669  -1.674  0.00  0.00     0.053 A 
BRANCH  15  17
ATOM     17  N   UNL d   1      25.645 -14.942  -4.091  0.00  0.00    -0.116 N 
ATOM     18  O   UNL d   1      26.534 -15.356  -4.848  0.00  0.00    -0.532 OA
ATOM     19  O   UNL d   1      24.780 -14.112  -4.405  0.00  0.00    -0.532 OA
ENDBRANCH  15  17
ENDBRANCH   8  11
ENDBRANCH   4   7
BRANCH   1  20
ATOM     20  C   UNL d   1      29.732 -13.045   6.437  0.00  0.00     0.252 C 
ATOM     21  N   UNL d   1      29.737 -13.883   7.542  0.00  0.00    -0.349 N 
ATOM     22  H   UNL d   1      29.446 -14.847   7.425  0.00  0.00     0.163 HD
ATOM     23  O   UNL d   1      30.113 -11.875   6.431  0.00  0.00    -0.268 OA
BRANCH  21  24
ATOM     24  C   UNL d   1      30.205 -13.459   8.873  0.00  0.00     0.022 C 
ATOM     25  C   UNL d   1      29.492 -12.161   9.307  0.00  0.00     0.037 C 
ATOM     26  C   UNL d   1      31.715 -13.178   8.840  0.00  0.00     0.037 C 
ATOM     27  C   UNL d   1      29.881 -14.544   9.910  0.00  0.00     0.037 C 
ENDBRANCH  21  24
ENDBRANCH   1  20
TORSDOF 5
ENDMDL
MODEL 8
REMARK VINA RESULT:    -6.163      2.999     10.138
REMARK INTER + INTRA:          -8.489
REMARK INTER:                  -7.654
REMARK INTRA:                  -0.835
REMARK CONF_INDEPENDENT:        1.492
REMARK UNBOUND:                -0.835
REMARK  5 active torsions:
REMARK  status: ('A' for Active; 'I' for Inactive)
REMARK    1  A    between atoms: C_2  and  N_5 
REMARK       I    between atoms: N_5  and  C_6 
REMARK    2  A    between atoms: C_6  and  C_8 
REMARK    3  A    between atoms: C_11  and  N_12 
REMARK       I    between atoms: N_12  and  C_13 
REMARK    4  A    between atoms: C_13  and  C_15 
REMARK    5  A    between atoms: C_19  and  N_20 
ROOT
ATOM      1  C   UNL d   1      27.227 -12.629  -5.790  0.00  0.00     0.032 A 
ATOM      2  C   UNL d   1      27.683 -13.954  -5.825  0.00  0.00     0.019 A 
ATOM      3  C   UNL d   1      27.035 -14.945  -5.057  0.00  0.00     0.030 A 
ATOM      4  C   UNL d   1      25.962 -14.599  -4.220  0.00  0.00     0.035 A 
ATOM      5  C   UNL d   1      25.504 -13.280  -4.250  0.00  0.00     0.030 A 
ATOM      6  C   UNL d   1      26.120 -12.304  -5.021  0.00  0.00     0.019 A 
ENDROOT
BRANCH   4   7
ATOM      7  N   UNL d   1      25.388 -15.562  -3.345  0.00  0.00    -0.323 N 
ATOM      8  C   UNL d   1      25.253 -15.401  -1.968  0.00  0.00     0.256 C 
ATOM      9  O   UNL d   1      25.542 -14.414  -1.295  0.00  0.00    -0.267 OA
ATOM     10  H   UNL d   1      25.103 -16.441  -3.762  0.00  0.00     0.169 HD
BRANCH   8  11
ATOM     11  C   UNL d   1      24.733 -16.546  -1.197  0.00  0.00     0.034 A 
ATOM     12  C   UNL d   1      25.638 -17.395  -0.538  0.00  0.00     0.017 A 
ATOM     13  C   UNL d   1      25.191 -18.575   0.063  0.00  0.00     0.003 A 
ATOM     14  C   UNL d   1      23.832 -18.889   0.042  0.00  0.00     0.036 A 
ATOM     15  C   UNL d   1      22.940 -18.051  -0.647  0.00  0.00     0.103 A 
ATOM     16  C   UNL d   1      23.384 -16.883  -1.278  0.00  0.00     0.053 A 
BRANCH  15  17
ATOM     17  N   UNL d   1      21.525 -18.417  -0.750  0.00  0.00    -0.116 N 
ATOM     18  O   UNL d   1      20.705 -17.508  -0.942  0.00  0.00    -0.532 OA
ATOM     19  O   UNL d   1      21.236 -19.617  -0.641  0.00  0.00    -0.532 OA
ENDBRANCH  15  17
ENDBRANCH   8  11
ENDBRANCH   4   7
BRANCH   1  20
ATOM     20  C   UNL d   1      27.804 -11.577  -6.649  0.00  0.00     0.252 C 
ATOM     21  N   UNL d   1      27.060 -10.415  -6.790  0.00  0.00    -0.349 N 
ATOM     22  H   UNL d   1      26.211 -10.311  -6.248  0.00  0.00     0.163 HD
ATOM     23  O   UNL d   1      28.878 -11.805  -7.203  0.00  0.00    -0.268 OA
BRANCH  21  24
ATOM     24  C   UNL d   1      27.476  -9.291  -7.646  0.00  0.00     0.022 C 
ATOM     25  C   UNL d   1      26.349  -8.242  -7.745  0.00  0.00     0.037 C 
ATOM     26  C   UNL d   1      27.779  -9.790  -9.067  0.00  0.00     0.037 C 
ATOM     27  C   UNL d   1      28.708  -8.603  -7.041  0.00  0.00     0.037 C 
ENDBRANCH  21  24
ENDBRANCH   1  20
TORSDOF 5
ENDMDL
MODEL 9
REMARK VINA RESULT:    -5.961      6.680      8.528
REMARK INTER + INTRA:          -8.273
REMARK INTER:                  -7.452
REMARK INTRA:                  -0.821
REMARK CONF_INDEPENDENT:        1.492
REMARK UNBOUND:                -0.821
REMARK  5 active torsions:
REMARK  status: ('A' for Active; 'I' for Inactive)
REMARK    1  A    between atoms: C_2  and  N_5 
REMARK       I    between atoms: N_5  and  C_6 
REMARK    2  A    between atoms: C_6  and  C_8 
REMARK    3  A    between atoms: C_11  and  N_12 
REMARK       I    between atoms: N_12  and  C_13 
REMARK    4  A    between atoms: C_13  and  C_15 
REMARK    5  A    between atoms: C_19  and  N_20 
ROOT
ATOM      1  C   UNL d   1      28.625 -13.661   4.851  0.00  0.00     0.032 A 
ATOM      2  C   UNL d   1      27.425 -13.623   4.128  0.00  0.00     0.019 A 
ATOM      3  C   UNL d   1      27.406 -14.003   2.769  0.00  0.00     0.030 A 
ATOM      4  C   UNL d   1      28.596 -14.375   2.124  0.00  0.00     0.035 A 
ATOM      5  C   UNL d   1      29.762 -14.450   2.889  0.00  0.00     0.030 A 
ATOM      6  C   UNL d   1      29.786 -14.101   4.233  0.00  0.00     0.019 A 
ENDROOT
BRANCH   4   7
ATOM      7  N   UNL d   1      28.611 -14.632   0.727  0.00  0.00    -0.323 N 
ATOM      8  C   UNL d   1      27.921 -15.669   0.104  0.00  0.00     0.256 C 
ATOM      9  O   UNL d   1      27.160 -16.483   0.623  0.00  0.00    -0.267 OA
ATOM     10  H   UNL d   1      29.206 -14.037   0.161  0.00  0.00     0.169 HD
BRANCH   8  11
ATOM     11  C   UNL d   1      28.134 -15.857  -1.343  0.00  0.00     0.034 A 
ATOM     12  C   UNL d   1      29.412 -16.213  -1.807  0.00  0.00     0.017 A 
ATOM     13  C   UNL d   1      29.684 -16.240  -3.178  0.00  0.00     0.003 A 
ATOM     14  C   UNL d   1      28.670 -15.949  -4.090  0.00  0.00     0.036 A 
ATOM     15  C   UNL d   1      27.405 -15.564  -3.617  0.00  0.00     0.103 A 
ATOM     16  C   UNL d   1      27.132 -15.505  -2.244  0.00  0.00     0.053 A 
BRANCH  15  17
ATOM     17  N   UNL d   1      26.358 -15.173  -4.564  0.00  0.00    -0.116 N 
ATOM     18  O   UNL d   1      25.262 -14.825  -4.103  0.00  0.00    -0.532 OA
ATOM     19  O   UNL d   1      26.637 -15.211  -5.770  0.00  0.00    -0.532 OA
ENDBRANCH  15  17
ENDBRANCH   8  11
ENDBRANCH   4   7
BRANCH   1  20
ATOM     20  C   UNL d   1      28.680 -13.372   6.298  0.00  0.00     0.252 C 
ATOM     21  N   UNL d   1      29.848 -13.727   6.956  0.00  0.00    -0.349 N 
ATOM     22  H   UNL d   1      30.623 -14.089   6.413  0.00  0.00     0.163 HD
ATOM     23  O   UNL d   1      27.690 -12.870   6.827  0.00  0.00    -0.268 OA
BRANCH  21  24
ATOM     24  C   UNL d   1      30.043 -13.545   8.405  0.00  0.00     0.022 C 
ATOM     25  C   UNL d   1      30.022 -12.046   8.768  0.00  0.00     0.037 C 
ATOM     26  C   UNL d   1      31.404 -14.113   8.832  0.00  0.00     0.037 C 
ATOM     27  C   UNL d   1      28.906 -14.232   9.174  0.00  0.00     0.037 C 
ENDBRANCH  21  24
ENDBRANCH   1  20
TORSDOF 5
ENDMDL
