MODEL 1
REMARK VINA RESULT:   -11.074      0.000      0.000
REMARK INTER + INTRA:         -13.581
REMARK INTER:                 -12.864
REMARK INTRA:                  -0.717
REMARK CONF_INDEPENDENT:        1.790
REMARK UNBOUND:                -0.717
REMARK  6 active torsions:
REMARK  status: ('A' for Active; 'I' for Inactive)
REMARK       I    between atoms: C_2  and  N_3 
REMARK    1  A    between atoms: C_2  and  C_18 
REMARK    2  A    between atoms: N_3  and  C_4 
REMARK    3  A    between atoms: C_4  and  C_5 
REMARK    4  A    between atoms: C_9  and  N_10 
REMARK       I    between atoms: N_10  and  C_11 
REMARK    5  A    between atoms: C_11  and  C_13 
REMARK    6  A    between atoms: C_22  and  N_23 
ROOT
ATOM      1  O   UNL d   1      27.165 -14.612  -0.384  0.00  0.00    -0.266 OA
ATOM      2  C   UNL d   1      27.372 -14.822   0.792  0.00  0.00     0.268 C 
ATOM      3  N   UNL d   1      27.507 -16.124   1.308  0.00  0.00    -0.351 N 
ATOM      4  H   UNL d   1      27.792 -16.223   2.257  0.00  0.00     0.163 HD
ENDROOT
BRANCH   3   5
ATOM      5  C   UNL d   1      27.348 -17.403   0.619  0.00  0.00     0.161 C 
BRANCH   5   6
ATOM      6  C   UNL d   1      26.096 -17.486  -0.268  0.00  0.00    -0.038 A 
ATOM      7  C   UNL d   1      25.880 -16.765  -1.442  0.00  0.00     0.009 A 
ATOM      8  C   UNL d   1      24.634 -16.805  -2.088  0.00  0.00     0.003 A 
ATOM      9  C   UNL d   1      23.612 -17.659  -1.645  0.00  0.00     0.029 A 
ATOM     10  C   UNL d   1      23.815 -18.453  -0.514  0.00  0.00     0.035 A 
ATOM     11  C   UNL d   1      25.063 -18.350   0.136  0.00  0.00     0.038 A 
BRANCH  10  12
ATOM     12  N   UNL d   1      22.766 -19.303  -0.034  0.00  0.00    -0.327 N 
ATOM     13  C   UNL d   1      21.414 -19.087  -0.298  0.00  0.00     0.226 C 
ATOM     14  O   UNL d   1      20.987 -18.144  -0.985  0.00  0.00    -0.273 OA
ATOM     15  H   UNL d   1      23.041 -20.136   0.476  0.00  0.00     0.169 HD
BRANCH  13  16
ATOM     16  C   UNL d   1      20.343 -20.007   0.234  0.00  0.00     0.078 C 
ATOM     17  C   UNL d   1      19.870 -19.815   1.698  0.00  0.00     0.014 C 
ATOM     18  C   UNL d   1      18.611 -20.606   1.293  0.00  0.00     0.002 C 
ATOM     19  C   UNL d   1      18.859 -20.078  -0.150  0.00  0.00     0.014 C 
ENDBRANCH  13  16
ENDBRANCH  10  12
ENDBRANCH   5   6
ENDBRANCH   3   5
BRANCH   2  20
ATOM     20  C   UNL d   1      27.545 -13.765   1.840  0.00  0.00     0.102 C 
ATOM     21  C   UNL d   1      27.517 -12.421   1.563  0.00  0.00     0.049 C 
ATOM     22  C   UNL d   1      27.359 -11.699   2.738  0.00  0.00    -0.005 C 
ATOM     23  C   UNL d   1      26.963 -10.380   2.910  0.00  0.00     0.050 C 
ATOM     24  C   UNL d   1      27.848 -12.471   3.777  0.00  0.00     0.043 C 
ATOM     25  C   UNL d   1      27.311  -9.687   4.054  0.00  0.00     0.103 C 
ATOM     26  C   UNL d   1      28.002 -10.353   5.069  0.00  0.00     0.038 C 
ATOM     27  C   UNL d   1      28.268 -11.772   4.966  0.00  0.00     0.033 C 
ATOM     28  N   UNL d   1      27.690 -13.798   3.263  0.00  0.00    -0.351 N 
ATOM     29  H   UNL d   1      27.516 -14.630   3.819  0.00  0.00     0.166 HD
BRANCH  25  30
ATOM     30  N   UNL d   1      27.023  -8.242   4.052  0.00  0.00    -0.116 N 
ATOM     31  O   UNL d   1      27.170  -7.629   5.124  0.00  0.00    -0.532 OA
ATOM     32  O   UNL d   1      26.633  -7.720   3.002  0.00  0.00    -0.532 OA
ENDBRANCH  25  30
ENDBRANCH   2  20
TORSDOF 6
ENDMDL
MODEL 2
REMARK VINA RESULT:   -10.792      1.756      2.213
REMARK INTER + INTRA:         -13.357
REMARK INTER:                 -12.582
REMARK INTRA:                  -0.775
REMARK CONF_INDEPENDENT:        1.790
REMARK UNBOUND:                -0.775
REMARK  6 active torsions:
REMARK  status: ('A' for Active; 'I' for Inactive)
REMARK       I    between atoms: C_2  and  N_3 
REMARK    1  A    between atoms: C_2  and  C_18 
REMARK    2  A    between atoms: N_3  and  C_4 
REMARK    3  A    between atoms: C_4  and  C_5 
REMARK    4  A    between atoms: C_9  and  N_10 
REMARK       I    between atoms: N_10  and  C_11 
REMARK    5  A    between atoms: C_11  and  C_13 
REMARK    6  A    between atoms: C_22  and  N_23 
ROOT
ATOM      1  O   UNL d   1      26.786 -14.162   0.593  0.00  0.00    -0.266 OA
ATOM      2  C   UNL d   1      27.406 -14.876   1.352  0.00  0.00     0.268 C 
ATOM      3  N   UNL d   1      27.779 -16.189   1.010  0.00  0.00    -0.351 N 
ATOM      4  H   UNL d   1      28.385 -16.678   1.630  0.00  0.00     0.163 HD
ENDROOT
BRANCH   3   5
ATOM      5  C   UNL d   1      27.450 -16.950  -0.193  0.00  0.00     0.161 C 
BRANCH   5   6
ATOM      6  C   UNL d   1      25.988 -16.807  -0.645  0.00  0.00    -0.038 A 
ATOM      7  C   UNL d   1      25.475 -15.775  -1.429  0.00  0.00     0.009 A 
ATOM      8  C   UNL d   1      24.092 -15.664  -1.652  0.00  0.00     0.003 A 
ATOM      9  C   UNL d   1      23.202 -16.648  -1.198  0.00  0.00     0.029 A 
ATOM     10  C   UNL d   1      23.686 -17.737  -0.470  0.00  0.00     0.035 A 
ATOM     11  C   UNL d   1      25.074 -17.790  -0.226  0.00  0.00     0.038 A 
BRANCH  10  12
ATOM     12  N   UNL d   1      22.779 -18.729   0.028  0.00  0.00    -0.327 N 
ATOM     13  C   UNL d   1      21.431 -18.792  -0.324  0.00  0.00     0.226 C 
ATOM     14  O   UNL d   1      20.887 -18.002  -1.113  0.00  0.00    -0.273 OA
ATOM     15  H   UNL d   1      23.166 -19.454   0.623  0.00  0.00     0.169 HD
BRANCH  13  16
ATOM     16  C   UNL d   1      20.513 -19.852   0.230  0.00  0.00     0.078 C 
ATOM     17  C   UNL d   1      20.013 -19.701   1.690  0.00  0.00     0.014 C 
ATOM     18  C   UNL d   1      18.891 -20.685   1.305  0.00  0.00     0.002 C 
ATOM     19  C   UNL d   1      19.058 -20.159  -0.150  0.00  0.00     0.014 C 
ENDBRANCH  13  16
ENDBRANCH  10  12
ENDBRANCH   5   6
ENDBRANCH   3   5
BRANCH   2  20
ATOM     20  C   UNL d   1      27.886 -14.477   2.714  0.00  0.00     0.102 C 
ATOM     21  C   UNL d   1      28.070 -13.170   3.092  0.00  0.00     0.049 C 
ATOM     22  C   UNL d   1      28.181 -13.088   4.474  0.00  0.00    -0.005 C 
ATOM     23  C   UNL d   1      28.052 -11.980   5.300  0.00  0.00     0.050 C 
ATOM     24  C   UNL d   1      28.638 -14.310   4.934  0.00  0.00     0.043 C 
ATOM     25  C   UNL d   1      28.648 -11.961   6.546  0.00  0.00     0.103 C 
ATOM     26  C   UNL d   1      29.320 -13.101   6.995  0.00  0.00     0.038 C 
ATOM     27  C   UNL d   1      29.312 -14.315   6.208  0.00  0.00     0.033 C 
ATOM     28  N   UNL d   1      28.186 -15.202   3.909  0.00  0.00    -0.351 N 
ATOM     29  H   UNL d   1      27.930 -16.177   4.046  0.00  0.00     0.166 HD
BRANCH  25  30
ATOM     30  N   UNL d   1      28.628 -10.671   7.258  0.00  0.00    -0.116 N 
ATOM     31  O   UNL d   1      28.734  -9.639   6.572  0.00  0.00    -0.532 OA
ATOM     32  O   UNL d   1      28.530 -10.679   8.490  0.00  0.00    -0.532 OA
ENDBRANCH  25  30
ENDBRANCH   2  20
TORSDOF 6
ENDMDL
MODEL 3
REMARK VINA RESULT:   -10.636      2.376      2.665
REMARK INTER + INTRA:         -13.244
REMARK INTER:                 -12.425
REMARK INTRA:                  -0.819
REMARK CONF_INDEPENDENT:        1.790
REMARK UNBOUND:                -0.819
REMARK  6 active torsions:
REMARK  status: ('A' for Active; 'I' for Inactive)
REMARK       I    between atoms: C_2  and  N_3 
REMARK    1  A    between atoms: C_2  and  C_18 
REMARK    2  A    between atoms: N_3  and  C_4 
REMARK    3  A    between atoms: C_4  and  C_5 
REMARK    4  A    between atoms: C_9  and  N_10 
REMARK       I    between atoms: N_10  and  C_11 
REMARK    5  A    between atoms: C_11  and  C_13 
REMARK    6  A    between atoms: C_22  and  N_23 
ROOT
ATOM      1  O   UNL d   1      26.828 -14.722  -0.088  0.00  0.00    -0.266 OA
ATOM      2  C   UNL d   1      27.351 -15.346   0.810  0.00  0.00     0.268 C 
ATOM      3  N   UNL d   1      27.377 -16.753   0.830  0.00  0.00    -0.351 N 
ATOM      4  H   UNL d   1      27.923 -17.200   1.533  0.00  0.00     0.163 HD
ENDROOT
BRANCH   3   5
ATOM      5  C   UNL d   1      26.753 -17.693  -0.099  0.00  0.00     0.161 C 
BRANCH   5   6
ATOM      6  C   UNL d   1      25.293 -17.358  -0.444  0.00  0.00    -0.038 A 
ATOM      7  C   UNL d   1      24.860 -16.237  -1.151  0.00  0.00     0.009 A 
ATOM      8  C   UNL d   1      23.490 -15.953  -1.274  0.00  0.00     0.003 A 
ATOM      9  C   UNL d   1      22.517 -16.844  -0.796  0.00  0.00     0.029 A 
ATOM     10  C   UNL d   1      22.911 -18.016  -0.144  0.00  0.00     0.035 A 
ATOM     11  C   UNL d   1      24.295 -18.243   0.001  0.00  0.00     0.038 A 
BRANCH  10  12
ATOM     12  N   UNL d   1      21.925 -18.914   0.377  0.00  0.00    -0.327 N 
ATOM     13  C   UNL d   1      20.929 -19.506  -0.400  0.00  0.00     0.226 C 
ATOM     14  O   UNL d   1      20.807 -19.322  -1.622  0.00  0.00    -0.273 OA
ATOM     15  H   UNL d   1      22.002 -19.170   1.356  0.00  0.00     0.169 HD
BRANCH  13  16
ATOM     16  C   UNL d   1      19.907 -20.443   0.196  0.00  0.00     0.078 C 
ATOM     17  C   UNL d   1      19.511 -20.250   1.682  0.00  0.00     0.014 C 
ATOM     18  C   UNL d   1      18.248 -21.068   1.352  0.00  0.00     0.002 C 
ATOM     19  C   UNL d   1      18.407 -20.546  -0.106  0.00  0.00     0.014 C 
ENDBRANCH  13  16
ENDBRANCH  10  12
ENDBRANCH   5   6
ENDBRANCH   3   5
BRANCH   2  20
ATOM     20  C   UNL d   1      28.058 -14.740   1.985  0.00  0.00     0.102 C 
ATOM     21  C   UNL d   1      27.410 -14.036   2.969  0.00  0.00     0.049 C 
ATOM     22  C   UNL d   1      28.238 -13.897   4.075  0.00  0.00    -0.005 C 
ATOM     23  C   UNL d   1      27.909 -13.559   5.381  0.00  0.00     0.050 C 
ATOM     24  C   UNL d   1      29.547 -13.979   3.635  0.00  0.00     0.043 C 
ATOM     25  C   UNL d   1      28.856 -13.003   6.220  0.00  0.00     0.103 C 
ATOM     26  C   UNL d   1      30.168 -12.856   5.763  0.00  0.00     0.038 C 
ATOM     27  C   UNL d   1      30.553 -13.363   4.464  0.00  0.00     0.033 C 
ATOM     28  N   UNL d   1      29.413 -14.761   2.442  0.00  0.00    -0.351 N 
ATOM     29  H   UNL d   1      30.115 -15.393   2.068  0.00  0.00     0.166 HD
BRANCH  25  30
ATOM     30  N   UNL d   1      28.360 -12.491   7.510  0.00  0.00    -0.116 N 
ATOM     31  O   UNL d   1      28.156 -13.322   8.413  0.00  0.00    -0.532 OA
ATOM     32  O   UNL d   1      28.153 -11.278   7.623  0.00  0.00    -0.532 OA
ENDBRANCH  25  30
ENDBRANCH   2  20
TORSDOF 6
ENDMDL
MODEL 4
REMARK VINA RESULT:    -9.988      5.479      8.181
REMARK INTER + INTRA:         -12.608
REMARK INTER:                 -11.778
REMARK INTRA:                  -0.830
REMARK CONF_INDEPENDENT:        1.790
REMARK UNBOUND:                -0.830
REMARK  6 active torsions:
REMARK  status: ('A' for Active; 'I' for Inactive)
REMARK       I    between atoms: C_2  and  N_3 
REMARK    1  A    between atoms: C_2  and  C_18 
REMARK    2  A    between atoms: N_3  and  C_4 
REMARK    3  A    between atoms: C_4  and  C_5 
REMARK    4  A    between atoms: C_9  and  N_10 
REMARK       I    between atoms: N_10  and  C_11 
REMARK    5  A    between atoms: C_11  and  C_13 
REMARK    6  A    between atoms: C_22  and  N_23 
ROOT
ATOM      1  O   UNL d   1      25.286 -15.948  -5.286  0.00  0.00    -0.266 OA
ATOM      2  C   UNL d   1      26.128 -15.249  -4.764  0.00  0.00     0.268 C 
ATOM      3  N   UNL d   1      25.998 -14.780  -3.444  0.00  0.00    -0.351 N 
ATOM      4  H   UNL d   1      26.776 -14.311  -3.037  0.00  0.00     0.163 HD
ENDROOT
BRANCH   3   5
ATOM      5  C   UNL d   1      24.876 -14.941  -2.521  0.00  0.00     0.161 C 
BRANCH   5   6
ATOM      6  C   UNL d   1      25.097 -16.016  -1.446  0.00  0.00    -0.038 A 
ATOM      7  C   UNL d   1      26.268 -16.206  -0.712  0.00  0.00     0.009 A 
ATOM      8  C   UNL d   1      26.410 -17.318   0.134  0.00  0.00     0.003 A 
ATOM      9  C   UNL d   1      25.343 -18.201   0.360  0.00  0.00     0.029 A 
ATOM     10  C   UNL d   1      24.128 -18.003  -0.301  0.00  0.00     0.035 A 
ATOM     11  C   UNL d   1      24.039 -16.903  -1.179  0.00  0.00     0.038 A 
BRANCH  10  12
ATOM     12  N   UNL d   1      23.045 -18.919  -0.103  0.00  0.00    -0.327 N 
ATOM     13  C   UNL d   1      21.717 -18.626  -0.414  0.00  0.00     0.226 C 
ATOM     14  O   UNL d   1      21.346 -17.548  -0.906  0.00  0.00    -0.273 OA
ATOM     15  H   UNL d   1      23.278 -19.849   0.230  0.00  0.00     0.169 HD
BRANCH  13  16
ATOM     16  C   UNL d   1      20.608 -19.622  -0.182  0.00  0.00     0.078 C 
ATOM     17  C   UNL d   1      19.999 -19.725   1.240  0.00  0.00     0.014 C 
ATOM     18  C   UNL d   1      18.789 -20.403   0.567  0.00  0.00     0.002 C 
ATOM     19  C   UNL d   1      19.167 -19.596  -0.709  0.00  0.00     0.014 C 
ENDBRANCH  13  16
ENDBRANCH  10  12
ENDBRANCH   5   6
ENDBRANCH   3   5
BRANCH   2  20
ATOM     20  C   UNL d   1      27.410 -14.816  -5.406  0.00  0.00     0.102 C 
ATOM     21  C   UNL d   1      28.554 -15.574  -5.384  0.00  0.00     0.049 C 
ATOM     22  C   UNL d   1      29.456 -15.097  -6.327  0.00  0.00    -0.005 C 
ATOM     23  C   UNL d   1      30.569 -15.723  -6.871  0.00  0.00     0.050 C 
ATOM     24  C   UNL d   1      29.176 -13.759  -6.540  0.00  0.00     0.043 C 
ATOM     25  C   UNL d   1      31.602 -14.976  -7.405  0.00  0.00     0.103 C 
ATOM     26  C   UNL d   1      31.479 -13.586  -7.458  0.00  0.00     0.038 C 
ATOM     27  C   UNL d   1      30.250 -12.942  -7.048  0.00  0.00     0.033 C 
ATOM     28  N   UNL d   1      27.787 -13.687  -6.200  0.00  0.00    -0.351 N 
ATOM     29  H   UNL d   1      27.112 -13.044  -6.605  0.00  0.00     0.166 HD
BRANCH  25  30
ATOM     30  N   UNL d   1      32.822 -15.719  -7.767  0.00  0.00    -0.116 N 
ATOM     31  O   UNL d   1      32.795 -16.382  -8.819  0.00  0.00    -0.532 OA
ATOM     32  O   UNL d   1      33.793 -15.666  -7.004  0.00  0.00    -0.532 OA
ENDBRANCH  25  30
ENDBRANCH   2  20
TORSDOF 6
ENDMDL
MODEL 5
REMARK VINA RESULT:    -9.943      5.350      8.171
REMARK INTER + INTRA:         -12.521
REMARK INTER:                 -11.733
REMARK INTRA:                  -0.787
REMARK CONF_INDEPENDENT:        1.790
REMARK UNBOUND:                -0.787
REMARK  6 active torsions:
REMARK  status: ('A' for Active; 'I' for Inactive)
REMARK       I    between atoms: C_2  and  N_3 
REMARK    1  A    between atoms: C_2  and  C_18 
REMARK    2  A    between atoms: N_3  and  C_4 
REMARK    3  A    between atoms: C_4  and  C_5 
REMARK    4  A    between atoms: C_9  and  N_10 
REMARK       I    between atoms: N_10  and  C_11 
REMARK    5  A    between atoms: C_11  and  C_13 
REMARK    6  A    between atoms: C_22  and  N_23 
ROOT
ATOM      1  O   UNL d   1      24.992 -13.410  -4.832  0.00  0.00    -0.266 OA
ATOM      2  C   UNL d   1      25.917 -14.130  -4.524  0.00  0.00     0.268 C 
ATOM      3  N   UNL d   1      25.849 -15.011  -3.429  0.00  0.00    -0.351 N 
ATOM      4  H   UNL d   1      26.596 -15.657  -3.302  0.00  0.00     0.163 HD
ENDROOT
BRANCH   3   5
ATOM      5  C   UNL d   1      24.776 -15.173  -2.450  0.00  0.00     0.161 C 
BRANCH   5   6
ATOM      6  C   UNL d   1      25.017 -16.303  -1.437  0.00  0.00    -0.038 A 
ATOM      7  C   UNL d   1      26.219 -16.566  -0.780  0.00  0.00     0.009 A 
ATOM      8  C   UNL d   1      26.368 -17.719   0.008  0.00  0.00     0.003 A 
ATOM      9  C   UNL d   1      25.284 -18.575   0.255  0.00  0.00     0.029 A 
ATOM     10  C   UNL d   1      24.042 -18.307  -0.327  0.00  0.00     0.035 A 
ATOM     11  C   UNL d   1      23.945 -17.165  -1.149  0.00  0.00     0.038 A 
BRANCH  10  12
ATOM     12  N   UNL d   1      22.939 -19.194  -0.107  0.00  0.00    -0.327 N 
ATOM     13  C   UNL d   1      21.615 -18.870  -0.403  0.00  0.00     0.226 C 
ATOM     14  O   UNL d   1      21.264 -17.787  -0.897  0.00  0.00    -0.273 OA
ATOM     15  H   UNL d   1      23.154 -20.127   0.229  0.00  0.00     0.169 HD
BRANCH  13  16
ATOM     16  C   UNL d   1      20.484 -19.836  -0.149  0.00  0.00     0.078 C 
ATOM     17  C   UNL d   1      20.014 -20.049   1.313  0.00  0.00     0.014 C 
ATOM     18  C   UNL d   1      18.711 -20.608   0.710  0.00  0.00     0.002 C 
ATOM     19  C   UNL d   1      19.002 -19.700  -0.520  0.00  0.00     0.014 C 
ENDBRANCH  13  16
ENDBRANCH  10  12
ENDBRANCH   5   6
ENDBRANCH   3   5
BRANCH   2  20
ATOM     20  C   UNL d   1      27.223 -14.218  -5.254  0.00  0.00     0.102 C 
ATOM     21  C   UNL d   1      28.128 -15.231  -5.053  0.00  0.00     0.049 C 
ATOM     22  C   UNL d   1      29.058 -15.245  -6.084  0.00  0.00    -0.005 C 
ATOM     23  C   UNL d   1      29.931 -16.256  -6.465  0.00  0.00     0.050 C 
ATOM     24  C   UNL d   1      29.124 -13.968  -6.611  0.00  0.00     0.043 C 
ATOM     25  C   UNL d   1      31.085 -15.959  -7.163  0.00  0.00     0.103 C 
ATOM     26  C   UNL d   1      31.326 -14.637  -7.548  0.00  0.00     0.038 C 
ATOM     27  C   UNL d   1      30.338 -13.610  -7.302  0.00  0.00     0.033 C 
ATOM     28  N   UNL d   1      27.828 -13.447  -6.295  0.00  0.00    -0.351 N 
ATOM     29  H   UNL d   1      27.320 -12.757  -6.842  0.00  0.00     0.166 HD
BRANCH  25  30
ATOM     30  N   UNL d   1      32.042 -17.066  -7.339  0.00  0.00    -0.116 N 
ATOM     31  O   UNL d   1      32.568 -17.533  -6.314  0.00  0.00    -0.532 OA
ATOM     32  O   UNL d   1      32.288 -17.456  -8.486  0.00  0.00    -0.532 OA
ENDBRANCH  25  30
ENDBRANCH   2  20
TORSDOF 6
ENDMDL
MODEL 6
REMARK VINA RESULT:    -9.544      4.048      4.716
REMARK INTER + INTRA:         -12.212
REMARK INTER:                 -11.334
REMARK INTRA:                  -0.877
REMARK CONF_INDEPENDENT:        1.790
REMARK UNBOUND:                -0.877
REMARK  6 active torsions:
REMARK  status: ('A' for Active; 'I' for Inactive)
REMARK       I    between atoms: C_2  and  N_3 
REMARK    1  A    between atoms: C_2  and  C_18 
REMARK    2  A    between atoms: N_3  and  C_4 
REMARK    3  A    between atoms: C_4  and  C_5 
REMARK    4  A    between atoms: C_9  and  N_10 
REMARK       I    between atoms: N_10  and  C_11 
REMARK    5  A    between atoms: C_11  and  C_13 
REMARK    6  A    between atoms: C_22  and  N_23 
ROOT
ATOM      1  O   UNL d   1      24.017 -13.710  -4.283  0.00  0.00    -0.266 OA
ATOM      2  C   UNL d   1      25.021 -13.519  -3.632  0.00  0.00     0.268 C 
ATOM      3  N   UNL d   1      25.794 -14.577  -3.119  0.00  0.00    -0.351 N 
ATOM      4  H   UNL d   1      26.667 -14.354  -2.695  0.00  0.00     0.163 HD
ENDROOT
BRANCH   3   5
ATOM      5  C   UNL d   1      25.531 -16.013  -3.173  0.00  0.00     0.161 C 
BRANCH   5   6
ATOM      6  C   UNL d   1      25.472 -16.693  -1.796  0.00  0.00    -0.038 A 
ATOM      7  C   UNL d   1      26.441 -16.596  -0.798  0.00  0.00     0.009 A 
ATOM      8  C   UNL d   1      26.356 -17.384   0.362  0.00  0.00     0.003 A 
ATOM      9  C   UNL d   1      25.241 -18.200   0.606  0.00  0.00     0.029 A 
ATOM     10  C   UNL d   1      24.213 -18.269  -0.338  0.00  0.00     0.035 A 
ATOM     11  C   UNL d   1      24.356 -17.499  -1.511  0.00  0.00     0.038 A 
BRANCH  10  12
ATOM     12  N   UNL d   1      23.087 -19.126  -0.112  0.00  0.00    -0.327 N 
ATOM     13  C   UNL d   1      21.771 -18.766  -0.402  0.00  0.00     0.226 C 
ATOM     14  O   UNL d   1      21.447 -17.673  -0.895  0.00  0.00    -0.273 OA
ATOM     15  H   UNL d   1      23.278 -20.064   0.223  0.00  0.00     0.169 HD
BRANCH  13  16
ATOM     16  C   UNL d   1      20.615 -19.700  -0.141  0.00  0.00     0.078 C 
ATOM     17  C   UNL d   1      20.047 -19.783   1.299  0.00  0.00     0.014 C 
ATOM     18  C   UNL d   1      18.781 -20.386   0.661  0.00  0.00     0.002 C 
ATOM     19  C   UNL d   1      19.162 -19.589  -0.620  0.00  0.00     0.014 C 
ENDBRANCH  13  16
ENDBRANCH  10  12
ENDBRANCH   5   6
ENDBRANCH   3   5
BRANCH   2  20
ATOM     20  C   UNL d   1      25.598 -12.174  -3.308  0.00  0.00     0.102 C 
ATOM     21  C   UNL d   1      26.649 -11.997  -2.443  0.00  0.00     0.049 C 
ATOM     22  C   UNL d   1      27.181 -10.724  -2.599  0.00  0.00    -0.005 C 
ATOM     23  C   UNL d   1      28.412 -10.231  -2.189  0.00  0.00     0.050 C 
ATOM     24  C   UNL d   1      26.183  -9.908  -3.102  0.00  0.00     0.043 C 
ATOM     25  C   UNL d   1      28.593  -8.875  -1.987  0.00  0.00     0.103 C 
ATOM     26  C   UNL d   1      27.543  -8.000  -2.275  0.00  0.00     0.038 C 
ATOM     27  C   UNL d   1      26.317  -8.493  -2.863  0.00  0.00     0.033 C 
ATOM     28  N   UNL d   1      25.343 -10.849  -3.780  0.00  0.00    -0.351 N 
ATOM     29  H   UNL d   1      24.780 -10.652  -4.604  0.00  0.00     0.166 HD
BRANCH  25  30
ATOM     30  N   UNL d   1      29.864  -8.475  -1.358  0.00  0.00    -0.116 N 
ATOM     31  O   UNL d   1      29.797  -7.762  -0.341  0.00  0.00    -0.532 OA
ATOM     32  O   UNL d   1      30.922  -8.845  -1.878  0.00  0.00    -0.532 OA
ENDBRANCH  25  30
ENDBRANCH   2  20
TORSDOF 6
ENDMDL
MODEL 7
REMARK VINA RESULT:    -9.325      5.481      7.652
REMARK INTER + INTRA:         -11.940
REMARK INTER:                 -11.115
REMARK INTRA:                  -0.825
REMARK CONF_INDEPENDENT:        1.790
REMARK UNBOUND:                -0.825
REMARK  6 active torsions:
REMARK  status: ('A' for Active; 'I' for Inactive)
REMARK       I    between atoms: C_2  and  N_3 
REMARK    1  A    between atoms: C_2  and  C_18 
REMARK    2  A    between atoms: N_3  and  C_4 
REMARK    3  A    between atoms: C_4  and  C_5 
REMARK    4  A    between atoms: C_9  and  N_10 
REMARK       I    between atoms: N_10  and  C_11 
REMARK    5  A    between atoms: C_11  and  C_13 
REMARK    6  A    between atoms: C_22  and  N_23 
ROOT
ATOM      1  O   UNL d   1      25.461 -15.928  -5.452  0.00  0.00    -0.266 OA
ATOM      2  C   UNL d   1      26.391 -15.452  -4.837  0.00  0.00     0.268 C 
ATOM      3  N   UNL d   1      26.291 -15.103  -3.477  0.00  0.00    -0.351 N 
ATOM      4  H   UNL d   1      27.122 -14.829  -3.004  0.00  0.00     0.163 HD
ENDROOT
BRANCH   3   5
ATOM      5  C   UNL d   1      25.119 -15.146  -2.605  0.00  0.00     0.161 C 
BRANCH   5   6
ATOM      6  C   UNL d   1      25.239 -16.145  -1.443  0.00  0.00    -0.038 A 
ATOM      7  C   UNL d   1      26.339 -16.284  -0.598  0.00  0.00     0.009 A 
ATOM      8  C   UNL d   1      26.400 -17.334   0.332  0.00  0.00     0.003 A 
ATOM      9  C   UNL d   1      25.313 -18.200   0.523  0.00  0.00     0.029 A 
ATOM     10  C   UNL d   1      24.162 -18.049  -0.254  0.00  0.00     0.035 A 
ATOM     11  C   UNL d   1      24.156 -17.012  -1.210  0.00  0.00     0.038 A 
BRANCH  10  12
ATOM     12  N   UNL d   1      23.060 -18.949  -0.090  0.00  0.00    -0.327 N 
ATOM     13  C   UNL d   1      21.742 -18.628  -0.417  0.00  0.00     0.226 C 
ATOM     14  O   UNL d   1      21.397 -17.535  -0.895  0.00  0.00    -0.273 OA
ATOM     15  H   UNL d   1      23.272 -19.888   0.230  0.00  0.00     0.169 HD
BRANCH  13  16
ATOM     16  C   UNL d   1      20.613 -19.608  -0.220  0.00  0.00     0.078 C 
ATOM     17  C   UNL d   1      20.006 -19.755   1.199  0.00  0.00     0.014 C 
ATOM     18  C   UNL d   1      18.780 -20.379   0.505  0.00  0.00     0.002 C 
ATOM     19  C   UNL d   1      19.171 -19.530  -0.740  0.00  0.00     0.014 C 
ENDBRANCH  13  16
ENDBRANCH  10  12
ENDBRANCH   5   6
ENDBRANCH   3   5
BRANCH   2  20
ATOM     20  C   UNL d   1      27.758 -15.200  -5.397  0.00  0.00     0.102 C 
ATOM     21  C   UNL d   1      28.045 -14.144  -6.227  0.00  0.00     0.049 C 
ATOM     22  C   UNL d   1      29.420 -13.966  -6.306  0.00  0.00    -0.005 C 
ATOM     23  C   UNL d   1      30.138 -12.862  -6.746  0.00  0.00     0.050 C 
ATOM     24  C   UNL d   1      30.020 -15.182  -6.030  0.00  0.00     0.043 C 
ATOM     25  C   UNL d   1      31.432 -13.006  -7.209  0.00  0.00     0.103 C 
ATOM     26  C   UNL d   1      32.035 -14.265  -7.158  0.00  0.00     0.038 C 
ATOM     27  C   UNL d   1      31.352 -15.382  -6.544  0.00  0.00     0.033 C 
ATOM     28  N   UNL d   1      29.031 -15.825  -5.218  0.00  0.00    -0.351 N 
ATOM     29  H   UNL d   1      29.220 -16.499  -4.481  0.00  0.00     0.166 HD
BRANCH  25  30
ATOM     30  N   UNL d   1      32.032 -11.819  -7.842  0.00  0.00    -0.116 N 
ATOM     31  O   UNL d   1      31.553 -10.710  -7.545  0.00  0.00    -0.532 OA
ATOM     32  O   UNL d   1      32.956 -11.983  -8.646  0.00  0.00    -0.532 OA
ENDBRANCH  25  30
ENDBRANCH   2  20
TORSDOF 6
ENDMDL
MODEL 8
REMARK VINA RESULT:    -9.318      4.208      5.128
REMARK INTER + INTRA:         -11.973
REMARK INTER:                 -11.108
REMARK INTRA:                  -0.865
REMARK CONF_INDEPENDENT:        1.790
REMARK UNBOUND:                -0.865
REMARK  6 active torsions:
REMARK  status: ('A' for Active; 'I' for Inactive)
REMARK       I    between atoms: C_2  and  N_3 
REMARK    1  A    between atoms: C_2  and  C_18 
REMARK    2  A    between atoms: N_3  and  C_4 
REMARK    3  A    between atoms: C_4  and  C_5 
REMARK    4  A    between atoms: C_9  and  N_10 
REMARK       I    between atoms: N_10  and  C_11 
REMARK    5  A    between atoms: C_11  and  C_13 
REMARK    6  A    between atoms: C_22  and  N_23 
ROOT
ATOM      1  O   UNL d   1      27.176 -14.290  -5.138  0.00  0.00    -0.266 OA
ATOM      2  C   UNL d   1      26.340 -13.822  -4.395  0.00  0.00     0.268 C 
ATOM      3  N   UNL d   1      25.564 -14.624  -3.539  0.00  0.00    -0.351 N 
ATOM      4  H   UNL d   1      24.982 -14.168  -2.872  0.00  0.00     0.163 HD
ENDROOT
BRANCH   3   5
ATOM      5  C   UNL d   1      25.530 -16.081  -3.432  0.00  0.00     0.161 C 
BRANCH   5   6
ATOM      6  C   UNL d   1      25.453 -16.602  -1.988  0.00  0.00    -0.038 A 
ATOM      7  C   UNL d   1      26.366 -16.323  -0.971  0.00  0.00     0.009 A 
ATOM      8  C   UNL d   1      26.281 -16.978   0.268  0.00  0.00     0.003 A 
ATOM      9  C   UNL d   1      25.213 -17.839   0.563  0.00  0.00     0.029 A 
ATOM     10  C   UNL d   1      24.237 -18.089  -0.405  0.00  0.00     0.035 A 
ATOM     11  C   UNL d   1      24.382 -17.449  -1.653  0.00  0.00     0.038 A 
BRANCH  10  12
ATOM     12  N   UNL d   1      23.161 -18.993  -0.124  0.00  0.00    -0.327 N 
ATOM     13  C   UNL d   1      21.821 -18.706  -0.384  0.00  0.00     0.226 C 
ATOM     14  O   UNL d   1      21.430 -17.644  -0.896  0.00  0.00    -0.273 OA
ATOM     15  H   UNL d   1      23.408 -19.911   0.230  0.00  0.00     0.169 HD
BRANCH  13  16
ATOM     16  C   UNL d   1      20.721 -19.688  -0.065  0.00  0.00     0.078 C 
ATOM     17  C   UNL d   1      20.139 -19.699   1.372  0.00  0.00     0.014 C 
ATOM     18  C   UNL d   1      18.921 -20.424   0.769  0.00  0.00     0.002 C 
ATOM     19  C   UNL d   1      19.271 -19.702  -0.564  0.00  0.00     0.014 C 
ENDBRANCH  13  16
ENDBRANCH  10  12
ENDBRANCH   5   6
ENDBRANCH   3   5
BRANCH   2  20
ATOM     20  C   UNL d   1      26.035 -12.361  -4.250  0.00  0.00     0.102 C 
ATOM     21  C   UNL d   1      25.956 -11.729  -3.034  0.00  0.00     0.049 C 
ATOM     22  C   UNL d   1      26.004 -10.352  -3.214  0.00  0.00    -0.005 C 
ATOM     23  C   UNL d   1      26.277  -9.356  -2.286  0.00  0.00     0.050 C 
ATOM     24  C   UNL d   1      25.545 -10.076  -4.489  0.00  0.00     0.043 C 
ATOM     25  C   UNL d   1      25.825  -8.066  -2.491  0.00  0.00     0.103 C 
ATOM     26  C   UNL d   1      25.156  -7.760  -3.678  0.00  0.00     0.038 C 
ATOM     27  C   UNL d   1      25.019  -8.754  -4.720  0.00  0.00     0.033 C 
ATOM     28  N   UNL d   1      25.838 -11.295  -5.182  0.00  0.00    -0.351 N 
ATOM     29  H   UNL d   1      26.063 -11.373  -6.171  0.00  0.00     0.166 HD
BRANCH  25  30
ATOM     30  N   UNL d   1      25.985  -7.134  -1.360  0.00  0.00    -0.116 N 
ATOM     31  O   UNL d   1      25.931  -7.614  -0.214  0.00  0.00    -0.532 OA
ATOM     32  O   UNL d   1      26.141  -5.933  -1.604  0.00  0.00    -0.532 OA
ENDBRANCH  25  30
ENDBRANCH   2  20
TORSDOF 6
ENDMDL
MODEL 9
REMARK VINA RESULT:    -9.266      5.559      8.243
REMARK INTER + INTRA:         -11.867
REMARK INTER:                 -11.055
REMARK INTRA:                  -0.811
REMARK CONF_INDEPENDENT:        1.790
REMARK UNBOUND:                -0.811
REMARK  6 active torsions:
REMARK  status: ('A' for Active; 'I' for Inactive)
REMARK       I    between atoms: C_2  and  N_3 
REMARK    1  A    between atoms: C_2  and  C_18 
REMARK    2  A    between atoms: N_3  and  C_4 
REMARK    3  A    between atoms: C_4  and  C_5 
REMARK    4  A    between atoms: C_9  and  N_10 
REMARK       I    between atoms: N_10  and  C_11 
REMARK    5  A    between atoms: C_11  and  C_13 
REMARK    6  A    between atoms: C_22  and  N_23 
ROOT
ATOM      1  O   UNL d   1      26.395 -13.242  -4.490  0.00  0.00    -0.266 OA
ATOM      2  C   UNL d   1      26.844 -14.367  -4.468  0.00  0.00     0.268 C 
ATOM      3  N   UNL d   1      26.252 -15.397  -3.715  0.00  0.00    -0.351 N 
ATOM      4  H   UNL d   1      26.600 -16.322  -3.833  0.00  0.00     0.163 HD
ENDROOT
BRANCH   3   5
ATOM      5  C   UNL d   1      25.116 -15.323  -2.798  0.00  0.00     0.161 C 
BRANCH   5   6
ATOM      6  C   UNL d   1      25.230 -16.256  -1.582  0.00  0.00    -0.038 A 
ATOM      7  C   UNL d   1      26.321 -16.340  -0.718  0.00  0.00     0.009 A 
ATOM      8  C   UNL d   1      26.379 -17.338   0.268  0.00  0.00     0.003 A 
ATOM      9  C   UNL d   1      25.296 -18.202   0.493  0.00  0.00     0.029 A 
ATOM     10  C   UNL d   1      24.154 -18.103  -0.305  0.00  0.00     0.035 A 
ATOM     11  C   UNL d   1      24.152 -17.119  -1.316  0.00  0.00     0.038 A 
BRANCH  10  12
ATOM     12  N   UNL d   1      23.057 -19.003  -0.105  0.00  0.00    -0.327 N 
ATOM     13  C   UNL d   1      21.732 -18.688  -0.408  0.00  0.00     0.226 C 
ATOM     14  O   UNL d   1      21.376 -17.602  -0.893  0.00  0.00    -0.273 OA
ATOM     15  H   UNL d   1      23.278 -19.937   0.222  0.00  0.00     0.169 HD
BRANCH  13  16
ATOM     16  C   UNL d   1      20.609 -19.668  -0.175  0.00  0.00     0.078 C 
ATOM     17  C   UNL d   1      20.037 -19.801   1.260  0.00  0.00     0.014 C 
ATOM     18  C   UNL d   1      18.796 -20.434   0.602  0.00  0.00     0.002 C 
ATOM     19  C   UNL d   1      19.156 -19.597  -0.659  0.00  0.00     0.014 C 
ENDBRANCH  13  16
ENDBRANCH  10  12
ENDBRANCH   5   6
ENDBRANCH   3   5
BRANCH   2  20
ATOM     20  C   UNL d   1      28.042 -14.834  -5.240  0.00  0.00     0.102 C 
ATOM     21  C   UNL d   1      28.635 -14.088  -6.228  0.00  0.00     0.049 C 
ATOM     22  C   UNL d   1      29.892 -14.602  -6.517  0.00  0.00    -0.005 C 
ATOM     23  C   UNL d   1      30.951 -14.004  -7.189  0.00  0.00     0.050 C 
ATOM     24  C   UNL d   1      29.890 -15.942  -6.175  0.00  0.00     0.043 C 
ATOM     25  C   UNL d   1      31.916 -14.778  -7.804  0.00  0.00     0.103 C 
ATOM     26  C   UNL d   1      31.856 -16.168  -7.678  0.00  0.00     0.038 C 
ATOM     27  C   UNL d   1      30.852 -16.785  -6.839  0.00  0.00     0.033 C 
ATOM     28  N   UNL d   1      28.881 -15.989  -5.160  0.00  0.00    -0.351 N 
ATOM     29  H   UNL d   1      28.861 -16.636  -4.376  0.00  0.00     0.166 HD
BRANCH  25  30
ATOM     30  N   UNL d   1      32.877 -14.059  -8.659  0.00  0.00    -0.116 N 
ATOM     31  O   UNL d   1      32.512 -13.773  -9.813  0.00  0.00    -0.532 OA
ATOM     32  O   UNL d   1      33.995 -13.799  -8.200  0.00  0.00    -0.532 OA
ENDBRANCH  25  30
ENDBRANCH   2  20
TORSDOF 6
ENDMDL
