MODEL 1
REMARK VINA RESULT:    -8.342      0.000      0.000
REMARK INTER + INTRA:         -12.990
REMARK INTER:                 -11.027
REMARK INTRA:                  -1.963
REMARK CONF_INDEPENDENT:        2.685
REMARK UNBOUND:                -1.963
REMARK  9 active torsions:
REMARK  status: ('A' for Active; 'I' for Inactive)
REMARK    1  A    between atoms: O_2  and  C_3 
REMARK    2  A    between atoms: C_6  and  N_7 
REMARK    3  A    between atoms: N_7  and  C_8 
REMARK    4  A    between atoms: C_9  and  C_10 
REMARK    5  A    between atoms: C_10  and  C_12 
REMARK    6  A    between atoms: C_15  and  C_16 
REMARK    7  A    between atoms: C_16  and  N_17 
REMARK    8  A    between atoms: N_17  and  C_18 
REMARK    9  A    between atoms: C_21  and  C_22 
ROOT
ATOM      1  C   UNL d   1      26.809 -14.239  -4.849  0.00  0.00     0.114 C 
ATOM      2  N   UNL d   1      27.004 -15.394  -5.394  0.00  0.00    -0.134 NA
ATOM      3  O   UNL d   1      27.833 -15.200  -6.521  0.00  0.00    -0.249 OA
ATOM      4  C   UNL d   1      28.290 -13.840  -6.543  0.00  0.00     0.178 C 
ATOM      5  C   UNL d   1      27.459 -13.091  -5.515  0.00  0.00     0.102 C 
ENDROOT
BRANCH   4   6
ATOM      6  C   UNL d   1      29.813 -13.753  -6.273  0.00  0.00     0.156 C 
BRANCH   6   7
ATOM      7  N   UNL d   1      30.604 -14.688  -7.073  0.00  0.00    -0.372 N 
ATOM      8  H   UNL d   1      31.369 -14.270  -7.614  0.00  0.00     0.161 HD
BRANCH   7   9
ATOM      9  C   UNL d   1      30.721 -16.023  -6.763  0.00  0.00     0.123 A 
ATOM     10  N   UNL d   1      29.926 -16.530  -5.804  0.00  0.00    -0.350 N 
ATOM     11  C   UNL d   1      30.030 -17.782  -5.327  0.00  0.00     0.106 A 
ATOM     12  H   UNL d   1      29.192 -15.920  -5.457  0.00  0.00     0.166 HD
ATOM     13  C   UNL d   1      30.945 -18.669  -5.887  0.00  0.00     0.065 A 
ATOM     14  C   UNL d   1      31.713 -18.232  -6.969  0.00  0.00     0.045 A 
ATOM     15  C   UNL d   1      31.640 -16.899  -7.373  0.00  0.00     0.078 A 
ATOM     16 CL   UNL d   1      32.749 -16.335  -8.563  0.00  0.00    -0.080 Cl
BRANCH  13  17
ATOM     17  C   UNL d   1      31.124 -20.034  -5.278  0.00  0.00     0.418 C 
ATOM     18  F   UNL d   1      29.919 -20.607  -5.021  0.00  0.00    -0.166 F 
ATOM     19  F   UNL d   1      31.778 -20.878  -6.111  0.00  0.00    -0.166 F 
ATOM     20  F   UNL d   1      31.805 -20.017  -4.108  0.00  0.00    -0.166 F 
ENDBRANCH  13  17
ENDBRANCH   7   9
ENDBRANCH   6   7
ENDBRANCH   4   6
BRANCH   1  21
ATOM     21  C   UNL d   1      26.010 -14.055  -3.581  0.00  0.00     0.200 C 
ATOM     22  O   UNL d   1      25.661 -12.914  -3.279  0.00  0.00    -0.286 OA
BRANCH  21  23
ATOM     23  C   UNL d   1      25.627 -15.263  -2.799  0.00  0.00     0.074 C 
ATOM     24  C   UNL d   1      25.586 -15.205  -1.459  0.00  0.00     0.092 C 
BRANCH  24  25
ATOM     25  N   UNL d   1      25.257 -16.205  -0.571  0.00  0.00    -0.366 N 
ATOM     26  H   UNL d   1      25.903 -16.378   0.193  0.00  0.00     0.165 HD
BRANCH  25  27
ATOM     27  C   UNL d   1      24.184 -17.121  -0.658  0.00  0.00     0.032 A 
ATOM     28  C   UNL d   1      22.880 -16.656  -0.898  0.00  0.00     0.032 A 
ATOM     29  C   UNL d   1      21.784 -17.536  -0.889  0.00  0.00     0.039 A 
ATOM     30  C   UNL d   1      21.974 -18.902  -0.694  0.00  0.00     0.068 A 
ATOM     31  C   UNL d   1      23.264 -19.388  -0.528  0.00  0.00     0.039 A 
ATOM     32  C   UNL d   1      24.350 -18.504  -0.509  0.00  0.00     0.032 A 
BRANCH  30  33
ATOM     33  O   UNL d   1      20.863 -19.693  -0.789  0.00  0.00    -0.356 OA
ATOM     34  C   UNL d   1      20.110 -19.826   0.413  0.00  0.00     0.210 C 
ENDBRANCH  30  33
ENDBRANCH  25  27
ENDBRANCH  24  25
ENDBRANCH  21  23
ENDBRANCH   1  21
TORSDOF 9
ENDMDL
MODEL 2
REMARK VINA RESULT:    -8.133      1.100      1.472
REMARK INTER + INTRA:         -13.062
REMARK INTER:                 -10.818
REMARK INTRA:                  -2.244
REMARK CONF_INDEPENDENT:        2.685
REMARK UNBOUND:                -2.244
REMARK  9 active torsions:
REMARK  status: ('A' for Active; 'I' for Inactive)
REMARK    1  A    between atoms: O_2  and  C_3 
REMARK    2  A    between atoms: C_6  and  N_7 
REMARK    3  A    between atoms: N_7  and  C_8 
REMARK    4  A    between atoms: C_9  and  C_10 
REMARK    5  A    between atoms: C_10  and  C_12 
REMARK    6  A    between atoms: C_15  and  C_16 
REMARK    7  A    between atoms: C_16  and  N_17 
REMARK    8  A    between atoms: N_17  and  C_18 
REMARK    9  A    between atoms: C_21  and  C_22 
ROOT
ATOM      1  C   UNL d   1      27.449 -14.636  -4.248  0.00  0.00     0.114 C 
ATOM      2  N   UNL d   1      27.106 -15.554  -5.090  0.00  0.00    -0.134 NA
ATOM      3  O   UNL d   1      27.537 -15.144  -6.370  0.00  0.00    -0.249 OA
ATOM      4  C   UNL d   1      28.339 -13.961  -6.242  0.00  0.00     0.178 C 
ATOM      5  C   UNL d   1      28.152 -13.467  -4.817  0.00  0.00     0.102 C 
ENDROOT
BRANCH   4   6
ATOM      6  C   UNL d   1      29.821 -14.245  -6.596  0.00  0.00     0.156 C 
BRANCH   6   7
ATOM      7  N   UNL d   1      30.033 -15.550  -7.219  0.00  0.00    -0.372 N 
ATOM      8  H   UNL d   1      30.338 -15.528  -8.199  0.00  0.00     0.161 HD
BRANCH   7   9
ATOM      9  C   UNL d   1      30.344 -16.681  -6.499  0.00  0.00     0.123 A 
ATOM     10  N   UNL d   1      29.727 -16.879  -5.321  0.00  0.00    -0.350 N 
ATOM     11  C   UNL d   1      30.032 -17.874  -4.471  0.00  0.00     0.106 A 
ATOM     12  H   UNL d   1      28.967 -16.241  -5.096  0.00  0.00     0.166 HD
ATOM     13  C   UNL d   1      30.979 -18.830  -4.827  0.00  0.00     0.065 A 
ATOM     14  C   UNL d   1      31.563 -18.743  -6.093  0.00  0.00     0.045 A 
ATOM     15  C   UNL d   1      31.288 -17.644  -6.906  0.00  0.00     0.078 A 
ATOM     16 CL   UNL d   1      32.182 -17.450  -8.365  0.00  0.00    -0.080 Cl
BRANCH  13  17
ATOM     17  C   UNL d   1      31.386 -19.879  -3.828  0.00  0.00     0.418 C 
ATOM     18  F   UNL d   1      30.975 -19.539  -2.578  0.00  0.00    -0.166 F 
ATOM     19  F   UNL d   1      30.825 -21.082  -4.100  0.00  0.00    -0.166 F 
ATOM     20  F   UNL d   1      32.725 -20.068  -3.759  0.00  0.00    -0.166 F 
ENDBRANCH  13  17
ENDBRANCH   7   9
ENDBRANCH   6   7
ENDBRANCH   4   6
BRANCH   1  21
ATOM     21  C   UNL d   1      27.203 -14.751  -2.763  0.00  0.00     0.200 C 
ATOM     22  O   UNL d   1      27.743 -13.929  -2.023  0.00  0.00    -0.286 OA
BRANCH  21  23
ATOM     23  C   UNL d   1      26.269 -15.803  -2.274  0.00  0.00     0.074 C 
ATOM     24  C   UNL d   1      26.548 -16.470  -1.144  0.00  0.00     0.092 C 
BRANCH  24  25
ATOM     25  N   UNL d   1      25.816 -17.466  -0.538  0.00  0.00    -0.366 N 
ATOM     26  H   UNL d   1      26.333 -18.204  -0.071  0.00  0.00     0.165 HD
BRANCH  25  27
ATOM     27  C   UNL d   1      24.417 -17.665  -0.590  0.00  0.00     0.032 A 
ATOM     28  C   UNL d   1      23.884 -18.958  -0.462  0.00  0.00     0.032 A 
ATOM     29  C   UNL d   1      22.506 -19.192  -0.611  0.00  0.00     0.039 A 
ATOM     30  C   UNL d   1      21.628 -18.134  -0.838  0.00  0.00     0.068 A 
ATOM     31  C   UNL d   1      22.129 -16.841  -0.894  0.00  0.00     0.039 A 
ATOM     32  C   UNL d   1      23.507 -16.615  -0.774  0.00  0.00     0.032 A 
BRANCH  30  33
ATOM     33  O   UNL d   1      20.297 -18.443  -0.881  0.00  0.00    -0.356 OA
ATOM     34  C   UNL d   1      19.916 -19.586  -0.120  0.00  0.00     0.210 C 
ENDBRANCH  30  33
ENDBRANCH  25  27
ENDBRANCH  24  25
ENDBRANCH  21  23
ENDBRANCH   1  21
TORSDOF 9
ENDMDL
MODEL 3
REMARK VINA RESULT:    -8.069      2.380      3.638
REMARK INTER + INTRA:         -12.925
REMARK INTER:                 -10.754
REMARK INTRA:                  -2.171
REMARK CONF_INDEPENDENT:        2.685
REMARK UNBOUND:                -2.171
REMARK  9 active torsions:
REMARK  status: ('A' for Active; 'I' for Inactive)
REMARK    1  A    between atoms: O_2  and  C_3 
REMARK    2  A    between atoms: C_6  and  N_7 
REMARK    3  A    between atoms: N_7  and  C_8 
REMARK    4  A    between atoms: C_9  and  C_10 
REMARK    5  A    between atoms: C_10  and  C_12 
REMARK    6  A    between atoms: C_15  and  C_16 
REMARK    7  A    between atoms: C_16  and  N_17 
REMARK    8  A    between atoms: N_17  and  C_18 
REMARK    9  A    between atoms: C_21  and  C_22 
ROOT
ATOM      1  C   UNL d   1      25.533 -15.558  -2.996  0.00  0.00     0.114 C 
ATOM      2  N   UNL d   1      25.525 -15.900  -4.242  0.00  0.00    -0.134 NA
ATOM      3  O   UNL d   1      25.085 -14.786  -4.989  0.00  0.00    -0.249 OA
ATOM      4  C   UNL d   1      24.978 -13.648  -4.122  0.00  0.00     0.178 C 
ATOM      5  C   UNL d   1      25.097 -14.177  -2.702  0.00  0.00     0.102 C 
ENDROOT
BRANCH   4   6
ATOM      6  C   UNL d   1      26.046 -12.579  -4.462  0.00  0.00     0.156 C 
BRANCH   6   7
ATOM      7  N   UNL d   1      26.673 -12.773  -5.769  0.00  0.00    -0.372 N 
ATOM      8  H   UNL d   1      26.598 -11.983  -6.418  0.00  0.00     0.161 HD
BRANCH   7   9
ATOM      9  C   UNL d   1      27.717 -13.646  -5.974  0.00  0.00     0.123 A 
ATOM     10  N   UNL d   1      27.787 -14.751  -5.210  0.00  0.00    -0.350 N 
ATOM     11  C   UNL d   1      28.819 -15.613  -5.229  0.00  0.00     0.106 A 
ATOM     12  H   UNL d   1      26.986 -14.940  -4.614  0.00  0.00     0.166 HD
ATOM     13  C   UNL d   1      29.859 -15.436  -6.136  0.00  0.00     0.065 A 
ATOM     14  C   UNL d   1      29.778 -14.372  -7.038  0.00  0.00     0.045 A 
ATOM     15  C   UNL d   1      28.738 -13.449  -6.924  0.00  0.00     0.078 A 
ATOM     16 CL   UNL d   1      28.779 -12.034  -7.904  0.00  0.00    -0.080 Cl
BRANCH  13  17
ATOM     17  C   UNL d   1      31.056 -16.347  -6.079  0.00  0.00     0.418 C 
ATOM     18  F   UNL d   1      32.198 -15.658  -6.341  0.00  0.00    -0.166 F 
ATOM     19  F   UNL d   1      31.215 -16.896  -4.851  0.00  0.00    -0.166 F 
ATOM     20  F   UNL d   1      31.002 -17.365  -6.969  0.00  0.00    -0.166 F 
ENDBRANCH  13  17
ENDBRANCH   7   9
ENDBRANCH   6   7
ENDBRANCH   4   6
BRANCH   1  21
ATOM     21  C   UNL d   1      26.003 -16.479  -1.896  0.00  0.00     0.200 C 
ATOM     22  O   UNL d   1      27.122 -16.982  -2.003  0.00  0.00    -0.286 OA
BRANCH  21  23
ATOM     23  C   UNL d   1      25.126 -16.678  -0.709  0.00  0.00     0.074 C 
ATOM     24  C   UNL d   1      24.104 -17.545  -0.773  0.00  0.00     0.092 C 
BRANCH  24  25
ATOM     25  N   UNL d   1      23.192 -17.864   0.209  0.00  0.00    -0.366 N 
ATOM     26  H   UNL d   1      23.466 -17.687   1.170  0.00  0.00     0.165 HD
BRANCH  25  27
ATOM     27  C   UNL d   1      21.956 -18.531   0.057  0.00  0.00     0.032 A 
ATOM     28  C   UNL d   1      21.238 -18.950   1.190  0.00  0.00     0.032 A 
ATOM     29  C   UNL d   1      20.057 -19.702   1.062  0.00  0.00     0.039 A 
ATOM     30  C   UNL d   1      19.543 -20.007  -0.196  0.00  0.00     0.068 A 
ATOM     31  C   UNL d   1      20.202 -19.539  -1.326  0.00  0.00     0.039 A 
ATOM     32  C   UNL d   1      21.393 -18.813  -1.195  0.00  0.00     0.032 A 
BRANCH  30  33
ATOM     33  O   UNL d   1      18.346 -20.666  -0.225  0.00  0.00    -0.356 OA
ATOM     34  C   UNL d   1      17.985 -21.317   0.990  0.00  0.00     0.210 C 
ENDBRANCH  30  33
ENDBRANCH  25  27
ENDBRANCH  24  25
ENDBRANCH  21  23
ENDBRANCH   1  21
TORSDOF 9
ENDMDL
MODEL 4
REMARK VINA RESULT:    -7.970      1.683      2.376
REMARK INTER + INTRA:         -11.990
REMARK INTER:                 -10.655
REMARK INTRA:                  -1.335
REMARK CONF_INDEPENDENT:        2.685
REMARK UNBOUND:                -1.335
REMARK  9 active torsions:
REMARK  status: ('A' for Active; 'I' for Inactive)
REMARK    1  A    between atoms: O_2  and  C_3 
REMARK    2  A    between atoms: C_6  and  N_7 
REMARK    3  A    between atoms: N_7  and  C_8 
REMARK    4  A    between atoms: C_9  and  C_10 
REMARK    5  A    between atoms: C_10  and  C_12 
REMARK    6  A    between atoms: C_15  and  C_16 
REMARK    7  A    between atoms: C_16  and  N_17 
REMARK    8  A    between atoms: N_17  and  C_18 
REMARK    9  A    between atoms: C_21  and  C_22 
ROOT
ATOM      1  C   UNL d   1      27.518 -14.944  -4.852  0.00  0.00     0.114 C 
ATOM      2  N   UNL d   1      27.579 -15.201  -6.118  0.00  0.00    -0.134 NA
ATOM      3  O   UNL d   1      28.936 -15.400  -6.449  0.00  0.00    -0.249 OA
ATOM      4  C   UNL d   1      29.719 -15.418  -5.246  0.00  0.00     0.178 C 
ATOM      5  C   UNL d   1      28.810 -14.920  -4.135  0.00  0.00     0.102 C 
ENDROOT
BRANCH   4   6
ATOM      6  C   UNL d   1      30.297 -16.829  -4.972  0.00  0.00     0.156 C 
BRANCH   6   7
ATOM      7  N   UNL d   1      30.030 -17.789  -6.042  0.00  0.00    -0.372 N 
ATOM      8  H   UNL d   1      29.774 -17.382  -6.948  0.00  0.00     0.161 HD
BRANCH   7   9
ATOM      9  C   UNL d   1      30.568 -19.055  -6.062  0.00  0.00     0.123 A 
ATOM     10  N   UNL d   1      30.413 -19.834  -4.976  0.00  0.00    -0.350 N 
ATOM     11  C   UNL d   1      30.994 -21.036  -4.824  0.00  0.00     0.106 A 
ATOM     12  H   UNL d   1      29.790 -19.482  -4.254  0.00  0.00     0.166 HD
ATOM     13  C   UNL d   1      31.743 -21.584  -5.861  0.00  0.00     0.065 A 
ATOM     14  C   UNL d   1      31.835 -20.872  -7.060  0.00  0.00     0.045 A 
ATOM     15  C   UNL d   1      31.296 -19.589  -7.143  0.00  0.00     0.078 A 
ATOM     16 CL   UNL d   1      31.610 -18.651  -8.552  0.00  0.00    -0.080 Cl
BRANCH  13  17
ATOM     17  C   UNL d   1      32.472 -22.883  -5.643  0.00  0.00     0.418 C 
ATOM     18  F   UNL d   1      31.840 -23.903  -6.281  0.00  0.00    -0.166 F 
ATOM     19  F   UNL d   1      33.732 -22.845  -6.139  0.00  0.00    -0.166 F 
ATOM     20  F   UNL d   1      32.564 -23.237  -4.339  0.00  0.00    -0.166 F 
ENDBRANCH  13  17
ENDBRANCH   7   9
ENDBRANCH   6   7
ENDBRANCH   4   6
BRANCH   1  21
ATOM     21  C   UNL d   1      26.215 -14.728  -4.121  0.00  0.00     0.200 C 
ATOM     22  O   UNL d   1      25.551 -13.731  -4.407  0.00  0.00    -0.286 OA
BRANCH  21  23
ATOM     23  C   UNL d   1      25.764 -15.760  -3.148  0.00  0.00     0.074 C 
ATOM     24  C   UNL d   1      25.716 -15.467  -1.839  0.00  0.00     0.092 C 
BRANCH  24  25
ATOM     25  N   UNL d   1      25.330 -16.279  -0.796  0.00  0.00    -0.366 N 
ATOM     26  H   UNL d   1      25.971 -16.365  -0.014  0.00  0.00     0.165 HD
BRANCH  25  27
ATOM     27  C   UNL d   1      24.195 -17.120  -0.729  0.00  0.00     0.032 A 
ATOM     28  C   UNL d   1      24.352 -18.496  -0.493  0.00  0.00     0.032 A 
ATOM     29  C   UNL d   1      23.248 -19.366  -0.522  0.00  0.00     0.039 A 
ATOM     30  C   UNL d   1      21.963 -18.873  -0.734  0.00  0.00     0.068 A 
ATOM     31  C   UNL d   1      21.782 -17.506  -0.897  0.00  0.00     0.039 A 
ATOM     32  C   UNL d   1      22.887 -16.646  -0.895  0.00  0.00     0.032 A 
BRANCH  30  33
ATOM     33  O   UNL d   1      20.941 -19.778  -0.658  0.00  0.00    -0.356 OA
ATOM     34  C   UNL d   1      19.651 -19.216  -0.435  0.00  0.00     0.210 C 
ENDBRANCH  30  33
ENDBRANCH  25  27
ENDBRANCH  24  25
ENDBRANCH  21  23
ENDBRANCH   1  21
TORSDOF 9
ENDMDL
MODEL 5
REMARK VINA RESULT:    -7.796      1.419      1.684
REMARK INTER + INTRA:         -12.835
REMARK INTER:                 -10.481
REMARK INTRA:                  -2.354
REMARK CONF_INDEPENDENT:        2.685
REMARK UNBOUND:                -2.354
REMARK  9 active torsions:
REMARK  status: ('A' for Active; 'I' for Inactive)
REMARK    1  A    between atoms: O_2  and  C_3 
REMARK    2  A    between atoms: C_6  and  N_7 
REMARK    3  A    between atoms: N_7  and  C_8 
REMARK    4  A    between atoms: C_9  and  C_10 
REMARK    5  A    between atoms: C_10  and  C_12 
REMARK    6  A    between atoms: C_15  and  C_16 
REMARK    7  A    between atoms: C_16  and  N_17 
REMARK    8  A    between atoms: N_17  and  C_18 
REMARK    9  A    between atoms: C_21  and  C_22 
ROOT
ATOM      1  C   UNL d   1      27.801 -15.097  -3.961  0.00  0.00     0.114 C 
ATOM      2  N   UNL d   1      27.296 -15.690  -4.992  0.00  0.00    -0.134 NA
ATOM      3  O   UNL d   1      27.340 -14.783  -6.072  0.00  0.00    -0.249 OA
ATOM      4  C   UNL d   1      28.079 -13.616  -5.680  0.00  0.00     0.178 C 
ATOM      5  C   UNL d   1      28.256 -13.707  -4.173  0.00  0.00     0.102 C 
ENDROOT
BRANCH   4   6
ATOM      6  C   UNL d   1      29.423 -13.518  -6.444  0.00  0.00     0.156 C 
BRANCH   6   7
ATOM      7  N   UNL d   1      29.688 -14.665  -7.311  0.00  0.00    -0.372 N 
ATOM      8  H   UNL d   1      29.773 -14.454  -8.311  0.00  0.00     0.161 HD
BRANCH   7   9
ATOM      9  C   UNL d   1      30.305 -15.812  -6.866  0.00  0.00     0.123 A 
ATOM     10  N   UNL d   1      29.667 -16.570  -5.956  0.00  0.00    -0.350 N 
ATOM     11  C   UNL d   1      30.213 -17.640  -5.355  0.00  0.00     0.106 A 
ATOM     12  H   UNL d   1      28.705 -16.315  -5.750  0.00  0.00     0.166 HD
ATOM     13  C   UNL d   1      31.482 -18.077  -5.724  0.00  0.00     0.065 A 
ATOM     14  C   UNL d   1      32.141 -17.399  -6.753  0.00  0.00     0.045 A 
ATOM     15  C   UNL d   1      31.579 -16.239  -7.286  0.00  0.00     0.078 A 
ATOM     16 CL   UNL d   1      32.508 -15.306  -8.396  0.00  0.00    -0.080 Cl
BRANCH  13  17
ATOM     17  C   UNL d   1      32.124 -19.213  -4.973  0.00  0.00     0.418 C 
ATOM     18  F   UNL d   1      33.467 -19.224  -5.175  0.00  0.00    -0.166 F 
ATOM     19  F   UNL d   1      31.939 -19.103  -3.636  0.00  0.00    -0.166 F 
ATOM     20  F   UNL d   1      31.663 -20.431  -5.343  0.00  0.00    -0.166 F 
ENDBRANCH  13  17
ENDBRANCH   7   9
ENDBRANCH   6   7
ENDBRANCH   4   6
BRANCH   1  21
ATOM     21  C   UNL d   1      27.973 -15.779  -2.625  0.00  0.00     0.200 C 
ATOM     22  O   UNL d   1      29.117 -16.052  -2.260  0.00  0.00    -0.286 OA
BRANCH  21  23
ATOM     23  C   UNL d   1      26.766 -16.024  -1.788  0.00  0.00     0.074 C 
ATOM     24  C   UNL d   1      26.748 -17.054  -0.929  0.00  0.00     0.092 C 
BRANCH  24  25
ATOM     25  N   UNL d   1      25.735 -17.438  -0.079  0.00  0.00    -0.366 N 
ATOM     26  H   UNL d   1      25.994 -17.677   0.873  0.00  0.00     0.165 HD
BRANCH  25  27
ATOM     27  C   UNL d   1      24.377 -17.666  -0.399  0.00  0.00     0.032 A 
ATOM     28  C   UNL d   1      23.524 -16.582  -0.665  0.00  0.00     0.032 A 
ATOM     29  C   UNL d   1      22.150 -16.779  -0.887  0.00  0.00     0.039 A 
ATOM     30  C   UNL d   1      21.610 -18.063  -0.898  0.00  0.00     0.068 A 
ATOM     31  C   UNL d   1      22.452 -19.151  -0.709  0.00  0.00     0.039 A 
ATOM     32  C   UNL d   1      23.816 -18.949  -0.461  0.00  0.00     0.032 A 
BRANCH  30  33
ATOM     33  O   UNL d   1      20.283 -18.165  -1.209  0.00  0.00    -0.356 OA
ATOM     34  C   UNL d   1      19.636 -19.337  -0.721  0.00  0.00     0.210 C 
ENDBRANCH  30  33
ENDBRANCH  25  27
ENDBRANCH  24  25
ENDBRANCH  21  23
ENDBRANCH   1  21
TORSDOF 9
ENDMDL
MODEL 6
REMARK VINA RESULT:    -7.676      2.061      2.689
REMARK INTER + INTRA:         -12.089
REMARK INTER:                 -10.361
REMARK INTRA:                  -1.728
REMARK CONF_INDEPENDENT:        2.685
REMARK UNBOUND:                -1.728
REMARK  9 active torsions:
REMARK  status: ('A' for Active; 'I' for Inactive)
REMARK    1  A    between atoms: O_2  and  C_3 
REMARK    2  A    between atoms: C_6  and  N_7 
REMARK    3  A    between atoms: N_7  and  C_8 
REMARK    4  A    between atoms: C_9  and  C_10 
REMARK    5  A    between atoms: C_10  and  C_12 
REMARK    6  A    between atoms: C_15  and  C_16 
REMARK    7  A    between atoms: C_16  and  N_17 
REMARK    8  A    between atoms: N_17  and  C_18 
REMARK    9  A    between atoms: C_21  and  C_22 
ROOT
ATOM      1  C   UNL d   1      27.329 -14.695  -4.940  0.00  0.00     0.114 C 
ATOM      2  N   UNL d   1      27.507 -15.320  -6.057  0.00  0.00    -0.134 NA
ATOM      3  O   UNL d   1      28.891 -15.322  -6.332  0.00  0.00    -0.249 OA
ATOM      4  C   UNL d   1      29.598 -14.791  -5.201  0.00  0.00     0.178 C 
ATOM      5  C   UNL d   1      28.550 -14.171  -4.292  0.00  0.00     0.102 C 
ENDROOT
BRANCH   4   6
ATOM      6  C   UNL d   1      30.440 -15.885  -4.500  0.00  0.00     0.156 C 
BRANCH   6   7
ATOM      7  N   UNL d   1      29.971 -17.244  -4.764  0.00  0.00    -0.372 N 
ATOM      8  H   UNL d   1      28.992 -17.429  -4.521  0.00  0.00     0.161 HD
BRANCH   7   9
ATOM      9  C   UNL d   1      30.537 -18.059  -5.717  0.00  0.00     0.123 A 
ATOM     10  N   UNL d   1      30.510 -17.657  -7.000  0.00  0.00    -0.350 N 
ATOM     11  C   UNL d   1      30.917 -18.414  -8.033  0.00  0.00     0.106 A 
ATOM     12  H   UNL d   1      30.187 -16.708  -7.170  0.00  0.00     0.166 HD
ATOM     13  C   UNL d   1      31.483 -19.664  -7.801  0.00  0.00     0.065 A 
ATOM     14  C   UNL d   1      31.648 -20.081  -6.478  0.00  0.00     0.045 A 
ATOM     15  C   UNL d   1      31.130 -19.306  -5.441  0.00  0.00     0.078 A 
ATOM     16 CL   UNL d   1      31.155 -19.944  -3.842  0.00  0.00    -0.080 Cl
BRANCH  13  17
ATOM     17  C   UNL d   1      31.840 -20.545  -8.969  0.00  0.00     0.418 C 
ATOM     18  F   UNL d   1      33.065 -20.220  -9.460  0.00  0.00    -0.166 F 
ATOM     19  F   UNL d   1      31.904 -21.851  -8.616  0.00  0.00    -0.166 F 
ATOM     20  F   UNL d   1      30.969 -20.450 -10.001  0.00  0.00    -0.166 F 
ENDBRANCH  13  17
ENDBRANCH   7   9
ENDBRANCH   6   7
ENDBRANCH   4   6
BRANCH   1  21
ATOM     21  C   UNL d   1      25.974 -14.539  -4.293  0.00  0.00     0.200 C 
ATOM     22  O   UNL d   1      25.272 -13.591  -4.644  0.00  0.00    -0.286 OA
BRANCH  21  23
ATOM     23  C   UNL d   1      25.526 -15.574  -3.320  0.00  0.00     0.074 C 
ATOM     24  C   UNL d   1      26.124 -15.665  -2.122  0.00  0.00     0.092 C 
BRANCH  24  25
ATOM     25  N   UNL d   1      25.853 -16.546  -1.098  0.00  0.00    -0.366 N 
ATOM     26  H   UNL d   1      26.642 -16.888  -0.560  0.00  0.00     0.165 HD
BRANCH  25  27
ATOM     27  C   UNL d   1      24.612 -17.142  -0.776  0.00  0.00     0.032 A 
ATOM     28  C   UNL d   1      24.551 -18.506  -0.447  0.00  0.00     0.032 A 
ATOM     29  C   UNL d   1      23.317 -19.142  -0.221  0.00  0.00     0.039 A 
ATOM     30  C   UNL d   1      22.128 -18.419  -0.268  0.00  0.00     0.068 A 
ATOM     31  C   UNL d   1      22.177 -17.054  -0.520  0.00  0.00     0.039 A 
ATOM     32  C   UNL d   1      23.405 -16.430  -0.772  0.00  0.00     0.032 A 
BRANCH  30  33
ATOM     33  O   UNL d   1      20.986 -19.099   0.051  0.00  0.00    -0.356 OA
ATOM     34  C   UNL d   1      20.093 -19.325  -1.036  0.00  0.00     0.210 C 
ENDBRANCH  30  33
ENDBRANCH  25  27
ENDBRANCH  24  25
ENDBRANCH  21  23
ENDBRANCH   1  21
TORSDOF 9
ENDMDL
MODEL 7
REMARK VINA RESULT:    -7.540      1.654      1.810
REMARK INTER + INTRA:         -11.860
REMARK INTER:                 -10.225
REMARK INTRA:                  -1.635
REMARK CONF_INDEPENDENT:        2.685
REMARK UNBOUND:                -1.635
REMARK  9 active torsions:
REMARK  status: ('A' for Active; 'I' for Inactive)
REMARK    1  A    between atoms: O_2  and  C_3 
REMARK    2  A    between atoms: C_6  and  N_7 
REMARK    3  A    between atoms: N_7  and  C_8 
REMARK    4  A    between atoms: C_9  and  C_10 
REMARK    5  A    between atoms: C_10  and  C_12 
REMARK    6  A    between atoms: C_15  and  C_16 
REMARK    7  A    between atoms: C_16  and  N_17 
REMARK    8  A    between atoms: N_17  and  C_18 
REMARK    9  A    between atoms: C_21  and  C_22 
ROOT
ATOM      1  C   UNL d   1      26.580 -14.212  -4.785  0.00  0.00     0.114 C 
ATOM      2  N   UNL d   1      26.663 -15.391  -5.308  0.00  0.00    -0.134 NA
ATOM      3  O   UNL d   1      27.844 -15.436  -6.080  0.00  0.00    -0.249 OA
ATOM      4  C   UNL d   1      28.596 -14.233  -5.862  0.00  0.00     0.178 C 
ATOM      5  C   UNL d   1      27.675 -13.278  -5.122  0.00  0.00     0.102 C 
ENDROOT
BRANCH   4   6
ATOM      6  C   UNL d   1      29.911 -14.523  -5.097  0.00  0.00     0.156 C 
BRANCH   6   7
ATOM      7  N   UNL d   1      29.819 -15.662  -4.185  0.00  0.00    -0.372 N 
ATOM      8  H   UNL d   1      29.030 -15.643  -3.531  0.00  0.00     0.161 HD
BRANCH   7   9
ATOM      9  C   UNL d   1      30.352 -16.898  -4.475  0.00  0.00     0.123 A 
ATOM     10  N   UNL d   1      30.040 -17.469  -5.653  0.00  0.00    -0.350 N 
ATOM     11  C   UNL d   1      30.395 -18.718  -5.998  0.00  0.00     0.106 A 
ATOM     12  H   UNL d   1      29.531 -16.890  -6.315  0.00  0.00     0.166 HD
ATOM     13  C   UNL d   1      31.203 -19.473  -5.153  0.00  0.00     0.065 A 
ATOM     14  C   UNL d   1      31.659 -18.883  -3.972  0.00  0.00     0.045 A 
ATOM     15  C   UNL d   1      31.193 -17.620  -3.607  0.00  0.00     0.078 A 
ATOM     16 CL   UNL d   1      31.598 -17.008  -2.049  0.00  0.00    -0.080 Cl
BRANCH  13  17
ATOM     17  C   UNL d   1      31.509 -20.905  -5.503  0.00  0.00     0.418 C 
ATOM     18  F   UNL d   1      30.644 -21.747  -4.880  0.00  0.00    -0.166 F 
ATOM     19  F   UNL d   1      31.381 -21.139  -6.831  0.00  0.00    -0.166 F 
ATOM     20  F   UNL d   1      32.756 -21.292  -5.146  0.00  0.00    -0.166 F 
ENDBRANCH  13  17
ENDBRANCH   7   9
ENDBRANCH   6   7
ENDBRANCH   4   6
BRANCH   1  21
ATOM     21  C   UNL d   1      25.471 -13.808  -3.844  0.00  0.00     0.200 C 
ATOM     22  O   UNL d   1      25.020 -12.666  -3.941  0.00  0.00    -0.286 OA
BRANCH  21  23
ATOM     23  C   UNL d   1      24.931 -14.825  -2.900  0.00  0.00     0.074 C 
ATOM     24  C   UNL d   1      25.674 -15.228  -1.858  0.00  0.00     0.092 C 
BRANCH  24  25
ATOM     25  N   UNL d   1      25.351 -16.148  -0.885  0.00  0.00    -0.366 N 
ATOM     26  H   UNL d   1      26.030 -16.299  -0.146  0.00  0.00     0.165 HD
BRANCH  25  27
ATOM     27  C   UNL d   1      24.235 -17.015  -0.851  0.00  0.00     0.032 A 
ATOM     28  C   UNL d   1      22.939 -16.502  -1.024  0.00  0.00     0.032 A 
ATOM     29  C   UNL d   1      21.809 -17.328  -0.895  0.00  0.00     0.039 A 
ATOM     30  C   UNL d   1      21.952 -18.691  -0.643  0.00  0.00     0.068 A 
ATOM     31  C   UNL d   1      23.229 -19.228  -0.541  0.00  0.00     0.039 A 
ATOM     32  C   UNL d   1      24.351 -18.396  -0.643  0.00  0.00     0.032 A 
BRANCH  30  33
ATOM     33  O   UNL d   1      20.804 -19.432  -0.620  0.00  0.00    -0.356 OA
ATOM     34  C   UNL d   1      20.457 -19.971   0.652  0.00  0.00     0.210 C 
ENDBRANCH  30  33
ENDBRANCH  25  27
ENDBRANCH  24  25
ENDBRANCH  21  23
ENDBRANCH   1  21
TORSDOF 9
ENDMDL
MODEL 8
REMARK VINA RESULT:    -6.946      2.752      3.312
REMARK INTER + INTRA:         -12.474
REMARK INTER:                  -9.630
REMARK INTRA:                  -2.843
REMARK CONF_INDEPENDENT:        2.685
REMARK UNBOUND:                -2.843
REMARK  9 active torsions:
REMARK  status: ('A' for Active; 'I' for Inactive)
REMARK    1  A    between atoms: O_2  and  C_3 
REMARK    2  A    between atoms: C_6  and  N_7 
REMARK    3  A    between atoms: N_7  and  C_8 
REMARK    4  A    between atoms: C_9  and  C_10 
REMARK    5  A    between atoms: C_10  and  C_12 
REMARK    6  A    between atoms: C_15  and  C_16 
REMARK    7  A    between atoms: C_16  and  N_17 
REMARK    8  A    between atoms: N_17  and  C_18 
REMARK    9  A    between atoms: C_21  and  C_22 
ROOT
ATOM      1  C   UNL d   1      26.635 -14.205  -4.894  0.00  0.00     0.114 C 
ATOM      2  N   UNL d   1      26.916 -15.391  -5.324  0.00  0.00    -0.134 NA
ATOM      3  O   UNL d   1      27.780 -15.251  -6.432  0.00  0.00    -0.249 OA
ATOM      4  C   UNL d   1      28.163 -13.874  -6.562  0.00  0.00     0.178 C 
ATOM      5  C   UNL d   1      27.250 -13.085  -5.638  0.00  0.00     0.102 C 
ENDROOT
BRANCH   4   6
ATOM      6  C   UNL d   1      29.666 -13.676  -6.245  0.00  0.00     0.156 C 
BRANCH   6   7
ATOM      7  N   UNL d   1      30.325 -14.885  -5.752  0.00  0.00    -0.372 N 
ATOM      8  H   UNL d   1      31.176 -15.161  -6.252  0.00  0.00     0.161 HD
BRANCH   7   9
ATOM      9  C   UNL d   1      30.196 -15.330  -4.456  0.00  0.00     0.123 A 
ATOM     10  N   UNL d   1      29.200 -16.188  -4.170  0.00  0.00    -0.350 N 
ATOM     11  C   UNL d   1      28.895 -16.597  -2.927  0.00  0.00     0.106 A 
ATOM     12  H   UNL d   1      28.681 -16.558  -4.962  0.00  0.00     0.166 HD
ATOM     13  C   UNL d   1      29.682 -16.200  -1.849  0.00  0.00     0.065 A 
ATOM     14  C   UNL d   1      30.803 -15.407  -2.105  0.00  0.00     0.045 A 
ATOM     15  C   UNL d   1      31.031 -14.929  -3.395  0.00  0.00     0.078 A 
ATOM     16 CL   UNL d   1      32.291 -13.783  -3.641  0.00  0.00    -0.080 Cl
BRANCH  13  17
ATOM     17  C   UNL d   1      29.271 -16.580  -0.452  0.00  0.00     0.418 C 
ATOM     18  F   UNL d   1      30.320 -17.110   0.230  0.00  0.00    -0.166 F 
ATOM     19  F   UNL d   1      28.854 -15.508   0.262  0.00  0.00    -0.166 F 
ATOM     20  F   UNL d   1      28.278 -17.499  -0.413  0.00  0.00    -0.166 F 
ENDBRANCH  13  17
ENDBRANCH   7   9
ENDBRANCH   6   7
ENDBRANCH   4   6
BRANCH   1  21
ATOM     21  C   UNL d   1      25.776 -13.956  -3.678  0.00  0.00     0.200 C 
ATOM     22  O   UNL d   1      25.438 -12.796  -3.439  0.00  0.00    -0.286 OA
BRANCH  21  23
ATOM     23  C   UNL d   1      25.323 -15.124  -2.874  0.00  0.00     0.074 C 
ATOM     24  C   UNL d   1      25.757 -15.274  -1.613  0.00  0.00     0.092 C 
BRANCH  24  25
ATOM     25  N   UNL d   1      25.453 -16.277  -0.720  0.00  0.00    -0.366 N 
ATOM     26  H   UNL d   1      26.171 -16.534  -0.049  0.00  0.00     0.165 HD
BRANCH  25  27
ATOM     27  C   UNL d   1      24.300 -17.094  -0.696  0.00  0.00     0.032 A 
ATOM     28  C   UNL d   1      24.423 -18.482  -0.519  0.00  0.00     0.032 A 
ATOM     29  C   UNL d   1      23.300 -19.324  -0.591  0.00  0.00     0.039 A 
ATOM     30  C   UNL d   1      22.028 -18.794  -0.791  0.00  0.00     0.068 A 
ATOM     31  C   UNL d   1      21.879 -17.417  -0.895  0.00  0.00     0.039 A 
ATOM     32  C   UNL d   1      23.004 -16.583  -0.850  0.00  0.00     0.032 A 
BRANCH  30  33
ATOM     33  O   UNL d   1      20.985 -19.677  -0.759  0.00  0.00    -0.356 OA
ATOM     34  C   UNL d   1      20.022 -19.440   0.263  0.00  0.00     0.210 C 
ENDBRANCH  30  33
ENDBRANCH  25  27
ENDBRANCH  24  25
ENDBRANCH  21  23
ENDBRANCH   1  21
TORSDOF 9
ENDMDL
MODEL 9
REMARK VINA RESULT:    -6.004      4.075      4.947
REMARK INTER + INTRA:         -11.822
REMARK INTER:                  -8.689
REMARK INTRA:                  -3.133
REMARK CONF_INDEPENDENT:        2.685
REMARK UNBOUND:                -3.133
REMARK  9 active torsions:
REMARK  status: ('A' for Active; 'I' for Inactive)
REMARK    1  A    between atoms: O_2  and  C_3 
REMARK    2  A    between atoms: C_6  and  N_7 
REMARK    3  A    between atoms: N_7  and  C_8 
REMARK    4  A    between atoms: C_9  and  C_10 
REMARK    5  A    between atoms: C_10  and  C_12 
REMARK    6  A    between atoms: C_15  and  C_16 
REMARK    7  A    between atoms: C_16  and  N_17 
REMARK    8  A    between atoms: N_17  and  C_18 
REMARK    9  A    between atoms: C_21  and  C_22 
ROOT
ATOM      1  C   UNL d   1      26.680 -13.524  -4.535  0.00  0.00     0.114 C 
ATOM      2  N   UNL d   1      27.865 -13.039  -4.710  0.00  0.00    -0.134 NA
ATOM      3  O   UNL d   1      27.802 -11.651  -4.459  0.00  0.00    -0.249 OA
ATOM      4  C   UNL d   1      26.504 -11.324  -3.939  0.00  0.00     0.178 C 
ATOM      5  C   UNL d   1      25.635 -12.552  -4.150  0.00  0.00     0.102 C 
ENDROOT
BRANCH   4   6
ATOM      6  C   UNL d   1      26.587 -10.886  -2.456  0.00  0.00     0.156 C 
BRANCH   6   7
ATOM      7  N   UNL d   1      27.821 -11.302  -1.790  0.00  0.00    -0.372 N 
ATOM      8  H   UNL d   1      28.310 -10.569  -1.266  0.00  0.00     0.161 HD
BRANCH   7   9
ATOM      9  C   UNL d   1      28.063 -12.602  -1.409  0.00  0.00     0.123 A 
ATOM     10  N   UNL d   1      28.655 -13.428  -2.291  0.00  0.00    -0.350 N 
ATOM     11  C   UNL d   1      28.832 -14.744  -2.085  0.00  0.00     0.106 A 
ATOM     12  H   UNL d   1      29.008 -13.001  -3.143  0.00  0.00     0.166 HD
ATOM     13  C   UNL d   1      28.470 -15.315  -0.868  0.00  0.00     0.065 A 
ATOM     14  C   UNL d   1      27.963 -14.479   0.130  0.00  0.00     0.045 A 
ATOM     15  C   UNL d   1      27.709 -13.138  -0.156  0.00  0.00     0.078 A 
ATOM     16 CL   UNL d   1      26.886 -12.185   1.018  0.00  0.00    -0.080 Cl
BRANCH  13  17
ATOM     17  C   UNL d   1      28.578 -16.805  -0.687  0.00  0.00     0.418 C 
ATOM     18  F   UNL d   1      27.825 -17.458  -1.611  0.00  0.00    -0.166 F 
ATOM     19  F   UNL d   1      29.849 -17.244  -0.851  0.00  0.00    -0.166 F 
ATOM     20  F   UNL d   1      28.160 -17.232   0.528  0.00  0.00    -0.166 F 
ENDBRANCH  13  17
ENDBRANCH   7   9
ENDBRANCH   6   7
ENDBRANCH   4   6
BRANCH   1  21
ATOM     21  C   UNL d   1      26.369 -14.996  -4.660  0.00  0.00     0.200 C 
ATOM     22  O   UNL d   1      26.516 -15.525  -5.763  0.00  0.00    -0.286 OA
BRANCH  21  23
ATOM     23  C   UNL d   1      25.970 -15.747  -3.438  0.00  0.00     0.074 C 
ATOM     24  C   UNL d   1      25.565 -15.078  -2.347  0.00  0.00     0.092 C 
BRANCH  24  25
ATOM     25  N   UNL d   1      25.159 -15.590  -1.135  0.00  0.00    -0.366 N 
ATOM     26  H   UNL d   1      25.657 -15.274  -0.308  0.00  0.00     0.165 HD
BRANCH  25  27
ATOM     27  C   UNL d   1      24.208 -16.609  -0.901  0.00  0.00     0.032 A 
ATOM     28  C   UNL d   1      24.633 -17.923  -0.642  0.00  0.00     0.032 A 
ATOM     29  C   UNL d   1      23.705 -18.970  -0.506  0.00  0.00     0.039 A 
ATOM     30  C   UNL d   1      22.337 -18.719  -0.573  0.00  0.00     0.068 A 
ATOM     31  C   UNL d   1      21.898 -17.415  -0.756  0.00  0.00     0.039 A 
ATOM     32  C   UNL d   1      22.826 -16.378  -0.919  0.00  0.00     0.032 A 
BRANCH  30  33
ATOM     33  O   UNL d   1      21.508 -19.782  -0.342  0.00  0.00    -0.356 OA
ATOM     34  C   UNL d   1      20.408 -19.513   0.522  0.00  0.00     0.210 C 
ENDBRANCH  30  33
ENDBRANCH  25  27
ENDBRANCH  24  25
ENDBRANCH  21  23
ENDBRANCH   1  21
TORSDOF 9
ENDMDL
