MODEL 1
REMARK VINA RESULT:   -28.400      0.000      0.000
REMARK INTER + INTRA:         -30.227
REMARK INTER:                 -29.593
REMARK INTRA:                  -0.634
REMARK CONF_INDEPENDENT:        1.193
REMARK UNBOUND:                -0.634
REMARK  4 active torsions:
REMARK  status: ('A' for Active; 'I' for Inactive)
REMARK       I    between atoms: C_2  and  N_3 
REMARK    1  A    between atoms: C_2  and  C_18 
REMARK    2  A    between atoms: N_3  and  C_4 
REMARK    3  A    between atoms: C_4  and  C_5 
REMARK    4  A    between atoms: C_8  and  N_9 
ROOT
ATOM      1  C   UNL d   1      26.676 -16.340  -0.351  0.00  0.00    -0.025 A 
ATOM      2  C   UNL d   1      25.928 -15.167  -0.217  0.00  0.00     0.014 A 
ATOM      3  C   UNL d   1      26.329 -14.165   0.683  0.00  0.00     0.049 A 
ATOM      4  C   UNL d   1      27.488 -14.329   1.447  0.00  0.00     0.102 A 
ATOM      5  N   UNL d   1      28.160 -15.482   1.294  0.00  0.00    -0.352 N 
ATOM      6  C   UNL d   1      27.803 -16.469   0.456  0.00  0.00     0.098 A 
ATOM      7  H   UNL d   1      28.958 -15.612   1.905  0.00  0.00     0.166 HD
ENDROOT
BRANCH   1   8
ATOM      8  C   UNL d   1      26.275 -17.445  -1.305  0.00  0.00     0.162 C 
BRANCH   8   9
ATOM      9  N   UNL d   1      24.834 -17.609  -1.411  0.00  0.00    -0.353 N 
ATOM     10  C   UNL d   1      24.121 -18.164  -0.360  0.00  0.00     0.252 C 
ATOM     11  O   UNL d   1      24.663 -18.566   0.667  0.00  0.00    -0.268 OA
ATOM     12  H   UNL d   1      24.327 -17.168  -2.167  0.00  0.00     0.163 HD
BRANCH  10  13
ATOM     13  C   UNL d   1      22.641 -18.264  -0.495  0.00  0.00     0.037 A 
ATOM     14  C   UNL d   1      21.897 -17.236  -1.076  0.00  0.00     0.036 A 
ATOM     15  C   UNL d   1      20.539 -17.445  -1.270  0.00  0.00     0.121 A 
ATOM     16  N   UNL d   1      19.897 -18.575  -0.918  0.00  0.00    -0.233 NA
ATOM     17  C   UNL d   1      20.641 -19.553  -0.363  0.00  0.00     0.210 A 
ATOM     18  F   UNL d   1      20.010 -20.685  -0.019  0.00  0.00    -0.184 F 
ATOM     19  C   UNL d   1      22.000 -19.451  -0.132  0.00  0.00     0.080 A 
ENDBRANCH  10  13
ENDBRANCH   8   9
ENDBRANCH   1   8
BRANCH   4  20
ATOM     20  N   UNL d   1      27.961 -13.445   2.389  0.00  0.00    -0.367 N 
ATOM     21  C   UNL d   1      29.402 -13.382   2.664  0.00  0.00     0.124 C 
ATOM     22  C   UNL d   1      29.685 -14.089   3.991  0.00  0.00     0.020 C 
ATOM     23  C   UNL d   1      29.266 -13.303   5.233  0.00  0.00     0.002 C 
ATOM     24  C   UNL d   1      27.814 -12.817   5.231  0.00  0.00     0.002 C 
ATOM     25  C   UNL d   1      27.540 -11.743   4.174  0.00  0.00     0.020 C 
ATOM     26  C   UNL d   1      27.133 -12.305   2.802  0.00  0.00     0.124 C 
ENDBRANCH   4  20
TORSDOF 4
ENDMDL
MODEL 2
REMARK VINA RESULT:   -28.071      0.804      1.112
REMARK INTER + INTRA:         -29.841
REMARK INTER:                 -29.264
REMARK INTRA:                  -0.577
REMARK CONF_INDEPENDENT:        1.193
REMARK UNBOUND:                -0.577
REMARK  4 active torsions:
REMARK  status: ('A' for Active; 'I' for Inactive)
REMARK       I    between atoms: C_2  and  N_3 
REMARK    1  A    between atoms: C_2  and  C_18 
REMARK    2  A    between atoms: N_3  and  C_4 
REMARK    3  A    between atoms: C_4  and  C_5 
REMARK    4  A    between atoms: C_8  and  N_9 
ROOT
ATOM      1  C   UNL d   1      26.731 -16.440  -0.223  0.00  0.00    -0.025 A 
ATOM      2  C   UNL d   1      26.263 -15.225  -0.732  0.00  0.00     0.014 A 
ATOM      3  C   UNL d   1      26.647 -14.009  -0.141  0.00  0.00     0.049 A 
ATOM      4  C   UNL d   1      27.511 -14.004   0.957  0.00  0.00     0.102 A 
ATOM      5  N   UNL d   1      27.917 -15.198   1.418  0.00  0.00    -0.352 N 
ATOM      6  C   UNL d   1      27.563 -16.381   0.891  0.00  0.00     0.098 A 
ATOM      7  H   UNL d   1      28.488 -15.177   2.257  0.00  0.00     0.166 HD
ENDROOT
BRANCH   1   8
ATOM      8  C   UNL d   1      26.337 -17.771  -0.827  0.00  0.00     0.162 C 
BRANCH   8   9
ATOM      9  N   UNL d   1      24.905 -17.890  -1.054  0.00  0.00    -0.353 N 
ATOM     10  C   UNL d   1      24.070 -18.279  -0.018  0.00  0.00     0.252 C 
ATOM     11  O   UNL d   1      24.493 -18.570   1.098  0.00  0.00    -0.268 OA
ATOM     12  H   UNL d   1      24.494 -17.527  -1.904  0.00  0.00     0.163 HD
BRANCH  10  13
ATOM     13  C   UNL d   1      22.606 -18.337  -0.285  0.00  0.00     0.037 A 
ATOM     14  C   UNL d   1      21.953 -17.305  -0.958  0.00  0.00     0.036 A 
ATOM     15  C   UNL d   1      20.612 -17.477  -1.270  0.00  0.00     0.121 A 
ATOM     16  N   UNL d   1      19.903 -18.575  -0.948  0.00  0.00    -0.233 NA
ATOM     17  C   UNL d   1      20.560 -19.559  -0.302  0.00  0.00     0.210 A 
ATOM     18  F   UNL d   1      19.863 -20.660   0.013  0.00  0.00    -0.184 F 
ATOM     19  C   UNL d   1      21.895 -19.493   0.049  0.00  0.00     0.080 A 
ENDBRANCH  10  13
ENDBRANCH   8   9
ENDBRANCH   1   8
BRANCH   4  20
ATOM     20  N   UNL d   1      27.926 -12.888   1.648  0.00  0.00    -0.367 N 
ATOM     21  C   UNL d   1      28.982 -13.015   2.661  0.00  0.00     0.124 C 
ATOM     22  C   UNL d   1      28.345 -12.957   4.050  0.00  0.00     0.020 C 
ATOM     23  C   UNL d   1      27.891 -11.563   4.486  0.00  0.00     0.002 C 
ATOM     24  C   UNL d   1      26.977 -10.841   3.492  0.00  0.00     0.002 C 
ATOM     25  C   UNL d   1      27.687 -10.457   2.191  0.00  0.00     0.020 C 
ATOM     26  C   UNL d   1      27.647 -11.551   1.111  0.00  0.00     0.124 C 
ENDBRANCH   4  20
TORSDOF 4
ENDMDL
MODEL 3
REMARK VINA RESULT:   -27.985      4.237      6.060
REMARK INTER + INTRA:         -29.708
REMARK INTER:                 -29.178
REMARK INTRA:                  -0.530
REMARK CONF_INDEPENDENT:        1.193
REMARK UNBOUND:                -0.530
REMARK  4 active torsions:
REMARK  status: ('A' for Active; 'I' for Inactive)
REMARK       I    between atoms: C_2  and  N_3 
REMARK    1  A    between atoms: C_2  and  C_18 
REMARK    2  A    between atoms: N_3  and  C_4 
REMARK    3  A    between atoms: C_4  and  C_5 
REMARK    4  A    between atoms: C_8  and  N_9 
ROOT
ATOM      1  C   UNL d   1      26.681 -16.179  -2.148  0.00  0.00    -0.025 A 
ATOM      2  C   UNL d   1      25.934 -15.587  -3.171  0.00  0.00     0.014 A 
ATOM      3  C   UNL d   1      26.557 -15.177  -4.363  0.00  0.00     0.049 A 
ATOM      4  C   UNL d   1      27.931 -15.368  -4.539  0.00  0.00     0.102 A 
ATOM      5  N   UNL d   1      28.604 -15.925  -3.519  0.00  0.00    -0.352 N 
ATOM      6  C   UNL d   1      28.049 -16.317  -2.360  0.00  0.00     0.098 A 
ATOM      7  H   UNL d   1      29.609 -15.992  -3.638  0.00  0.00     0.166 HD
ENDROOT
BRANCH   1   8
ATOM      8  C   UNL d   1      26.049 -16.630  -0.848  0.00  0.00     0.162 C 
BRANCH   8   9
ATOM      9  N   UNL d   1      24.626 -16.906  -0.974  0.00  0.00    -0.353 N 
ATOM     10  C   UNL d   1      24.093 -18.057  -0.416  0.00  0.00     0.252 C 
ATOM     11  O   UNL d   1      24.784 -18.893   0.163  0.00  0.00    -0.268 OA
ATOM     12  H   UNL d   1      23.997 -16.189  -1.311  0.00  0.00     0.163 HD
BRANCH  10  13
ATOM     13  C   UNL d   1      22.623 -18.272  -0.526  0.00  0.00     0.037 A 
ATOM     14  C   UNL d   1      21.793 -17.308  -1.100  0.00  0.00     0.036 A 
ATOM     15  C   UNL d   1      20.453 -17.622  -1.271  0.00  0.00     0.121 A 
ATOM     16  N   UNL d   1      19.905 -18.795  -0.903  0.00  0.00    -0.233 NA
ATOM     17  C   UNL d   1      20.730 -19.710  -0.355  0.00  0.00     0.210 A 
ATOM     18  F   UNL d   1      20.194 -20.885   0.005  0.00  0.00    -0.184 F 
ATOM     19  C   UNL d   1      22.081 -19.502  -0.147  0.00  0.00     0.080 A 
ENDBRANCH  10  13
ENDBRANCH   8   9
ENDBRANCH   1   8
BRANCH   4  20
ATOM     20  N   UNL d   1      28.662 -14.974  -5.636  0.00  0.00    -0.367 N 
ATOM     21  C   UNL d   1      29.534 -15.944  -6.311  0.00  0.00     0.124 C 
ATOM     22  C   UNL d   1      30.986 -15.654  -5.930  0.00  0.00     0.020 C 
ATOM     23  C   UNL d   1      31.589 -14.422  -6.606  0.00  0.00     0.002 C 
ATOM     24  C   UNL d   1      30.770 -13.137  -6.454  0.00  0.00     0.002 C 
ATOM     25  C   UNL d   1      29.435 -13.181  -7.200  0.00  0.00     0.020 C 
ATOM     26  C   UNL d   1      28.277 -13.766  -6.375  0.00  0.00     0.124 C 
ENDBRANCH   4  20
TORSDOF 4
ENDMDL
MODEL 4
REMARK VINA RESULT:   -27.861      4.082      5.723
REMARK INTER + INTRA:         -29.550
REMARK INTER:                 -29.054
REMARK INTRA:                  -0.496
REMARK CONF_INDEPENDENT:        1.193
REMARK UNBOUND:                -0.496
REMARK  4 active torsions:
REMARK  status: ('A' for Active; 'I' for Inactive)
REMARK       I    between atoms: C_2  and  N_3 
REMARK    1  A    between atoms: C_2  and  C_18 
REMARK    2  A    between atoms: N_3  and  C_4 
REMARK    3  A    between atoms: C_4  and  C_5 
REMARK    4  A    between atoms: C_8  and  N_9 
ROOT
ATOM      1  C   UNL d   1      26.371 -15.817  -2.032  0.00  0.00    -0.025 A 
ATOM      2  C   UNL d   1      27.695 -15.603  -2.426  0.00  0.00     0.014 A 
ATOM      3  C   UNL d   1      28.026 -14.511  -3.247  0.00  0.00     0.049 A 
ATOM      4  C   UNL d   1      27.033 -13.622  -3.668  0.00  0.00     0.102 A 
ATOM      5  N   UNL d   1      25.775 -13.883  -3.277  0.00  0.00    -0.352 N 
ATOM      6  C   UNL d   1      25.416 -14.922  -2.505  0.00  0.00     0.098 A 
ATOM      7  H   UNL d   1      25.060 -13.267  -3.648  0.00  0.00     0.166 HD
ENDROOT
BRANCH   1   8
ATOM      8  C   UNL d   1      25.972 -16.984  -1.154  0.00  0.00     0.162 C 
BRANCH   8   9
ATOM      9  N   UNL d   1      24.568 -17.342  -1.288  0.00  0.00    -0.353 N 
ATOM     10  C   UNL d   1      23.961 -18.134  -0.326  0.00  0.00     0.252 C 
ATOM     11  O   UNL d   1      24.573 -18.589   0.638  0.00  0.00    -0.268 OA
ATOM     12  H   UNL d   1      23.990 -16.880  -1.978  0.00  0.00     0.163 HD
BRANCH  10  13
ATOM     13  C   UNL d   1      22.510 -18.431  -0.479  0.00  0.00     0.037 A 
ATOM     14  C   UNL d   1      21.640 -17.506  -1.057  0.00  0.00     0.036 A 
ATOM     15  C   UNL d   1      20.325 -17.894  -1.269  0.00  0.00     0.121 A 
ATOM     16  N   UNL d   1      19.838 -19.105  -0.938  0.00  0.00    -0.233 NA
ATOM     17  C   UNL d   1      20.701 -19.981  -0.385  0.00  0.00     0.210 A 
ATOM     18  F   UNL d   1      20.226 -21.192  -0.062  0.00  0.00    -0.184 F 
ATOM     19  C   UNL d   1      22.032 -19.699  -0.138  0.00  0.00     0.080 A 
ENDBRANCH  10  13
ENDBRANCH   8   9
ENDBRANCH   1   8
BRANCH   4  20
ATOM     20  N   UNL d   1      27.221 -12.544  -4.503  0.00  0.00    -0.367 N 
ATOM     21  C   UNL d   1      27.306 -11.193  -3.934  0.00  0.00     0.124 C 
ATOM     22  C   UNL d   1      25.988 -10.462  -4.196  0.00  0.00     0.020 C 
ATOM     23  C   UNL d   1      25.792  -9.999  -5.640  0.00  0.00     0.002 C 
ATOM     24  C   UNL d   1      25.971 -11.091  -6.698  0.00  0.00     0.002 C 
ATOM     25  C   UNL d   1      27.414 -11.592  -6.809  0.00  0.00     0.020 C 
ATOM     26  C   UNL d   1      27.747 -12.753  -5.858  0.00  0.00     0.124 C 
ENDBRANCH   4  20
TORSDOF 4
ENDMDL
MODEL 5
REMARK VINA RESULT:   -27.657      3.763      5.737
REMARK INTER + INTRA:         -29.409
REMARK INTER:                 -28.850
REMARK INTRA:                  -0.558
REMARK CONF_INDEPENDENT:        1.193
REMARK UNBOUND:                -0.558
REMARK  4 active torsions:
REMARK  status: ('A' for Active; 'I' for Inactive)
REMARK       I    between atoms: C_2  and  N_3 
REMARK    1  A    between atoms: C_2  and  C_18 
REMARK    2  A    between atoms: N_3  and  C_4 
REMARK    3  A    between atoms: C_4  and  C_5 
REMARK    4  A    between atoms: C_8  and  N_9 
ROOT
ATOM      1  C   UNL d   1      26.715 -16.191  -1.097  0.00  0.00    -0.025 A 
ATOM      2  C   UNL d   1      26.026 -15.628  -2.175  0.00  0.00     0.014 A 
ATOM      3  C   UNL d   1      26.728 -15.114  -3.279  0.00  0.00     0.049 A 
ATOM      4  C   UNL d   1      28.125 -15.172  -3.312  0.00  0.00     0.102 A 
ATOM      5  N   UNL d   1      28.738 -15.706  -2.244  0.00  0.00    -0.352 N 
ATOM      6  C   UNL d   1      28.105 -16.194  -1.165  0.00  0.00     0.098 A 
ATOM      7  H   UNL d   1      29.752 -15.676  -2.256  0.00  0.00     0.166 HD
ENDROOT
BRANCH   1   8
ATOM      8  C   UNL d   1      25.997 -16.750   0.113  0.00  0.00     0.162 C 
BRANCH   8   9
ATOM      9  N   UNL d   1      24.572 -16.941  -0.110  0.00  0.00    -0.353 N 
ATOM     10  C   UNL d   1      24.057 -18.222  -0.237  0.00  0.00     0.252 C 
ATOM     11  O   UNL d   1      24.766 -19.225  -0.206  0.00  0.00    -0.268 OA
ATOM     12  H   UNL d   1      23.933 -16.165  -0.001  0.00  0.00     0.163 HD
BRANCH  10  13
ATOM     13  C   UNL d   1      22.586 -18.369  -0.413  0.00  0.00     0.037 A 
ATOM     14  C   UNL d   1      21.830 -17.379  -1.041  0.00  0.00     0.036 A 
ATOM     15  C   UNL d   1      20.486 -17.632  -1.270  0.00  0.00     0.121 A 
ATOM     16  N   UNL d   1      19.866 -18.772  -0.909  0.00  0.00    -0.233 NA
ATOM     17  C   UNL d   1      20.621 -19.714  -0.308  0.00  0.00     0.210 A 
ATOM     18  F   UNL d   1      20.013 -20.855   0.046  0.00  0.00    -0.184 F 
ATOM     19  C   UNL d   1      21.969 -19.566  -0.040  0.00  0.00     0.080 A 
ENDBRANCH  10  13
ENDBRANCH   8   9
ENDBRANCH   1   8
BRANCH   4  20
ATOM     20  N   UNL d   1      28.926 -14.668  -4.312  0.00  0.00    -0.367 N 
ATOM     21  C   UNL d   1      28.808 -13.254  -4.690  0.00  0.00     0.124 C 
ATOM     22  C   UNL d   1      28.045 -13.157  -6.012  0.00  0.00     0.020 C 
ATOM     23  C   UNL d   1      28.850 -13.571  -7.245  0.00  0.00     0.002 C 
ATOM     24  C   UNL d   1      29.508 -14.950  -7.153  0.00  0.00     0.002 C 
ATOM     25  C   UNL d   1      30.629 -15.015  -6.112  0.00  0.00     0.020 C 
ATOM     26  C   UNL d   1      30.148 -15.383  -4.698  0.00  0.00     0.124 C 
ENDBRANCH   4  20
TORSDOF 4
ENDMDL
MODEL 6
REMARK VINA RESULT:   -27.100      2.795      3.640
REMARK INTER + INTRA:         -28.766
REMARK INTER:                 -28.293
REMARK INTRA:                  -0.472
REMARK CONF_INDEPENDENT:        1.193
REMARK UNBOUND:                -0.472
REMARK  4 active torsions:
REMARK  status: ('A' for Active; 'I' for Inactive)
REMARK       I    between atoms: C_2  and  N_3 
REMARK    1  A    between atoms: C_2  and  C_18 
REMARK    2  A    between atoms: N_3  and  C_4 
REMARK    3  A    between atoms: C_4  and  C_5 
REMARK    4  A    between atoms: C_8  and  N_9 
ROOT
ATOM      1  C   UNL d   1      26.385 -15.832  -0.971  0.00  0.00    -0.025 A 
ATOM      2  C   UNL d   1      25.863 -15.194  -2.100  0.00  0.00     0.014 A 
ATOM      3  C   UNL d   1      26.245 -13.879  -2.415  0.00  0.00     0.049 A 
ATOM      4  C   UNL d   1      27.161 -13.200  -1.606  0.00  0.00     0.102 A 
ATOM      5  N   UNL d   1      27.618 -13.852  -0.525  0.00  0.00    -0.352 N 
ATOM      6  C   UNL d   1      27.268 -15.102  -0.181  0.00  0.00     0.098 A 
ATOM      7  H   UNL d   1      28.228 -13.319   0.087  0.00  0.00     0.166 HD
ENDROOT
BRANCH   1   8
ATOM      8  C   UNL d   1      25.996 -17.246  -0.593  0.00  0.00     0.162 C 
BRANCH   8   9
ATOM      9  N   UNL d   1      24.595 -17.539  -0.858  0.00  0.00    -0.353 N 
ATOM     10  C   UNL d   1      23.833 -18.191   0.098  0.00  0.00     0.252 C 
ATOM     11  O   UNL d   1      24.300 -18.574   1.168  0.00  0.00    -0.268 OA
ATOM     12  H   UNL d   1      24.131 -17.122  -1.654  0.00  0.00     0.163 HD
BRANCH  10  13
ATOM     13  C   UNL d   1      22.392 -18.423  -0.197  0.00  0.00     0.037 A 
ATOM     14  C   UNL d   1      21.648 -17.504  -0.938  0.00  0.00     0.036 A 
ATOM     15  C   UNL d   1      20.343 -17.838  -1.270  0.00  0.00     0.121 A 
ATOM     16  N   UNL d   1      19.749 -18.991  -0.906  0.00  0.00    -0.233 NA
ATOM     17  C   UNL d   1      20.492 -19.863  -0.195  0.00  0.00     0.210 A 
ATOM     18  F   UNL d   1      19.911 -21.017   0.162  0.00  0.00    -0.184 F 
ATOM     19  C   UNL d   1      21.802 -19.632   0.181  0.00  0.00     0.080 A 
ENDBRANCH  10  13
ENDBRANCH   8   9
ENDBRANCH   1   8
BRANCH   4  20
ATOM     20  N   UNL d   1      27.581 -11.902  -1.783  0.00  0.00    -0.367 N 
ATOM     21  C   UNL d   1      28.537 -11.314  -0.836  0.00  0.00     0.124 C 
ATOM     22  C   UNL d   1      27.788 -10.360   0.096  0.00  0.00     0.020 C 
ATOM     23  C   UNL d   1      27.382  -9.032  -0.543  0.00  0.00     0.002 C 
ATOM     24  C   UNL d   1      26.601  -9.158  -1.853  0.00  0.00     0.002 C 
ATOM     25  C   UNL d   1      27.440  -9.721  -3.003  0.00  0.00     0.020 C 
ATOM     26  C   UNL d   1      27.427 -11.256  -3.093  0.00  0.00     0.124 C 
ENDBRANCH   4  20
TORSDOF 4
ENDMDL
MODEL 7
REMARK VINA RESULT:   -26.787      3.169      4.241
REMARK INTER + INTRA:         -28.532
REMARK INTER:                 -27.980
REMARK INTRA:                  -0.552
REMARK CONF_INDEPENDENT:        1.193
REMARK UNBOUND:                -0.552
REMARK  4 active torsions:
REMARK  status: ('A' for Active; 'I' for Inactive)
REMARK       I    between atoms: C_2  and  N_3 
REMARK    1  A    between atoms: C_2  and  C_18 
REMARK    2  A    between atoms: N_3  and  C_4 
REMARK    3  A    between atoms: C_4  and  C_5 
REMARK    4  A    between atoms: C_8  and  N_9 
ROOT
ATOM      1  C   UNL d   1      26.628 -16.308  -1.060  0.00  0.00    -0.025 A 
ATOM      2  C   UNL d   1      25.735 -15.390  -1.622  0.00  0.00     0.014 A 
ATOM      3  C   UNL d   1      26.171 -14.106  -1.992  0.00  0.00     0.049 A 
ATOM      4  C   UNL d   1      27.507 -13.739  -1.810  0.00  0.00     0.102 A 
ATOM      5  N   UNL d   1      28.319 -14.650  -1.250  0.00  0.00    -0.352 N 
ATOM      6  C   UNL d   1      27.939 -15.881  -0.871  0.00  0.00     0.098 A 
ATOM      7  H   UNL d   1      29.267 -14.342  -1.064  0.00  0.00     0.166 HD
ENDROOT
BRANCH   1   8
ATOM      8  C   UNL d   1      26.197 -17.698  -0.644  0.00  0.00     0.162 C 
BRANCH   8   9
ATOM      9  N   UNL d   1      24.790 -17.959  -0.906  0.00  0.00    -0.353 N 
ATOM     10  C   UNL d   1      23.922 -18.191   0.149  0.00  0.00     0.252 C 
ATOM     11  O   UNL d   1      24.296 -18.223   1.319  0.00  0.00    -0.268 OA
ATOM     12  H   UNL d   1      24.408 -17.803  -1.830  0.00  0.00     0.163 HD
BRANCH  10  13
ATOM     13  C   UNL d   1      22.482 -18.403  -0.165  0.00  0.00     0.037 A 
ATOM     14  C   UNL d   1      21.763 -17.476  -0.921  0.00  0.00     0.036 A 
ATOM     15  C   UNL d   1      20.457 -17.792  -1.269  0.00  0.00     0.121 A 
ATOM     16  N   UNL d   1      19.841 -18.933  -0.909  0.00  0.00    -0.233 NA
ATOM     17  C   UNL d   1      20.560 -19.813  -0.184  0.00  0.00     0.210 A 
ATOM     18  F   UNL d   1      19.957 -20.957   0.170  0.00  0.00    -0.184 F 
ATOM     19  C   UNL d   1      21.868 -19.601   0.209  0.00  0.00     0.080 A 
ENDBRANCH  10  13
ENDBRANCH   8   9
ENDBRANCH   1   8
BRANCH   4  20
ATOM     20  N   UNL d   1      28.046 -12.504  -2.091  0.00  0.00    -0.367 N 
ATOM     21  C   UNL d   1      27.398 -11.295  -1.566  0.00  0.00     0.124 C 
ATOM     22  C   UNL d   1      26.638 -10.607  -2.701  0.00  0.00     0.020 C 
ATOM     23  C   UNL d   1      27.524  -9.872  -3.707  0.00  0.00     0.002 C 
ATOM     24  C   UNL d   1      28.655 -10.712  -4.306  0.00  0.00     0.002 C 
ATOM     25  C   UNL d   1      29.731 -11.090  -3.284  0.00  0.00     0.020 C 
ATOM     26  C   UNL d   1      29.443 -12.399  -2.530  0.00  0.00     0.124 C 
ENDBRANCH   4  20
TORSDOF 4
ENDMDL
