MODEL 1
REMARK VINA RESULT:   -10.071      0.000      0.000
REMARK INTER + INTRA:         -13.464
REMARK INTER:                 -12.159
REMARK INTRA:                  -1.306
REMARK CONF_INDEPENDENT:        2.088
REMARK UNBOUND:                -1.306
REMARK  7 active torsions:
REMARK  status: ('A' for Active; 'I' for Inactive)
REMARK    1  A    between atoms: C_3  and  C_25 
REMARK    2  A    between atoms: C_4  and  C_5 
REMARK    3  A    between atoms: N_7  and  C_8 
REMARK    4  A    between atoms: C_8  and  C_9 
REMARK    5  A    between atoms: C_13  and  C_14 
REMARK       I    between atoms: C_25  and  N_27 
REMARK    6  A    between atoms: N_27  and  C_28 
REMARK    7  A    between atoms: C_31  and  N_32 
ROOT
ATOM      1  N   UNL d   1      26.635 -18.206   0.669  0.00  0.00    -0.096 N 
ATOM      2  C   UNL d   1      25.634 -17.853  -0.012  0.00  0.00     0.025 C 
ATOM      3  C   UNL d   1      24.428 -17.427  -0.833  0.00  0.00     0.099 C 
ATOM      4  C   UNL d   1      24.497 -16.266  -1.518  0.00  0.00     0.041 C 
ENDROOT
BRANCH   3   5
ATOM      5  C   UNL d   1      23.181 -18.297  -0.789  0.00  0.00     0.265 C 
ATOM      6  O   UNL d   1      22.911 -18.982  -1.784  0.00  0.00    -0.267 OA
ATOM      7  N   UNL d   1      22.340 -18.227   0.327  0.00  0.00    -0.322 N 
ATOM      8  H   UNL d   1      22.464 -17.481   0.997  0.00  0.00     0.169 HD
BRANCH   7   9
ATOM      9  C   UNL d   1      21.111 -18.948   0.453  0.00  0.00     0.035 A 
ATOM     10  C   UNL d   1      20.603 -19.350   1.693  0.00  0.00     0.032 A 
ATOM     11  C   UNL d   1      19.469 -20.175   1.783  0.00  0.00     0.038 A 
ATOM     12  C   UNL d   1      18.787 -20.547   0.619  0.00  0.00     0.103 A 
ATOM     13  C   UNL d   1      19.203 -20.047  -0.620  0.00  0.00     0.038 A 
ATOM     14  C   UNL d   1      20.376 -19.270  -0.701  0.00  0.00     0.032 A 
BRANCH  12  15
ATOM     15  N   UNL d   1      17.663 -21.495   0.701  0.00  0.00    -0.116 N 
ATOM     16  O   UNL d   1      17.546 -22.170   1.730  0.00  0.00    -0.532 OA
ATOM     17  O   UNL d   1      16.905 -21.573  -0.281  0.00  0.00    -0.532 OA
ENDBRANCH  12  15
ENDBRANCH   7   9
ENDBRANCH   3   5
BRANCH   4  18
ATOM     18  C   UNL d   1      25.678 -15.466  -1.614  0.00  0.00    -0.006 A 
ATOM     19  C   UNL d   1      26.368 -14.957  -0.547  0.00  0.00     0.104 A 
ATOM     20  N   UNL d   1      27.494 -14.314  -1.021  0.00  0.00    -0.351 N 
ATOM     21  C   UNL d   1      27.507 -14.376  -2.409  0.00  0.00     0.045 A 
ATOM     22  C   UNL d   1      28.409 -13.894  -3.374  0.00  0.00     0.030 A 
ATOM     23  C   UNL d   1      26.347 -15.049  -2.795  0.00  0.00     0.002 A 
ATOM     24  C   UNL d   1      28.148 -14.167  -4.728  0.00  0.00     0.002 A 
ATOM     25  C   UNL d   1      27.009 -14.848  -5.123  0.00  0.00     0.001 A 
ATOM     26  C   UNL d   1      26.078 -15.218  -4.169  0.00  0.00     0.014 A 
BRANCH  20  27
ATOM     27  C   UNL d   1      28.523 -13.631  -0.218  0.00  0.00     0.167 C 
BRANCH  27  28
ATOM     28  C   UNL d   1      28.047 -13.268   1.173  0.00  0.00    -0.039 C 
ATOM     29  C   UNL d   1      27.493 -12.002   1.430  0.00  0.00     0.009 C 
ATOM     30  C   UNL d   1      27.288 -11.568   2.737  0.00  0.00     0.001 C 
ATOM     31  C   UNL d   1      27.676 -12.380   3.801  0.00  0.00     0.016 C 
ATOM     32  C   UNL d   1      28.177 -13.670   3.567  0.00  0.00     0.048 C 
ATOM     33  C   UNL d   1      28.294 -14.132   2.248  0.00  0.00     0.025 C 
BRANCH  32  34
ATOM     34  C   UNL d   1      28.652 -14.509   4.726  0.00  0.00     0.417 C 
ATOM     35  F   UNL d   1      28.702 -13.797   5.887  0.00  0.00    -0.166 F 
ATOM     36  F   UNL d   1      27.841 -15.572   4.971  0.00  0.00    -0.166 F 
ATOM     37  F   UNL d   1      29.903 -15.019   4.551  0.00  0.00    -0.166 F 
ENDBRANCH  32  34
ENDBRANCH  27  28
ENDBRANCH  20  27
ENDBRANCH   4  18
TORSDOF 7
ENDMDL
MODEL 2
REMARK VINA RESULT:    -9.632      1.774      2.234
REMARK INTER + INTRA:         -13.101
REMARK INTER:                 -11.720
REMARK INTRA:                  -1.381
REMARK CONF_INDEPENDENT:        2.088
REMARK UNBOUND:                -1.381
REMARK  7 active torsions:
REMARK  status: ('A' for Active; 'I' for Inactive)
REMARK    1  A    between atoms: C_3  and  C_25 
REMARK    2  A    between atoms: C_4  and  C_5 
REMARK    3  A    between atoms: N_7  and  C_8 
REMARK    4  A    between atoms: C_8  and  C_9 
REMARK    5  A    between atoms: C_13  and  C_14 
REMARK       I    between atoms: C_25  and  N_27 
REMARK    6  A    between atoms: N_27  and  C_28 
REMARK    7  A    between atoms: C_31  and  N_32 
ROOT
ATOM      1  N   UNL d   1      26.880 -18.048   0.413  0.00  0.00    -0.096 N 
ATOM      2  C   UNL d   1      25.878 -17.735  -0.286  0.00  0.00     0.025 C 
ATOM      3  C   UNL d   1      24.671 -17.358  -1.129  0.00  0.00     0.099 C 
ATOM      4  C   UNL d   1      24.734 -16.230  -1.868  0.00  0.00     0.041 C 
ENDROOT
BRANCH   3   5
ATOM      5  C   UNL d   1      23.431 -18.234  -1.047  0.00  0.00     0.265 C 
ATOM      6  O   UNL d   1      23.225 -19.043  -1.962  0.00  0.00    -0.267 OA
ATOM      7  N   UNL d   1      22.525 -18.037   0.001  0.00  0.00    -0.322 N 
ATOM      8  H   UNL d   1      22.603 -17.210   0.577  0.00  0.00     0.169 HD
BRANCH   7   9
ATOM      9  C   UNL d   1      21.296 -18.755   0.146  0.00  0.00     0.035 A 
ATOM     10  C   UNL d   1      20.889 -19.302   1.368  0.00  0.00     0.032 A 
ATOM     11  C   UNL d   1      19.750 -20.119   1.457  0.00  0.00     0.038 A 
ATOM     12  C   UNL d   1      18.962 -20.338   0.322  0.00  0.00     0.103 A 
ATOM     13  C   UNL d   1      19.279 -19.692  -0.879  0.00  0.00     0.038 A 
ATOM     14  C   UNL d   1      20.458 -18.924  -0.969  0.00  0.00     0.032 A 
BRANCH  12  15
ATOM     15  N   UNL d   1      17.829 -21.277   0.386  0.00  0.00    -0.116 N 
ATOM     16  O   UNL d   1      17.793 -22.080   1.325  0.00  0.00    -0.532 OA
ATOM     17  O   UNL d   1      16.982 -21.217  -0.520  0.00  0.00    -0.532 OA
ENDBRANCH  12  15
ENDBRANCH   7   9
ENDBRANCH   3   5
BRANCH   4  18
ATOM     18  C   UNL d   1      25.909 -15.426  -1.999  0.00  0.00    -0.006 A 
ATOM     19  C   UNL d   1      26.633 -14.923  -0.953  0.00  0.00     0.104 A 
ATOM     20  N   UNL d   1      27.741 -14.273  -1.461  0.00  0.00    -0.351 N 
ATOM     21  C   UNL d   1      27.707 -14.326  -2.849  0.00  0.00     0.045 A 
ATOM     22  C   UNL d   1      28.575 -13.836  -3.840  0.00  0.00     0.030 A 
ATOM     23  C   UNL d   1      26.536 -15.000  -3.200  0.00  0.00     0.002 A 
ATOM     24  C   UNL d   1      28.269 -14.101  -5.187  0.00  0.00     0.002 A 
ATOM     25  C   UNL d   1      27.118 -14.782  -5.547  0.00  0.00     0.001 A 
ATOM     26  C   UNL d   1      26.221 -15.160  -4.565  0.00  0.00     0.014 A 
BRANCH  20  27
ATOM     27  C   UNL d   1      28.795 -13.593  -0.688  0.00  0.00     0.167 C 
BRANCH  27  28
ATOM     28  C   UNL d   1      28.360 -13.225   0.715  0.00  0.00    -0.039 C 
ATOM     29  C   UNL d   1      28.160 -14.223   1.684  0.00  0.00     0.009 C 
ATOM     30  C   UNL d   1      27.524 -13.927   2.887  0.00  0.00     0.001 C 
ATOM     31  C   UNL d   1      27.044 -12.639   3.113  0.00  0.00     0.016 C 
ATOM     32  C   UNL d   1      27.284 -11.615   2.184  0.00  0.00     0.048 C 
ATOM     33  C   UNL d   1      28.006 -11.904   1.016  0.00  0.00     0.025 C 
BRANCH  32  34
ATOM     34  C   UNL d   1      26.702 -10.243   2.414  0.00  0.00     0.417 C 
ATOM     35  F   UNL d   1      25.524 -10.070   1.749  0.00  0.00    -0.166 F 
ATOM     36  F   UNL d   1      26.434 -10.001   3.724  0.00  0.00    -0.166 F 
ATOM     37  F   UNL d   1      27.514  -9.232   1.999  0.00  0.00    -0.166 F 
ENDBRANCH  32  34
ENDBRANCH  27  28
ENDBRANCH  20  27
ENDBRANCH   4  18
TORSDOF 7
ENDMDL
MODEL 3
REMARK VINA RESULT:    -9.466      4.215      5.758
REMARK INTER + INTRA:         -12.957
REMARK INTER:                 -11.554
REMARK INTRA:                  -1.403
REMARK CONF_INDEPENDENT:        2.088
REMARK UNBOUND:                -1.403
REMARK  7 active torsions:
REMARK  status: ('A' for Active; 'I' for Inactive)
REMARK    1  A    between atoms: C_3  and  C_25 
REMARK    2  A    between atoms: C_4  and  C_5 
REMARK    3  A    between atoms: N_7  and  C_8 
REMARK    4  A    between atoms: C_8  and  C_9 
REMARK    5  A    between atoms: C_13  and  C_14 
REMARK       I    between atoms: C_25  and  N_27 
REMARK    6  A    between atoms: N_27  and  C_28 
REMARK    7  A    between atoms: C_31  and  N_32 
ROOT
ATOM      1  N   UNL d   1      26.974 -17.086   0.906  0.00  0.00    -0.096 N 
ATOM      2  C   UNL d   1      26.053 -17.264   0.063  0.00  0.00     0.025 C 
ATOM      3  C   UNL d   1      24.944 -17.478  -0.954  0.00  0.00     0.099 C 
ATOM      4  C   UNL d   1      25.013 -16.813  -2.126  0.00  0.00     0.041 C 
ENDROOT
BRANCH   3   5
ATOM      5  C   UNL d   1      23.780 -18.380  -0.573  0.00  0.00     0.265 C 
ATOM      6  O   UNL d   1      23.983 -19.600  -0.503  0.00  0.00    -0.267 OA
ATOM      7  N   UNL d   1      22.509 -17.819  -0.405  0.00  0.00    -0.322 N 
ATOM      8  H   UNL d   1      22.339 -16.871  -0.711  0.00  0.00     0.169 HD
BRANCH   7   9
ATOM      9  C   UNL d   1      21.331 -18.575  -0.109  0.00  0.00     0.035 A 
ATOM     10  C   UNL d   1      21.027 -19.012   1.185  0.00  0.00     0.032 A 
ATOM     11  C   UNL d   1      19.939 -19.867   1.428  0.00  0.00     0.038 A 
ATOM     12  C   UNL d   1      19.097 -20.236   0.374  0.00  0.00     0.103 A 
ATOM     13  C   UNL d   1      19.307 -19.702  -0.903  0.00  0.00     0.038 A 
ATOM     14  C   UNL d   1      20.436 -18.894  -1.144  0.00  0.00     0.032 A 
BRANCH  12  15
ATOM     15  N   UNL d   1      18.020 -21.214   0.605  0.00  0.00    -0.116 N 
ATOM     16  O   UNL d   1      17.923 -21.716   1.730  0.00  0.00    -0.532 OA
ATOM     17  O   UNL d   1      17.280 -21.490  -0.354  0.00  0.00    -0.532 OA
ENDBRANCH  12  15
ENDBRANCH   7   9
ENDBRANCH   3   5
BRANCH   4  18
ATOM     18  C   UNL d   1      26.124 -16.006  -2.522  0.00  0.00    -0.006 A 
ATOM     19  C   UNL d   1      27.439 -16.360  -2.377  0.00  0.00     0.104 A 
ATOM     20  N   UNL d   1      28.222 -15.375  -2.947  0.00  0.00    -0.351 N 
ATOM     21  C   UNL d   1      27.403 -14.360  -3.427  0.00  0.00     0.045 A 
ATOM     22  C   UNL d   1      27.678 -13.150  -4.087  0.00  0.00     0.030 A 
ATOM     23  C   UNL d   1      26.090 -14.719  -3.120  0.00  0.00     0.002 A 
ATOM     24  C   UNL d   1      26.596 -12.346  -4.488  0.00  0.00     0.002 A 
ATOM     25  C   UNL d   1      25.288 -12.699  -4.202  0.00  0.00     0.001 A 
ATOM     26  C   UNL d   1      25.042 -13.837  -3.457  0.00  0.00     0.014 A 
BRANCH  20  27
ATOM     27  C   UNL d   1      29.693 -15.353  -3.023  0.00  0.00     0.167 C 
BRANCH  27  28
ATOM     28  C   UNL d   1      30.231 -15.955  -4.304  0.00  0.00    -0.039 C 
ATOM     29  C   UNL d   1      30.344 -15.174  -5.467  0.00  0.00     0.009 C 
ATOM     30  C   UNL d   1      30.593 -15.770  -6.701  0.00  0.00     0.001 C 
ATOM     31  C   UNL d   1      30.689 -17.156  -6.789  0.00  0.00     0.016 C 
ATOM     32  C   UNL d   1      30.637 -17.950  -5.633  0.00  0.00     0.048 C 
ATOM     33  C   UNL d   1      30.476 -17.332  -4.384  0.00  0.00     0.025 C 
BRANCH  32  34
ATOM     34  C   UNL d   1      30.677 -19.452  -5.753  0.00  0.00     0.417 C 
ATOM     35  F   UNL d   1      31.865 -19.894  -6.255  0.00  0.00    -0.166 F 
ATOM     36  F   UNL d   1      30.519 -20.078  -4.557  0.00  0.00    -0.166 F 
ATOM     37  F   UNL d   1      29.717 -19.957  -6.576  0.00  0.00    -0.166 F 
ENDBRANCH  32  34
ENDBRANCH  27  28
ENDBRANCH  20  27
ENDBRANCH   4  18
TORSDOF 7
ENDMDL
MODEL 4
REMARK VINA RESULT:    -9.242      3.219      5.483
REMARK INTER + INTRA:         -13.055
REMARK INTER:                 -11.330
REMARK INTRA:                  -1.725
REMARK CONF_INDEPENDENT:        2.088
REMARK UNBOUND:                -1.725
REMARK  7 active torsions:
REMARK  status: ('A' for Active; 'I' for Inactive)
REMARK    1  A    between atoms: C_3  and  C_25 
REMARK    2  A    between atoms: C_4  and  C_5 
REMARK    3  A    between atoms: N_7  and  C_8 
REMARK    4  A    between atoms: C_8  and  C_9 
REMARK    5  A    between atoms: C_13  and  C_14 
REMARK       I    between atoms: C_25  and  N_27 
REMARK    6  A    between atoms: N_27  and  C_28 
REMARK    7  A    between atoms: C_31  and  N_32 
ROOT
ATOM      1  N   UNL d   1      27.560 -17.405  -0.363  0.00  0.00    -0.096 N 
ATOM      2  C   UNL d   1      26.359 -17.256  -0.717  0.00  0.00     0.025 C 
ATOM      3  C   UNL d   1      24.911 -17.077  -1.143  0.00  0.00     0.099 C 
ATOM      4  C   UNL d   1      24.615 -16.075  -1.998  0.00  0.00     0.041 C 
ENDROOT
BRANCH   3   5
ATOM      5  C   UNL d   1      23.861 -17.994  -0.537  0.00  0.00     0.265 C 
ATOM      6  O   UNL d   1      24.244 -18.939   0.166  0.00  0.00    -0.267 OA
ATOM      7  N   UNL d   1      22.514 -17.797  -0.862  0.00  0.00    -0.322 N 
ATOM      8  H   UNL d   1      22.271 -17.180  -1.624  0.00  0.00     0.169 HD
BRANCH   7   9
ATOM      9  C   UNL d   1      21.447 -18.633  -0.404  0.00  0.00     0.035 A 
ATOM     10  C   UNL d   1      20.480 -19.155  -1.271  0.00  0.00     0.032 A 
ATOM     11  C   UNL d   1      19.366 -19.857  -0.781  0.00  0.00     0.038 A 
ATOM     12  C   UNL d   1      19.249 -20.105   0.591  0.00  0.00     0.103 A 
ATOM     13  C   UNL d   1      20.272 -19.705   1.458  0.00  0.00     0.038 A 
ATOM     14  C   UNL d   1      21.354 -18.950   0.962  0.00  0.00     0.032 A 
BRANCH  12  15
ATOM     15  N   UNL d   1      18.033 -20.747   1.118  0.00  0.00    -0.116 N 
ATOM     16  O   UNL d   1      17.665 -20.445   2.258  0.00  0.00    -0.532 OA
ATOM     17  O   UNL d   1      17.458 -21.573   0.389  0.00  0.00    -0.532 OA
ENDBRANCH  12  15
ENDBRANCH   7   9
ENDBRANCH   3   5
BRANCH   4  18
ATOM     18  C   UNL d   1      25.595 -15.240  -2.619  0.00  0.00    -0.006 A 
ATOM     19  C   UNL d   1      25.937 -15.288  -3.944  0.00  0.00     0.104 A 
ATOM     20  N   UNL d   1      26.849 -14.282  -4.196  0.00  0.00    -0.351 N 
ATOM     21  C   UNL d   1      27.126 -13.607  -3.013  0.00  0.00     0.045 A 
ATOM     22  C   UNL d   1      27.964 -12.520  -2.713  0.00  0.00     0.030 A 
ATOM     23  C   UNL d   1      26.386 -14.232  -2.008  0.00  0.00     0.002 A 
ATOM     24  C   UNL d   1      27.986 -12.037  -1.393  0.00  0.00     0.002 A 
ATOM     25  C   UNL d   1      27.245 -12.638  -0.390  0.00  0.00     0.001 A 
ATOM     26  C   UNL d   1      26.511 -13.774  -0.680  0.00  0.00     0.014 A 
BRANCH  20  27
ATOM     27  C   UNL d   1      27.476 -13.965  -5.491  0.00  0.00     0.167 C 
BRANCH  27  28
ATOM     28  C   UNL d   1      28.762 -14.728  -5.731  0.00  0.00    -0.039 C 
ATOM     29  C   UNL d   1      29.472 -14.569  -6.934  0.00  0.00     0.009 C 
ATOM     30  C   UNL d   1      30.504 -15.441  -7.270  0.00  0.00     0.001 C 
ATOM     31  C   UNL d   1      30.808 -16.506  -6.426  0.00  0.00     0.016 C 
ATOM     32  C   UNL d   1      30.151 -16.649  -5.194  0.00  0.00     0.048 C 
ATOM     33  C   UNL d   1      29.176 -15.712  -4.824  0.00  0.00     0.025 C 
BRANCH  32  34
ATOM     34  C   UNL d   1      30.446 -17.844  -4.322  0.00  0.00     0.417 C 
ATOM     35  F   UNL d   1      30.049 -17.647  -3.033  0.00  0.00    -0.166 F 
ATOM     36  F   UNL d   1      29.812 -18.969  -4.744  0.00  0.00    -0.166 F 
ATOM     37  F   UNL d   1      31.771 -18.155  -4.257  0.00  0.00    -0.166 F 
ENDBRANCH  32  34
ENDBRANCH  27  28
ENDBRANCH  20  27
ENDBRANCH   4  18
TORSDOF 7
ENDMDL
MODEL 5
REMARK VINA RESULT:    -9.154      4.213      6.322
REMARK INTER + INTRA:         -12.845
REMARK INTER:                 -11.242
REMARK INTRA:                  -1.603
REMARK CONF_INDEPENDENT:        2.088
REMARK UNBOUND:                -1.603
REMARK  7 active torsions:
REMARK  status: ('A' for Active; 'I' for Inactive)
REMARK    1  A    between atoms: C_3  and  C_25 
REMARK    2  A    between atoms: C_4  and  C_5 
REMARK    3  A    between atoms: N_7  and  C_8 
REMARK    4  A    between atoms: C_8  and  C_9 
REMARK    5  A    between atoms: C_13  and  C_14 
REMARK       I    between atoms: C_25  and  N_27 
REMARK    6  A    between atoms: N_27  and  C_28 
REMARK    7  A    between atoms: C_31  and  N_32 
ROOT
ATOM      1  N   UNL d   1      27.557 -17.357  -0.336  0.00  0.00    -0.096 N 
ATOM      2  C   UNL d   1      26.359 -17.222  -0.706  0.00  0.00     0.025 C 
ATOM      3  C   UNL d   1      24.916 -17.060  -1.152  0.00  0.00     0.099 C 
ATOM      4  C   UNL d   1      24.621 -16.068  -2.019  0.00  0.00     0.041 C 
ENDROOT
BRANCH   3   5
ATOM      5  C   UNL d   1      23.866 -17.981  -0.551  0.00  0.00     0.265 C 
ATOM      6  O   UNL d   1      24.250 -18.941   0.131  0.00  0.00    -0.267 OA
ATOM      7  N   UNL d   1      22.517 -17.771  -0.859  0.00  0.00    -0.322 N 
ATOM      8  H   UNL d   1      22.271 -17.139  -1.608  0.00  0.00     0.169 HD
BRANCH   7   9
ATOM      9  C   UNL d   1      21.450 -18.608  -0.405  0.00  0.00     0.035 A 
ATOM     10  C   UNL d   1      20.471 -19.108  -1.271  0.00  0.00     0.032 A 
ATOM     11  C   UNL d   1      19.357 -19.812  -0.782  0.00  0.00     0.038 A 
ATOM     12  C   UNL d   1      19.254 -20.084   0.586  0.00  0.00     0.103 A 
ATOM     13  C   UNL d   1      20.289 -19.707   1.450  0.00  0.00     0.038 A 
ATOM     14  C   UNL d   1      21.369 -18.950   0.956  0.00  0.00     0.032 A 
BRANCH  12  15
ATOM     15  N   UNL d   1      18.039 -20.729   1.115  0.00  0.00    -0.116 N 
ATOM     16  O   UNL d   1      17.658 -20.409   2.246  0.00  0.00    -0.532 OA
ATOM     17  O   UNL d   1      17.478 -21.572   0.396  0.00  0.00    -0.532 OA
ENDBRANCH  12  15
ENDBRANCH   7   9
ENDBRANCH   3   5
BRANCH   4  18
ATOM     18  C   UNL d   1      25.602 -15.230  -2.635  0.00  0.00    -0.006 A 
ATOM     19  C   UNL d   1      25.884 -15.210  -3.975  0.00  0.00     0.104 A 
ATOM     20  N   UNL d   1      26.819 -14.221  -4.210  0.00  0.00    -0.351 N 
ATOM     21  C   UNL d   1      27.170 -13.626  -3.004  0.00  0.00     0.045 A 
ATOM     22  C   UNL d   1      28.058 -12.586  -2.680  0.00  0.00     0.030 A 
ATOM     23  C   UNL d   1      26.453 -14.285  -2.004  0.00  0.00     0.002 A 
ATOM     24  C   UNL d   1      28.154 -12.183  -1.336  0.00  0.00     0.002 A 
ATOM     25  C   UNL d   1      27.436 -12.818  -0.337  0.00  0.00     0.001 A 
ATOM     26  C   UNL d   1      26.652 -13.911  -0.659  0.00  0.00     0.014 A 
BRANCH  20  27
ATOM     27  C   UNL d   1      27.400 -13.849  -5.511  0.00  0.00     0.167 C 
BRANCH  27  28
ATOM     28  C   UNL d   1      28.596 -14.696  -5.893  0.00  0.00    -0.039 C 
ATOM     29  C   UNL d   1      28.897 -15.867  -5.178  0.00  0.00     0.009 C 
ATOM     30  C   UNL d   1      30.121 -16.510  -5.351  0.00  0.00     0.001 C 
ATOM     31  C   UNL d   1      31.070 -15.962  -6.210  0.00  0.00     0.016 C 
ATOM     32  C   UNL d   1      30.768 -14.827  -6.976  0.00  0.00     0.048 C 
ATOM     33  C   UNL d   1      29.499 -14.239  -6.861  0.00  0.00     0.025 C 
BRANCH  32  34
ATOM     34  C   UNL d   1      31.829 -14.209  -7.852  0.00  0.00     0.417 C 
ATOM     35  F   UNL d   1      32.545 -13.254  -7.192  0.00  0.00    -0.166 F 
ATOM     36  F   UNL d   1      32.736 -15.119  -8.296  0.00  0.00    -0.166 F 
ATOM     37  F   UNL d   1      31.330 -13.597  -8.961  0.00  0.00    -0.166 F 
ENDBRANCH  32  34
ENDBRANCH  27  28
ENDBRANCH  20  27
ENDBRANCH   4  18
TORSDOF 7
ENDMDL
MODEL 6
REMARK VINA RESULT:    -8.991      4.037      5.937
REMARK INTER + INTRA:         -12.779
REMARK INTER:                 -11.079
REMARK INTRA:                  -1.699
REMARK CONF_INDEPENDENT:        2.088
REMARK UNBOUND:                -1.699
REMARK  7 active torsions:
REMARK  status: ('A' for Active; 'I' for Inactive)
REMARK    1  A    between atoms: C_3  and  C_25 
REMARK    2  A    between atoms: C_4  and  C_5 
REMARK    3  A    between atoms: N_7  and  C_8 
REMARK    4  A    between atoms: C_8  and  C_9 
REMARK    5  A    between atoms: C_13  and  C_14 
REMARK       I    between atoms: C_25  and  N_27 
REMARK    6  A    between atoms: N_27  and  C_28 
REMARK    7  A    between atoms: C_31  and  N_32 
ROOT
ATOM      1  N   UNL d   1      25.285 -14.798  -3.126  0.00  0.00    -0.096 N 
ATOM      2  C   UNL d   1      25.011 -15.553  -2.153  0.00  0.00     0.025 C 
ATOM      3  C   UNL d   1      24.681 -16.462  -0.980  0.00  0.00     0.099 C 
ATOM      4  C   UNL d   1      25.690 -16.866  -0.180  0.00  0.00     0.041 C 
ENDROOT
BRANCH   3   5
ATOM      5  C   UNL d   1      23.243 -16.922  -0.806  0.00  0.00     0.265 C 
ATOM      6  O   UNL d   1      22.341 -16.080  -0.914  0.00  0.00    -0.267 OA
ATOM      7  N   UNL d   1      22.990 -18.250  -0.442  0.00  0.00    -0.322 N 
ATOM      8  H   UNL d   1      23.753 -18.832  -0.125  0.00  0.00     0.169 HD
BRANCH   7   9
ATOM      9  C   UNL d   1      21.686 -18.779  -0.189  0.00  0.00     0.035 A 
ATOM     10  C   UNL d   1      21.202 -18.987   1.107  0.00  0.00     0.032 A 
ATOM     11  C   UNL d   1      19.975 -19.635   1.331  0.00  0.00     0.038 A 
ATOM     12  C   UNL d   1      19.184 -20.019   0.243  0.00  0.00     0.103 A 
ATOM     13  C   UNL d   1      19.590 -19.700  -1.058  0.00  0.00     0.038 A 
ATOM     14  C   UNL d   1      20.849 -19.105  -1.270  0.00  0.00     0.032 A 
BRANCH  12  15
ATOM     15  N   UNL d   1      17.950 -20.790   0.471  0.00  0.00    -0.116 N 
ATOM     16  O   UNL d   1      17.262 -21.088  -0.511  0.00  0.00    -0.532 OA
ATOM     17  O   UNL d   1      17.663 -21.081   1.645  0.00  0.00    -0.532 OA
ENDBRANCH  12  15
ENDBRANCH   7   9
ENDBRANCH   3   5
BRANCH   4  18
ATOM     18  C   UNL d   1      27.037 -16.400  -0.297  0.00  0.00    -0.006 A 
ATOM     19  C   UNL d   1      28.053 -17.088  -0.903  0.00  0.00     0.104 A 
ATOM     20  N   UNL d   1      29.182 -16.292  -0.900  0.00  0.00    -0.351 N 
ATOM     21  C   UNL d   1      28.899 -15.098  -0.250  0.00  0.00     0.045 A 
ATOM     22  C   UNL d   1      29.674 -13.958   0.025  0.00  0.00     0.030 A 
ATOM     23  C   UNL d   1      27.573 -15.174   0.179  0.00  0.00     0.002 A 
ATOM     24  C   UNL d   1      29.062 -12.874   0.679  0.00  0.00     0.002 A 
ATOM     25  C   UNL d   1      27.742 -12.933   1.096  0.00  0.00     0.001 A 
ATOM     26  C   UNL d   1      27.028 -14.102   0.915  0.00  0.00     0.014 A 
BRANCH  20  27
ATOM     27  C   UNL d   1      30.503 -16.634  -1.456  0.00  0.00     0.167 C 
BRANCH  27  28
ATOM     28  C   UNL d   1      30.519 -16.669  -2.970  0.00  0.00    -0.039 C 
ATOM     29  C   UNL d   1      30.024 -15.584  -3.714  0.00  0.00     0.009 C 
ATOM     30  C   UNL d   1      29.800 -15.705  -5.083  0.00  0.00     0.001 C 
ATOM     31  C   UNL d   1      30.030 -16.925  -5.713  0.00  0.00     0.016 C 
ATOM     32  C   UNL d   1      30.579 -18.003  -5.001  0.00  0.00     0.048 C 
ATOM     33  C   UNL d   1      30.885 -17.842  -3.642  0.00  0.00     0.025 C 
BRANCH  32  34
ATOM     34  C   UNL d   1      30.760 -19.336  -5.683  0.00  0.00     0.417 C 
ATOM     35  F   UNL d   1      32.056 -19.757  -5.645  0.00  0.00    -0.166 F 
ATOM     36  F   UNL d   1      30.026 -20.323  -5.106  0.00  0.00    -0.166 F 
ATOM     37  F   UNL d   1      30.413 -19.324  -7.000  0.00  0.00    -0.166 F 
ENDBRANCH  32  34
ENDBRANCH  27  28
ENDBRANCH  20  27
ENDBRANCH   4  18
TORSDOF 7
ENDMDL
MODEL 7
REMARK VINA RESULT:    -8.970      3.798      5.930
REMARK INTER + INTRA:         -12.772
REMARK INTER:                 -11.058
REMARK INTRA:                  -1.715
REMARK CONF_INDEPENDENT:        2.088
REMARK UNBOUND:                -1.715
REMARK  7 active torsions:
REMARK  status: ('A' for Active; 'I' for Inactive)
REMARK    1  A    between atoms: C_3  and  C_25 
REMARK    2  A    between atoms: C_4  and  C_5 
REMARK    3  A    between atoms: N_7  and  C_8 
REMARK    4  A    between atoms: C_8  and  C_9 
REMARK    5  A    between atoms: C_13  and  C_14 
REMARK       I    between atoms: C_25  and  N_27 
REMARK    6  A    between atoms: N_27  and  C_28 
REMARK    7  A    between atoms: C_31  and  N_32 
ROOT
ATOM      1  N   UNL d   1      25.631 -15.541  -3.506  0.00  0.00    -0.096 N 
ATOM      2  C   UNL d   1      25.313 -16.050  -2.397  0.00  0.00     0.025 C 
ATOM      3  C   UNL d   1      24.930 -16.664  -1.060  0.00  0.00     0.099 C 
ATOM      4  C   UNL d   1      25.907 -16.899  -0.159  0.00  0.00     0.041 C 
ENDROOT
BRANCH   3   5
ATOM      5  C   UNL d   1      23.475 -17.042  -0.830  0.00  0.00     0.265 C 
ATOM      6  O   UNL d   1      22.626 -16.141  -0.848  0.00  0.00    -0.267 OA
ATOM      7  N   UNL d   1      23.156 -18.368  -0.517  0.00  0.00    -0.322 N 
ATOM      8  H   UNL d   1      23.895 -19.012  -0.270  0.00  0.00     0.169 HD
BRANCH   7   9
ATOM      9  C   UNL d   1      21.834 -18.828  -0.219  0.00  0.00     0.035 A 
ATOM     10  C   UNL d   1      21.363 -18.950   1.093  0.00  0.00     0.032 A 
ATOM     11  C   UNL d   1      20.114 -19.532   1.367  0.00  0.00     0.038 A 
ATOM     12  C   UNL d   1      19.289 -19.935   0.311  0.00  0.00     0.103 A 
ATOM     13  C   UNL d   1      19.687 -19.699  -1.010  0.00  0.00     0.038 A 
ATOM     14  C   UNL d   1      20.967 -19.170  -1.270  0.00  0.00     0.032 A 
BRANCH  12  15
ATOM     15  N   UNL d   1      18.028 -20.640   0.595  0.00  0.00    -0.116 N 
ATOM     16  O   UNL d   1      17.394 -21.102  -0.360  0.00  0.00    -0.532 OA
ATOM     17  O   UNL d   1      17.665 -20.713   1.781  0.00  0.00    -0.532 OA
ENDBRANCH  12  15
ENDBRANCH   7   9
ENDBRANCH   3   5
BRANCH   4  18
ATOM     18  C   UNL d   1      27.269 -16.500  -0.337  0.00  0.00    -0.006 A 
ATOM     19  C   UNL d   1      28.141 -17.069  -1.226  0.00  0.00     0.104 A 
ATOM     20  N   UNL d   1      29.331 -16.370  -1.178  0.00  0.00    -0.351 N 
ATOM     21  C   UNL d   1      29.236 -15.368  -0.220  0.00  0.00     0.045 A 
ATOM     22  C   UNL d   1      30.139 -14.385   0.221  0.00  0.00     0.030 A 
ATOM     23  C   UNL d   1      27.966 -15.472   0.350  0.00  0.00     0.002 A 
ATOM     24  C   UNL d   1      29.709 -13.472   1.200  0.00  0.00     0.002 A 
ATOM     25  C   UNL d   1      28.446 -13.556   1.762  0.00  0.00     0.001 A 
ATOM     26  C   UNL d   1      27.611 -14.595   1.396  0.00  0.00     0.014 A 
BRANCH  20  27
ATOM     27  C   UNL d   1      30.542 -16.635  -1.975  0.00  0.00     0.167 C 
BRANCH  27  28
ATOM     28  C   UNL d   1      30.269 -16.713  -3.462  0.00  0.00    -0.039 C 
ATOM     29  C   UNL d   1      31.137 -17.423  -4.310  0.00  0.00     0.009 C 
ATOM     30  C   UNL d   1      31.042 -17.293  -5.693  0.00  0.00     0.001 C 
ATOM     31  C   UNL d   1      30.107 -16.418  -6.240  0.00  0.00     0.016 C 
ATOM     32  C   UNL d   1      29.193 -15.744  -5.415  0.00  0.00     0.048 C 
ATOM     33  C   UNL d   1      29.238 -15.953  -4.028  0.00  0.00     0.025 C 
BRANCH  32  34
ATOM     34  C   UNL d   1      28.231 -14.752  -6.017  0.00  0.00     0.417 C 
ATOM     35  F   UNL d   1      28.192 -13.585  -5.313  0.00  0.00    -0.166 F 
ATOM     36  F   UNL d   1      28.557 -14.412  -7.291  0.00  0.00    -0.166 F 
ATOM     37  F   UNL d   1      26.945 -15.200  -6.061  0.00  0.00    -0.166 F 
ENDBRANCH  32  34
ENDBRANCH  27  28
ENDBRANCH  20  27
ENDBRANCH   4  18
TORSDOF 7
ENDMDL
MODEL 8
REMARK VINA RESULT:    -8.956      4.456      6.378
REMARK INTER + INTRA:         -12.698
REMARK INTER:                 -11.044
REMARK INTRA:                  -1.654
REMARK CONF_INDEPENDENT:        2.088
REMARK UNBOUND:                -1.654
REMARK  7 active torsions:
REMARK  status: ('A' for Active; 'I' for Inactive)
REMARK    1  A    between atoms: C_3  and  C_25 
REMARK    2  A    between atoms: C_4  and  C_5 
REMARK    3  A    between atoms: N_7  and  C_8 
REMARK    4  A    between atoms: C_8  and  C_9 
REMARK    5  A    between atoms: C_13  and  C_14 
REMARK       I    between atoms: C_25  and  N_27 
REMARK    6  A    between atoms: N_27  and  C_28 
REMARK    7  A    between atoms: C_31  and  N_32 
ROOT
ATOM      1  N   UNL d   1      26.767 -17.680  -0.379  0.00  0.00    -0.096 N 
ATOM      2  C   UNL d   1      25.752 -17.096  -0.844  0.00  0.00     0.025 C 
ATOM      3  C   UNL d   1      24.527 -16.391  -1.405  0.00  0.00     0.099 C 
ATOM      4  C   UNL d   1      24.715 -15.361  -2.257  0.00  0.00     0.041 C 
ENDROOT
BRANCH   3   5
ATOM      5  C   UNL d   1      23.155 -16.839  -0.928  0.00  0.00     0.265 C 
ATOM      6  O   UNL d   1      22.356 -15.973  -0.544  0.00  0.00    -0.267 OA
ATOM      7  N   UNL d   1      22.872 -18.208  -0.853  0.00  0.00    -0.322 N 
ATOM      8  H   UNL d   1      23.626 -18.876  -0.936  0.00  0.00     0.169 HD
BRANCH   7   9
ATOM      9  C   UNL d   1      21.642 -18.748  -0.361  0.00  0.00     0.035 A 
ATOM     10  C   UNL d   1      21.406 -18.950   1.003  0.00  0.00     0.032 A 
ATOM     11  C   UNL d   1      20.249 -19.608   1.452  0.00  0.00     0.038 A 
ATOM     12  C   UNL d   1      19.276 -20.010   0.530  0.00  0.00     0.103 A 
ATOM     13  C   UNL d   1      19.434 -19.698  -0.826  0.00  0.00     0.038 A 
ATOM     14  C   UNL d   1      20.626 -19.092  -1.269  0.00  0.00     0.032 A 
BRANCH  12  15
ATOM     15  N   UNL d   1      18.114 -20.791   0.985  0.00  0.00    -0.116 N 
ATOM     16  O   UNL d   1      17.658 -21.651   0.222  0.00  0.00    -0.532 OA
ATOM     17  O   UNL d   1      17.647 -20.527   2.106  0.00  0.00    -0.532 OA
ENDBRANCH  12  15
ENDBRANCH   7   9
ENDBRANCH   3   5
BRANCH   4  18
ATOM     18  C   UNL d   1      25.994 -14.963  -2.757  0.00  0.00    -0.006 A 
ATOM     19  C   UNL d   1      26.510 -15.335  -3.970  0.00  0.00     0.104 A 
ATOM     20  N   UNL d   1      27.720 -14.692  -4.145  0.00  0.00    -0.351 N 
ATOM     21  C   UNL d   1      28.002 -13.932  -3.016  0.00  0.00     0.045 A 
ATOM     22  C   UNL d   1      29.081 -13.096  -2.679  0.00  0.00     0.030 A 
ATOM     23  C   UNL d   1      26.954 -14.135  -2.118  0.00  0.00     0.002 A 
ATOM     24  C   UNL d   1      29.043 -12.420  -1.447  0.00  0.00     0.002 A 
ATOM     25  C   UNL d   1      28.001 -12.601  -0.554  0.00  0.00     0.001 A 
ATOM     26  C   UNL d   1      27.004 -13.510  -0.855  0.00  0.00     0.014 A 
BRANCH  20  27
ATOM     27  C   UNL d   1      28.612 -14.797  -5.312  0.00  0.00     0.167 C 
BRANCH  27  28
ATOM     28  C   UNL d   1      29.416 -16.080  -5.333  0.00  0.00    -0.039 C 
ATOM     29  C   UNL d   1      29.683 -16.773  -4.141  0.00  0.00     0.009 C 
ATOM     30  C   UNL d   1      30.622 -17.802  -4.113  0.00  0.00     0.001 C 
ATOM     31  C   UNL d   1      31.332 -18.118  -5.269  0.00  0.00     0.016 C 
ATOM     32  C   UNL d   1      31.039 -17.478  -6.482  0.00  0.00     0.048 C 
ATOM     33  C   UNL d   1      30.028 -16.506  -6.519  0.00  0.00     0.025 C 
BRANCH  32  34
ATOM     34  C   UNL d   1      31.861 -17.785  -7.709  0.00  0.00     0.417 C 
ATOM     35  F   UNL d   1      32.982 -18.501  -7.407  0.00  0.00    -0.166 F 
ATOM     36  F   UNL d   1      31.180 -18.522  -8.625  0.00  0.00    -0.166 F 
ATOM     37  F   UNL d   1      32.297 -16.673  -8.363  0.00  0.00    -0.166 F 
ENDBRANCH  32  34
ENDBRANCH  27  28
ENDBRANCH  20  27
ENDBRANCH   4  18
TORSDOF 7
ENDMDL
MODEL 9
REMARK VINA RESULT:    -8.906      1.130      1.616
REMARK INTER + INTRA:         -12.680
REMARK INTER:                 -10.994
REMARK INTRA:                  -1.686
REMARK CONF_INDEPENDENT:        2.088
REMARK UNBOUND:                -1.686
REMARK  7 active torsions:
REMARK  status: ('A' for Active; 'I' for Inactive)
REMARK    1  A    between atoms: C_3  and  C_25 
REMARK    2  A    between atoms: C_4  and  C_5 
REMARK    3  A    between atoms: N_7  and  C_8 
REMARK    4  A    between atoms: C_8  and  C_9 
REMARK    5  A    between atoms: C_13  and  C_14 
REMARK       I    between atoms: C_25  and  N_27 
REMARK    6  A    between atoms: N_27  and  C_28 
REMARK    7  A    between atoms: C_31  and  N_32 
ROOT
ATOM      1  N   UNL d   1      27.240 -18.440   0.411  0.00  0.00    -0.096 N 
ATOM      2  C   UNL d   1      26.164 -17.932  -0.009  0.00  0.00     0.025 C 
ATOM      3  C   UNL d   1      24.868 -17.320  -0.515  0.00  0.00     0.099 C 
ATOM      4  C   UNL d   1      24.860 -16.007  -0.828  0.00  0.00     0.041 C 
ENDROOT
BRANCH   3   5
ATOM      5  C   UNL d   1      23.632 -18.202  -0.583  0.00  0.00     0.265 C 
ATOM      6  O   UNL d   1      23.524 -18.989  -1.534  0.00  0.00    -0.267 OA
ATOM      7  N   UNL d   1      22.622 -18.035   0.371  0.00  0.00    -0.322 N 
ATOM      8  H   UNL d   1      22.636 -17.223   0.974  0.00  0.00     0.169 HD
BRANCH   7   9
ATOM      9  C   UNL d   1      21.389 -18.761   0.372  0.00  0.00     0.035 A 
ATOM     10  C   UNL d   1      20.835 -19.294   1.542  0.00  0.00     0.032 A 
ATOM     11  C   UNL d   1      19.699 -20.119   1.499  0.00  0.00     0.038 A 
ATOM     12  C   UNL d   1      19.061 -20.359   0.277  0.00  0.00     0.103 A 
ATOM     13  C   UNL d   1      19.522 -19.727  -0.883  0.00  0.00     0.038 A 
ATOM     14  C   UNL d   1      20.698 -18.951  -0.836  0.00  0.00     0.032 A 
BRANCH  12  15
ATOM     15  N   UNL d   1      17.934 -21.305   0.213  0.00  0.00    -0.116 N 
ATOM     16  O   UNL d   1      16.982 -21.025  -0.524  0.00  0.00    -0.532 OA
ATOM     17  O   UNL d   1      17.999 -22.324   0.920  0.00  0.00    -0.532 OA
ENDBRANCH  12  15
ENDBRANCH   7   9
ENDBRANCH   3   5
BRANCH   4  18
ATOM     18  C   UNL d   1      26.025 -15.178  -0.823  0.00  0.00    -0.006 A 
ATOM     19  C   UNL d   1      26.283 -14.198   0.097  0.00  0.00     0.104 A 
ATOM     20  N   UNL d   1      27.533 -13.672  -0.166  0.00  0.00    -0.351 N 
ATOM     21  C   UNL d   1      28.065 -14.293  -1.289  0.00  0.00     0.045 A 
ATOM     22  C   UNL d   1      29.285 -14.141  -1.971  0.00  0.00     0.030 A 
ATOM     23  C   UNL d   1      27.107 -15.202  -1.741  0.00  0.00     0.002 A 
ATOM     24  C   UNL d   1      29.542 -14.973  -3.074  0.00  0.00     0.002 A 
ATOM     25  C   UNL d   1      28.606 -15.889  -3.523  0.00  0.00     0.001 A 
ATOM     26  C   UNL d   1      27.369 -15.948  -2.909  0.00  0.00     0.014 A 
BRANCH  20  27
ATOM     27  C   UNL d   1      28.213 -12.600   0.583  0.00  0.00     0.167 C 
BRANCH  27  28
ATOM     28  C   UNL d   1      28.924 -13.099   1.823  0.00  0.00    -0.039 C 
ATOM     29  C   UNL d   1      30.233 -13.603   1.740  0.00  0.00     0.009 C 
ATOM     30  C   UNL d   1      30.798 -14.292   2.811  0.00  0.00     0.001 C 
ATOM     31  C   UNL d   1      30.043 -14.519   3.958  0.00  0.00     0.016 C 
ATOM     32  C   UNL d   1      28.755 -13.975   4.084  0.00  0.00     0.048 C 
ATOM     33  C   UNL d   1      28.230 -13.206   3.035  0.00  0.00     0.025 C 
BRANCH  32  34
ATOM     34  C   UNL d   1      27.927 -14.285   5.306  0.00  0.00     0.417 C 
ATOM     35  F   UNL d   1      28.295 -13.528   6.378  0.00  0.00    -0.166 F 
ATOM     36  F   UNL d   1      26.603 -14.049   5.115  0.00  0.00    -0.166 F 
ATOM     37  F   UNL d   1      28.027 -15.580   5.715  0.00  0.00    -0.166 F 
ENDBRANCH  32  34
ENDBRANCH  27  28
ENDBRANCH  20  27
ENDBRANCH   4  18
TORSDOF 7
ENDMDL
