MODEL 1
REMARK VINA RESULT:    -9.955      0.000      0.000
REMARK INTER + INTRA:         -14.701
REMARK INTER:                 -12.639
REMARK INTRA:                  -2.062
REMARK CONF_INDEPENDENT:        2.685
REMARK UNBOUND:                -2.062
REMARK  9 active torsions:
REMARK  status: ('A' for Active; 'I' for Inactive)
REMARK    1  A    between atoms: C_4  and  O_5 
REMARK    2  A    between atoms: O_5  and  C_6 
REMARK    3  A    between atoms: C_6  and  C_7 
REMARK       I    between atoms: C_7  and  N_9 
REMARK    4  A    between atoms: N_9  and  C_10 
REMARK    5  A    between atoms: C_10  and  N_12 
REMARK    6  A    between atoms: N_12  and  N_13 
REMARK       I    between atoms: N_13  and  C_14 
REMARK    7  A    between atoms: C_14  and  C_16 
REMARK    8  A    between atoms: C_19  and  N_20 
REMARK       I    between atoms: N_20  and  C_21 
REMARK    9  A    between atoms: C_21  and  C_23 
ROOT
ATOM      1  N   UNL d   1      28.189 -15.146  -0.570  0.00  0.00    -0.273 N 
ATOM      2  H   UNL d   1      28.240 -14.759  -1.511  0.00  0.00     0.189 HD
ENDROOT
BRANCH   1   3
ATOM      3  C   UNL d   1      29.183 -15.097   0.431  0.00  0.00     0.193 C 
ATOM      4  S   UNL d   1      30.794 -15.351  -0.018  0.00  0.00    -0.039 SA
BRANCH   3   5
ATOM      5  N   UNL d   1      28.739 -14.831   1.758  0.00  0.00    -0.301 N 
ATOM      6  C   UNL d   1      27.623 -14.023   2.113  0.00  0.00     0.248 C 
ATOM      7  O   UNL d   1      26.916 -13.461   1.273  0.00  0.00    -0.271 OA
ATOM      8  H   UNL d   1      29.264 -15.253   2.512  0.00  0.00     0.171 HD
BRANCH   6   9
ATOM      9  C   UNL d   1      27.253 -13.822   3.612  0.00  0.00     0.278 C 
BRANCH   9  10
ATOM     10  O   UNL d   1      28.264 -14.474   4.431  0.00  0.00    -0.342 OA
BRANCH  10  11
ATOM     11  C   UNL d   1      28.615 -13.946   5.645  0.00  0.00     0.070 A 
ATOM     12  C   UNL d   1      29.671 -14.409   6.421  0.00  0.00     0.044 A 
ATOM     13  C   UNL d   1      29.988 -13.822   7.663  0.00  0.00    -0.042 A 
ATOM     14  C   UNL d   1      31.139 -14.386   8.445  0.00  0.00     0.049 C 
ATOM     15  C   UNL d   1      29.222 -12.744   8.127  0.00  0.00     0.017 A 
ATOM     16  C   UNL d   1      28.157 -12.267   7.362  0.00  0.00     0.022 A 
ATOM     17 BR   UNL d   1      29.585 -11.901   9.790  0.00  0.00    -0.051 Br
ATOM     18  C   UNL d   1      27.855 -12.868   6.128  0.00  0.00     0.038 A 
ENDBRANCH  10  11
ENDBRANCH   9  10
ENDBRANCH   6   9
ENDBRANCH   3   5
ENDBRANCH   1   3
BRANCH   1  19
ATOM     19  N   UNL d   1      26.913 -15.794  -0.253  0.00  0.00    -0.264 N 
ATOM     20  C   UNL d   1      26.096 -16.358  -1.227  0.00  0.00     0.270 C 
ATOM     21  O   UNL d   1      26.369 -16.332  -2.423  0.00  0.00    -0.266 OA
ATOM     22  H   UNL d   1      26.715 -15.886   0.744  0.00  0.00     0.190 HD
BRANCH  20  23
ATOM     23  C   UNL d   1      24.805 -16.994  -0.763  0.00  0.00     0.033 A 
ATOM     24  C   UNL d   1      24.754 -18.339  -0.344  0.00  0.00     0.019 A 
ATOM     25  C   UNL d   1      23.515 -18.980  -0.065  0.00  0.00     0.030 A 
ATOM     26  C   UNL d   1      22.314 -18.263  -0.134  0.00  0.00     0.034 A 
ATOM     27  C   UNL d   1      22.385 -16.939  -0.576  0.00  0.00     0.030 A 
ATOM     28  C   UNL d   1      23.601 -16.308  -0.877  0.00  0.00     0.019 A 
BRANCH  26  29
ATOM     29  N   UNL d   1      21.080 -18.859   0.261  0.00  0.00    -0.327 N 
ATOM     30  C   UNL d   1      20.187 -19.493  -0.595  0.00  0.00     0.226 C 
ATOM     31  O   UNL d   1      20.337 -19.694  -1.799  0.00  0.00    -0.273 OA
ATOM     32  H   UNL d   1      20.800 -18.747   1.229  0.00  0.00     0.169 HD
BRANCH  30  33
ATOM     33  C   UNL d   1      18.931 -20.027  -0.004  0.00  0.00     0.078 A 
ATOM     34  C   UNL d   1      18.810 -21.391   0.615  0.00  0.00     0.015 A 
ATOM     35  C   UNL d   1      18.797 -20.177   1.501  0.00  0.00     0.015 A 
ENDBRANCH  30  33
ENDBRANCH  26  29
ENDBRANCH  20  23
ENDBRANCH   1  19
TORSDOF 9
ENDMDL
MODEL 2
REMARK VINA RESULT:    -9.504      6.480      8.999
REMARK INTER + INTRA:         -14.351
REMARK INTER:                 -12.189
REMARK INTRA:                  -2.162
REMARK CONF_INDEPENDENT:        2.685
REMARK UNBOUND:                -2.162
REMARK  9 active torsions:
REMARK  status: ('A' for Active; 'I' for Inactive)
REMARK    1  A    between atoms: C_4  and  O_5 
REMARK    2  A    between atoms: O_5  and  C_6 
REMARK    3  A    between atoms: C_6  and  C_7 
REMARK       I    between atoms: C_7  and  N_9 
REMARK    4  A    between atoms: N_9  and  C_10 
REMARK    5  A    between atoms: C_10  and  N_12 
REMARK    6  A    between atoms: N_12  and  N_13 
REMARK       I    between atoms: N_13  and  C_14 
REMARK    7  A    between atoms: C_14  and  C_16 
REMARK    8  A    between atoms: C_19  and  N_20 
REMARK       I    between atoms: N_20  and  C_21 
REMARK    9  A    between atoms: C_21  and  C_23 
ROOT
ATOM      1  N   UNL d   1      26.954 -15.169  -3.734  0.00  0.00    -0.273 N 
ATOM      2  H   UNL d   1      26.582 -14.364  -4.236  0.00  0.00     0.189 HD
ENDROOT
BRANCH   1   3
ATOM      3  C   UNL d   1      28.311 -15.518  -3.564  0.00  0.00     0.193 C 
ATOM      4  S   UNL d   1      28.816 -16.080  -2.050  0.00  0.00    -0.039 SA
BRANCH   3   5
ATOM      5  N   UNL d   1      29.156 -15.369  -4.701  0.00  0.00    -0.301 N 
ATOM      6  C   UNL d   1      28.726 -15.030  -6.015  0.00  0.00     0.248 C 
ATOM      7  O   UNL d   1      27.542 -14.828  -6.294  0.00  0.00    -0.271 OA
ATOM      8  H   UNL d   1      30.146 -15.518  -4.561  0.00  0.00     0.171 HD
BRANCH   6   9
ATOM      9  C   UNL d   1      29.768 -14.899  -7.164  0.00  0.00     0.278 C 
BRANCH   9  10
ATOM     10  O   UNL d   1      31.009 -15.530  -6.740  0.00  0.00    -0.342 OA
BRANCH  10  11
ATOM     11  C   UNL d   1      31.177 -16.883  -6.874  0.00  0.00     0.070 A 
ATOM     12  C   UNL d   1      30.776 -17.817  -5.926  0.00  0.00     0.044 A 
ATOM     13  C   UNL d   1      30.972 -19.199  -6.122  0.00  0.00    -0.042 A 
ATOM     14  C   UNL d   1      30.518 -20.142  -5.047  0.00  0.00     0.049 C 
ATOM     15  C   UNL d   1      31.585 -19.644  -7.302  0.00  0.00     0.017 A 
ATOM     16  C   UNL d   1      31.996 -18.720  -8.264  0.00  0.00     0.022 A 
ATOM     17 BR   UNL d   1      31.886 -21.490  -7.638  0.00  0.00    -0.051 Br
ATOM     18  C   UNL d   1      31.795 -17.346  -8.048  0.00  0.00     0.038 A 
ENDBRANCH  10  11
ENDBRANCH   9  10
ENDBRANCH   6   9
ENDBRANCH   3   5
ENDBRANCH   1   3
BRANCH   1  19
ATOM     19  N   UNL d   1      25.934 -16.018  -3.113  0.00  0.00    -0.264 N 
ATOM     20  C   UNL d   1      25.526 -15.857  -1.793  0.00  0.00     0.270 C 
ATOM     21  O   UNL d   1      26.007 -15.011  -1.045  0.00  0.00    -0.266 OA
ATOM     22  H   UNL d   1      25.477 -16.674  -3.748  0.00  0.00     0.190 HD
BRANCH  20  23
ATOM     23  C   UNL d   1      24.465 -16.803  -1.277  0.00  0.00     0.033 A 
ATOM     24  C   UNL d   1      23.113 -16.415  -1.181  0.00  0.00     0.019 A 
ATOM     25  C   UNL d   1      22.149 -17.245  -0.546  0.00  0.00     0.030 A 
ATOM     26  C   UNL d   1      22.511 -18.508  -0.058  0.00  0.00     0.034 A 
ATOM     27  C   UNL d   1      23.860 -18.861  -0.139  0.00  0.00     0.030 A 
ATOM     28  C   UNL d   1      24.822 -18.036  -0.743  0.00  0.00     0.019 A 
BRANCH  26  29
ATOM     29  N   UNL d   1      21.530 -19.398   0.470  0.00  0.00    -0.327 N 
ATOM     30  C   UNL d   1      20.439 -19.896  -0.234  0.00  0.00     0.226 C 
ATOM     31  O   UNL d   1      20.177 -19.703  -1.419  0.00  0.00    -0.273 OA
ATOM     32  H   UNL d   1      21.594 -19.628   1.455  0.00  0.00     0.169 HD
BRANCH  30  33
ATOM     33  C   UNL d   1      19.501 -20.789   0.497  0.00  0.00     0.078 A 
ATOM     34  C   UNL d   1      18.457 -20.299   1.460  0.00  0.00     0.015 A 
ATOM     35  C   UNL d   1      18.030 -20.827   0.120  0.00  0.00     0.015 A 
ENDBRANCH  30  33
ENDBRANCH  26  29
ENDBRANCH  20  23
ENDBRANCH   1  19
TORSDOF 9
ENDMDL
MODEL 3
REMARK VINA RESULT:    -9.240      6.401      9.513
REMARK INTER + INTRA:         -14.146
REMARK INTER:                 -11.925
REMARK INTRA:                  -2.222
REMARK CONF_INDEPENDENT:        2.685
REMARK UNBOUND:                -2.222
REMARK  9 active torsions:
REMARK  status: ('A' for Active; 'I' for Inactive)
REMARK    1  A    between atoms: C_4  and  O_5 
REMARK    2  A    between atoms: O_5  and  C_6 
REMARK    3  A    between atoms: C_6  and  C_7 
REMARK       I    between atoms: C_7  and  N_9 
REMARK    4  A    between atoms: N_9  and  C_10 
REMARK    5  A    between atoms: C_10  and  N_12 
REMARK    6  A    between atoms: N_12  and  N_13 
REMARK       I    between atoms: N_13  and  C_14 
REMARK    7  A    between atoms: C_14  and  C_16 
REMARK    8  A    between atoms: C_19  and  N_20 
REMARK       I    between atoms: N_20  and  C_21 
REMARK    9  A    between atoms: C_21  and  C_23 
ROOT
ATOM      1  N   UNL d   1      27.506 -15.498  -3.085  0.00  0.00    -0.273 N 
ATOM      2  H   UNL d   1      28.284 -15.432  -2.431  0.00  0.00     0.189 HD
ENDROOT
BRANCH   1   3
ATOM      3  C   UNL d   1      27.497 -15.121  -4.445  0.00  0.00     0.193 C 
ATOM      4  S   UNL d   1      26.182 -14.229  -5.027  0.00  0.00    -0.039 SA
BRANCH   3   5
ATOM      5  N   UNL d   1      28.615 -15.528  -5.227  0.00  0.00    -0.301 N 
ATOM      6  C   UNL d   1      29.889 -15.909  -4.719  0.00  0.00     0.248 C 
ATOM      7  O   UNL d   1      30.145 -15.921  -3.513  0.00  0.00    -0.271 OA
ATOM      8  H   UNL d   1      28.492 -15.547  -6.231  0.00  0.00     0.171 HD
BRANCH   6   9
ATOM      9  C   UNL d   1      31.022 -16.334  -5.698  0.00  0.00     0.278 C 
BRANCH   9  10
ATOM     10  O   UNL d   1      30.427 -17.067  -6.806  0.00  0.00    -0.342 OA
BRANCH  10  11
ATOM     11  C   UNL d   1      30.832 -18.346  -7.084  0.00  0.00     0.070 A 
ATOM     12  C   UNL d   1      30.979 -18.856  -8.369  0.00  0.00     0.044 A 
ATOM     13  C   UNL d   1      31.403 -20.181  -8.593  0.00  0.00    -0.042 A 
ATOM     14  C   UNL d   1      31.530 -20.658 -10.011  0.00  0.00     0.049 C 
ATOM     15  C   UNL d   1      31.685 -21.006  -7.495  0.00  0.00     0.017 A 
ATOM     16  C   UNL d   1      31.541 -20.512  -6.198  0.00  0.00     0.022 A 
ATOM     17 BR   UNL d   1      32.259 -22.804  -7.716  0.00  0.00    -0.051 Br
ATOM     18  C   UNL d   1      31.113 -19.189  -5.996  0.00  0.00     0.038 A 
ENDBRANCH  10  11
ENDBRANCH   9  10
ENDBRANCH   6   9
ENDBRANCH   3   5
ENDBRANCH   1   3
BRANCH   1  19
ATOM     19  N   UNL d   1      26.287 -16.080  -2.516  0.00  0.00    -0.264 N 
ATOM     20  C   UNL d   1      26.240 -16.615  -1.233  0.00  0.00     0.270 C 
ATOM     21  O   UNL d   1      27.218 -16.663  -0.494  0.00  0.00    -0.266 OA
ATOM     22  H   UNL d   1      25.452 -15.977  -3.095  0.00  0.00     0.190 HD
BRANCH  20  23
ATOM     23  C   UNL d   1      24.917 -17.185  -0.770  0.00  0.00     0.033 A 
ATOM     24  C   UNL d   1      24.777 -18.546  -0.433  0.00  0.00     0.019 A 
ATOM     25  C   UNL d   1      23.502 -19.113  -0.157  0.00  0.00     0.030 A 
ATOM     26  C   UNL d   1      22.355 -18.308  -0.148  0.00  0.00     0.034 A 
ATOM     27  C   UNL d   1      22.513 -16.968  -0.510  0.00  0.00     0.030 A 
ATOM     28  C   UNL d   1      23.765 -16.408  -0.808  0.00  0.00     0.019 A 
BRANCH  26  29
ATOM     29  N   UNL d   1      21.092 -18.838   0.246  0.00  0.00    -0.327 N 
ATOM     30  C   UNL d   1      20.183 -19.458  -0.605  0.00  0.00     0.226 C 
ATOM     31  O   UNL d   1      20.340 -19.700  -1.800  0.00  0.00    -0.273 OA
ATOM     32  H   UNL d   1      20.803 -18.685   1.206  0.00  0.00     0.169 HD
BRANCH  30  33
ATOM     33  C   UNL d   1      18.896 -19.918  -0.017  0.00  0.00     0.078 A 
ATOM     34  C   UNL d   1      18.701 -21.265   0.619  0.00  0.00     0.015 A 
ATOM     35  C   UNL d   1      18.743 -20.041   1.489  0.00  0.00     0.015 A 
ENDBRANCH  30  33
ENDBRANCH  26  29
ENDBRANCH  20  23
ENDBRANCH   1  19
TORSDOF 9
ENDMDL
MODEL 4
REMARK VINA RESULT:    -9.237      5.748      7.406
REMARK INTER + INTRA:         -14.282
REMARK INTER:                 -11.922
REMARK INTRA:                  -2.361
REMARK CONF_INDEPENDENT:        2.685
REMARK UNBOUND:                -2.361
REMARK  9 active torsions:
REMARK  status: ('A' for Active; 'I' for Inactive)
REMARK    1  A    between atoms: C_4  and  O_5 
REMARK    2  A    between atoms: O_5  and  C_6 
REMARK    3  A    between atoms: C_6  and  C_7 
REMARK       I    between atoms: C_7  and  N_9 
REMARK    4  A    between atoms: N_9  and  C_10 
REMARK    5  A    between atoms: C_10  and  N_12 
REMARK    6  A    between atoms: N_12  and  N_13 
REMARK       I    between atoms: N_13  and  C_14 
REMARK    7  A    between atoms: C_14  and  C_16 
REMARK    8  A    between atoms: C_19  and  N_20 
REMARK       I    between atoms: N_20  and  C_21 
REMARK    9  A    between atoms: C_21  and  C_23 
ROOT
ATOM      1  N   UNL d   1      28.501 -16.551  -1.977  0.00  0.00    -0.273 N 
ATOM      2  H   UNL d   1      29.274 -16.775  -1.352  0.00  0.00     0.189 HD
ENDROOT
BRANCH   1   3
ATOM      3  C   UNL d   1      28.563 -15.837  -3.193  0.00  0.00     0.193 C 
ATOM      4  S   UNL d   1      29.805 -16.205  -4.282  0.00  0.00    -0.039 SA
BRANCH   3   5
ATOM      5  N   UNL d   1      27.557 -14.852  -3.407  0.00  0.00    -0.301 N 
ATOM      6  C   UNL d   1      26.695 -14.778  -4.537  0.00  0.00     0.248 C 
ATOM      7  O   UNL d   1      26.745 -15.589  -5.464  0.00  0.00    -0.271 OA
ATOM      8  H   UNL d   1      27.447 -14.144  -2.693  0.00  0.00     0.171 HD
BRANCH   6   9
ATOM      9  C   UNL d   1      25.636 -13.641  -4.634  0.00  0.00     0.278 C 
BRANCH   9  10
ATOM     10  O   UNL d   1      25.883 -12.684  -3.565  0.00  0.00    -0.342 OA
BRANCH  10  11
ATOM     11  C   UNL d   1      25.948 -11.344  -3.841  0.00  0.00     0.070 A 
ATOM     12  C   UNL d   1      25.893 -10.807  -5.122  0.00  0.00     0.044 A 
ATOM     13  C   UNL d   1      25.961  -9.417  -5.343  0.00  0.00    -0.042 A 
ATOM     14  C   UNL d   1      25.902  -8.917  -6.758  0.00  0.00     0.049 C 
ATOM     15  C   UNL d   1      26.085  -8.553  -4.246  0.00  0.00     0.017 A 
ATOM     16  C   UNL d   1      26.144  -9.074  -2.953  0.00  0.00     0.022 A 
ATOM     17 BR   UNL d   1      26.184  -6.668  -4.463  0.00  0.00    -0.051 Br
ATOM     18  C   UNL d   1      26.078 -10.464  -2.754  0.00  0.00     0.038 A 
ENDBRANCH  10  11
ENDBRANCH   9  10
ENDBRANCH   6   9
ENDBRANCH   3   5
ENDBRANCH   1   3
BRANCH   1  19
ATOM     19  N   UNL d   1      27.201 -17.068  -1.540  0.00  0.00    -0.264 N 
ATOM     20  C   UNL d   1      26.130 -16.237  -1.226  0.00  0.00     0.270 C 
ATOM     21  O   UNL d   1      26.202 -15.012  -1.268  0.00  0.00    -0.266 OA
ATOM     22  H   UNL d   1      27.110 -18.084  -1.574  0.00  0.00     0.190 HD
BRANCH  20  23
ATOM     23  C   UNL d   1      24.845 -16.902  -0.787  0.00  0.00     0.033 A 
ATOM     24  C   UNL d   1      24.813 -18.251  -0.383  0.00  0.00     0.019 A 
ATOM     25  C   UNL d   1      23.583 -18.918  -0.128  0.00  0.00     0.030 A 
ATOM     26  C   UNL d   1      22.369 -18.223  -0.207  0.00  0.00     0.034 A 
ATOM     27  C   UNL d   1      22.422 -16.893  -0.634  0.00  0.00     0.030 A 
ATOM     28  C   UNL d   1      23.630 -16.236  -0.911  0.00  0.00     0.019 A 
BRANCH  26  29
ATOM     29  N   UNL d   1      21.142 -18.846   0.165  0.00  0.00    -0.327 N 
ATOM     30  C   UNL d   1      20.280 -19.501  -0.709  0.00  0.00     0.226 C 
ATOM     31  O   UNL d   1      20.459 -19.700  -1.909  0.00  0.00    -0.273 OA
ATOM     32  H   UNL d   1      20.840 -18.739   1.126  0.00  0.00     0.169 HD
BRANCH  30  33
ATOM     33  C   UNL d   1      19.025 -20.062  -0.142  0.00  0.00     0.078 A 
ATOM     34  C   UNL d   1      18.953 -21.360   0.612  0.00  0.00     0.015 A 
ATOM     35  C   UNL d   1      18.797 -20.066   1.360  0.00  0.00     0.015 A 
ENDBRANCH  30  33
ENDBRANCH  26  29
ENDBRANCH  20  23
ENDBRANCH   1  19
TORSDOF 9
ENDMDL
MODEL 5
REMARK VINA RESULT:    -8.906      5.709      7.239
REMARK INTER + INTRA:         -14.374
REMARK INTER:                 -11.590
REMARK INTRA:                  -2.784
REMARK CONF_INDEPENDENT:        2.685
REMARK UNBOUND:                -2.784
REMARK  9 active torsions:
REMARK  status: ('A' for Active; 'I' for Inactive)
REMARK    1  A    between atoms: C_4  and  O_5 
REMARK    2  A    between atoms: O_5  and  C_6 
REMARK    3  A    between atoms: C_6  and  C_7 
REMARK       I    between atoms: C_7  and  N_9 
REMARK    4  A    between atoms: N_9  and  C_10 
REMARK    5  A    between atoms: C_10  and  N_12 
REMARK    6  A    between atoms: N_12  and  N_13 
REMARK       I    between atoms: N_13  and  C_14 
REMARK    7  A    between atoms: C_14  and  C_16 
REMARK    8  A    between atoms: C_19  and  N_20 
REMARK       I    between atoms: N_20  and  C_21 
REMARK    9  A    between atoms: C_21  and  C_23 
ROOT
ATOM      1  N   UNL d   1      29.183 -16.967  -1.100  0.00  0.00    -0.273 N 
ATOM      2  H   UNL d   1      29.669 -16.550  -0.308  0.00  0.00     0.189 HD
ENDROOT
BRANCH   1   3
ATOM      3  C   UNL d   1      29.706 -17.230  -2.385  0.00  0.00     0.193 C 
ATOM      4  S   UNL d   1      30.968 -18.346  -2.529  0.00  0.00    -0.039 SA
BRANCH   3   5
ATOM      5  N   UNL d   1      29.115 -16.523  -3.471  0.00  0.00    -0.301 N 
ATOM      6  C   UNL d   1      29.677 -16.379  -4.771  0.00  0.00     0.248 C 
ATOM      7  O   UNL d   1      30.763 -16.872  -5.083  0.00  0.00    -0.271 OA
ATOM      8  H   UNL d   1      28.219 -16.085  -3.302  0.00  0.00     0.171 HD
BRANCH   6   9
ATOM      9  C   UNL d   1      28.912 -15.576  -5.863  0.00  0.00     0.278 C 
BRANCH   9  10
ATOM     10  O   UNL d   1      27.556 -15.331  -5.397  0.00  0.00    -0.342 OA
BRANCH  10  11
ATOM     11  C   UNL d   1      27.184 -14.080  -4.982  0.00  0.00     0.070 A 
ATOM     12  C   UNL d   1      28.030 -12.977  -4.974  0.00  0.00     0.044 A 
ATOM     13  C   UNL d   1      27.588 -11.711  -4.539  0.00  0.00    -0.042 A 
ATOM     14  C   UNL d   1      28.566 -10.572  -4.554  0.00  0.00     0.049 C 
ATOM     15  C   UNL d   1      26.264 -11.558  -4.105  0.00  0.00     0.017 A 
ATOM     16  C   UNL d   1      25.402 -12.655  -4.104  0.00  0.00     0.022 A 
ATOM     17 BR   UNL d   1      25.595  -9.885  -3.503  0.00  0.00    -0.051 Br
ATOM     18  C   UNL d   1      25.862 -13.909  -4.538  0.00  0.00     0.038 A 
ENDBRANCH  10  11
ENDBRANCH   9  10
ENDBRANCH   6   9
ENDBRANCH   3   5
ENDBRANCH   1   3
BRANCH   1  19
ATOM     19  N   UNL d   1      27.793 -17.345  -0.824  0.00  0.00    -0.264 N 
ATOM     20  C   UNL d   1      26.710 -16.691  -1.402  0.00  0.00     0.270 C 
ATOM     21  O   UNL d   1      26.835 -15.737  -2.164  0.00  0.00    -0.266 OA
ATOM     22  H   UNL d   1      27.683 -18.183  -0.253  0.00  0.00     0.190 HD
BRANCH  20  23
ATOM     23  C   UNL d   1      25.329 -17.182  -1.030  0.00  0.00     0.033 A 
ATOM     24  C   UNL d   1      24.201 -16.339  -1.100  0.00  0.00     0.019 A 
ATOM     25  C   UNL d   1      22.937 -16.751  -0.596  0.00  0.00     0.030 A 
ATOM     26  C   UNL d   1      22.766 -18.041  -0.077  0.00  0.00     0.034 A 
ATOM     27  C   UNL d   1      23.902 -18.851   0.007  0.00  0.00     0.030 A 
ATOM     28  C   UNL d   1      25.158 -18.442  -0.466  0.00  0.00     0.019 A 
BRANCH  26  29
ATOM     29  N   UNL d   1      21.478 -18.507   0.318  0.00  0.00    -0.327 N 
ATOM     30  C   UNL d   1      20.622 -19.263  -0.477  0.00  0.00     0.226 C 
ATOM     31  O   UNL d   1      20.853 -19.696  -1.604  0.00  0.00    -0.273 OA
ATOM     32  H   UNL d   1      21.131 -18.203   1.220  0.00  0.00     0.169 HD
BRANCH  30  33
ATOM     33  C   UNL d   1      19.299 -19.630   0.096  0.00  0.00     0.078 A 
ATOM     34  C   UNL d   1      18.840 -21.046   0.303  0.00  0.00     0.015 A 
ATOM     35  C   UNL d   1      19.206 -20.209   1.497  0.00  0.00     0.015 A 
ENDBRANCH  30  33
ENDBRANCH  26  29
ENDBRANCH  20  23
ENDBRANCH   1  19
TORSDOF 9
ENDMDL
MODEL 6
REMARK VINA RESULT:    -8.892      5.797      7.959
REMARK INTER + INTRA:         -14.392
REMARK INTER:                 -11.576
REMARK INTRA:                  -2.816
REMARK CONF_INDEPENDENT:        2.685
REMARK UNBOUND:                -2.816
REMARK  9 active torsions:
REMARK  status: ('A' for Active; 'I' for Inactive)
REMARK    1  A    between atoms: C_4  and  O_5 
REMARK    2  A    between atoms: O_5  and  C_6 
REMARK    3  A    between atoms: C_6  and  C_7 
REMARK       I    between atoms: C_7  and  N_9 
REMARK    4  A    between atoms: N_9  and  C_10 
REMARK    5  A    between atoms: C_10  and  N_12 
REMARK    6  A    between atoms: N_12  and  N_13 
REMARK       I    between atoms: N_13  and  C_14 
REMARK    7  A    between atoms: C_14  and  C_16 
REMARK    8  A    between atoms: C_19  and  N_20 
REMARK       I    between atoms: N_20  and  C_21 
REMARK    9  A    between atoms: C_21  and  C_23 
ROOT
ATOM      1  N   UNL d   1      27.632 -13.706  -0.617  0.00  0.00    -0.273 N 
ATOM      2  H   UNL d   1      28.099 -13.490   0.263  0.00  0.00     0.189 HD
ENDROOT
BRANCH   1   3
ATOM      3  C   UNL d   1      27.958 -13.218  -1.901  0.00  0.00     0.193 C 
ATOM      4  S   UNL d   1      28.922 -11.833  -2.017  0.00  0.00    -0.039 SA
BRANCH   3   5
ATOM      5  N   UNL d   1      27.443 -13.948  -3.009  0.00  0.00    -0.301 N 
ATOM      6  C   UNL d   1      26.252 -13.638  -3.725  0.00  0.00     0.248 C 
ATOM      7  O   UNL d   1      25.537 -12.676  -3.438  0.00  0.00    -0.271 OA
ATOM      8  H   UNL d   1      27.968 -14.757  -3.313  0.00  0.00     0.171 HD
BRANCH   6   9
ATOM      9  C   UNL d   1      25.811 -14.529  -4.923  0.00  0.00     0.278 C 
BRANCH   9  10
ATOM     10  O   UNL d   1      26.827 -15.547  -5.144  0.00  0.00    -0.342 OA
BRANCH  10  11
ATOM     11  C   UNL d   1      28.054 -15.200  -5.645  0.00  0.00     0.070 A 
ATOM     12  C   UNL d   1      28.263 -14.170  -6.555  0.00  0.00     0.044 A 
ATOM     13  C   UNL d   1      29.551 -13.857  -7.032  0.00  0.00    -0.042 A 
ATOM     14  C   UNL d   1      29.691 -12.735  -8.020  0.00  0.00     0.049 C 
ATOM     15  C   UNL d   1      30.650 -14.598  -6.577  0.00  0.00     0.017 A 
ATOM     16  C   UNL d   1      30.459 -15.636  -5.665  0.00  0.00     0.022 A 
ATOM     17 BR   UNL d   1      32.418 -14.237  -7.175  0.00  0.00    -0.051 Br
ATOM     18  C   UNL d   1      29.166 -15.936  -5.204  0.00  0.00     0.038 A 
ENDBRANCH  10  11
ENDBRANCH   9  10
ENDBRANCH   6   9
ENDBRANCH   3   5
ENDBRANCH   1   3
BRANCH   1  19
ATOM     19  N   UNL d   1      26.520 -14.653  -0.494  0.00  0.00    -0.264 N 
ATOM     20  C   UNL d   1      26.518 -15.893  -1.124  0.00  0.00     0.270 C 
ATOM     21  O   UNL d   1      27.433 -16.275  -1.847  0.00  0.00    -0.266 OA
ATOM     22  H   UNL d   1      25.791 -14.375   0.164  0.00  0.00     0.190 HD
BRANCH  20  23
ATOM     23  C   UNL d   1      25.306 -16.772  -0.914  0.00  0.00     0.033 A 
ATOM     24  C   UNL d   1      24.012 -16.344  -1.272  0.00  0.00     0.019 A 
ATOM     25  C   UNL d   1      22.860 -17.102  -0.925  0.00  0.00     0.030 A 
ATOM     26  C   UNL d   1      22.991 -18.336  -0.275  0.00  0.00     0.034 A 
ATOM     27  C   UNL d   1      24.280 -18.729   0.094  0.00  0.00     0.030 A 
ATOM     28  C   UNL d   1      25.420 -17.974  -0.223  0.00  0.00     0.019 A 
BRANCH  26  29
ATOM     29  N   UNL d   1      21.854 -19.161  -0.031  0.00  0.00    -0.327 N 
ATOM     30  C   UNL d   1      20.573 -18.922  -0.518  0.00  0.00     0.226 C 
ATOM     31  O   UNL d   1      20.228 -18.013  -1.270  0.00  0.00    -0.273 OA
ATOM     32  H   UNL d   1      21.974 -19.941   0.604  0.00  0.00     0.169 HD
BRANCH  30  33
ATOM     33  C   UNL d   1      19.502 -19.878  -0.129  0.00  0.00     0.078 A 
ATOM     34  C   UNL d   1      19.743 -21.119   0.684  0.00  0.00     0.015 A 
ATOM     35  C   UNL d   1      19.030 -19.955   1.313  0.00  0.00     0.015 A 
ENDBRANCH  30  33
ENDBRANCH  26  29
ENDBRANCH  20  23
ENDBRANCH   1  19
TORSDOF 9
ENDMDL
MODEL 7
REMARK VINA RESULT:    -8.807      5.484      6.967
REMARK INTER + INTRA:         -14.205
REMARK INTER:                 -11.492
REMARK INTRA:                  -2.713
REMARK CONF_INDEPENDENT:        2.685
REMARK UNBOUND:                -2.713
REMARK  9 active torsions:
REMARK  status: ('A' for Active; 'I' for Inactive)
REMARK    1  A    between atoms: C_4  and  O_5 
REMARK    2  A    between atoms: O_5  and  C_6 
REMARK    3  A    between atoms: C_6  and  C_7 
REMARK       I    between atoms: C_7  and  N_9 
REMARK    4  A    between atoms: N_9  and  C_10 
REMARK    5  A    between atoms: C_10  and  N_12 
REMARK    6  A    between atoms: N_12  and  N_13 
REMARK       I    between atoms: N_13  and  C_14 
REMARK    7  A    between atoms: C_14  and  C_16 
REMARK    8  A    between atoms: C_19  and  N_20 
REMARK       I    between atoms: N_20  and  C_21 
REMARK    9  A    between atoms: C_21  and  C_23 
ROOT
ATOM      1  N   UNL d   1      28.242 -15.569  -3.107  0.00  0.00    -0.273 N 
ATOM      2  H   UNL d   1      29.009 -15.674  -2.445  0.00  0.00     0.189 HD
ENDROOT
BRANCH   1   3
ATOM      3  C   UNL d   1      28.295 -14.989  -4.393  0.00  0.00     0.193 C 
ATOM      4  S   UNL d   1      29.362 -15.642  -5.531  0.00  0.00    -0.039 SA
BRANCH   3   5
ATOM      5  N   UNL d   1      27.428 -13.884  -4.630  0.00  0.00    -0.301 N 
ATOM      6  C   UNL d   1      26.007 -13.944  -4.696  0.00  0.00     0.248 C 
ATOM      7  O   UNL d   1      25.379 -14.995  -4.549  0.00  0.00    -0.271 OA
ATOM      8  H   UNL d   1      27.860 -12.980  -4.763  0.00  0.00     0.171 HD
BRANCH   6   9
ATOM      9  C   UNL d   1      25.186 -12.648  -4.962  0.00  0.00     0.278 C 
BRANCH   9  10
ATOM     10  O   UNL d   1      26.112 -11.537  -5.127  0.00  0.00    -0.342 OA
BRANCH  10  11
ATOM     11  C   UNL d   1      26.072 -10.472  -4.266  0.00  0.00     0.070 A 
ATOM     12  C   UNL d   1      26.643 -10.472  -2.998  0.00  0.00     0.044 A 
ATOM     13  C   UNL d   1      26.573  -9.342  -2.158  0.00  0.00    -0.042 A 
ATOM     14  C   UNL d   1      27.208  -9.425  -0.800  0.00  0.00     0.049 C 
ATOM     15  C   UNL d   1      25.915  -8.191  -2.610  0.00  0.00     0.017 A 
ATOM     16  C   UNL d   1      25.335  -8.173  -3.879  0.00  0.00     0.022 A 
ATOM     17 BR   UNL d   1      25.778  -6.629  -1.536  0.00  0.00    -0.051 Br
ATOM     18  C   UNL d   1      25.412  -9.311  -4.701  0.00  0.00     0.038 A 
ENDBRANCH  10  11
ENDBRANCH   9  10
ENDBRANCH   6   9
ENDBRANCH   3   5
ENDBRANCH   1   3
BRANCH   1  19
ATOM     19  N   UNL d   1      26.965 -16.119  -2.644  0.00  0.00    -0.264 N 
ATOM     20  C   UNL d   1      26.751 -16.510  -1.326  0.00  0.00     0.270 C 
ATOM     21  O   UNL d   1      27.621 -16.449  -0.463  0.00  0.00    -0.266 OA
ATOM     22  H   UNL d   1      26.215 -16.104  -3.336  0.00  0.00     0.190 HD
BRANCH  20  23
ATOM     23  C   UNL d   1      25.386 -17.063  -0.982  0.00  0.00     0.033 A 
ATOM     24  C   UNL d   1      24.205 -16.364  -1.302  0.00  0.00     0.019 A 
ATOM     25  C   UNL d   1      22.936 -16.804  -0.835  0.00  0.00     0.030 A 
ATOM     26  C   UNL d   1      22.823 -17.990  -0.098  0.00  0.00     0.034 A 
ATOM     27  C   UNL d   1      24.009 -18.653   0.230  0.00  0.00     0.030 A 
ATOM     28  C   UNL d   1      25.267 -18.211  -0.207  0.00  0.00     0.019 A 
BRANCH  26  29
ATOM     29  N   UNL d   1      21.546 -18.506   0.271  0.00  0.00    -0.327 N 
ATOM     30  C   UNL d   1      20.732 -19.285  -0.544  0.00  0.00     0.226 C 
ATOM     31  O   UNL d   1      20.997 -19.699  -1.671  0.00  0.00    -0.273 OA
ATOM     32  H   UNL d   1      21.173 -18.222   1.169  0.00  0.00     0.169 HD
BRANCH  30  33
ATOM     33  C   UNL d   1      19.413 -19.703   0.003  0.00  0.00     0.078 A 
ATOM     34  C   UNL d   1      19.147 -21.054   0.606  0.00  0.00     0.015 A 
ATOM     35  C   UNL d   1      19.217 -19.849   1.502  0.00  0.00     0.015 A 
ENDBRANCH  30  33
ENDBRANCH  26  29
ENDBRANCH  20  23
ENDBRANCH   1  19
TORSDOF 9
ENDMDL
MODEL 8
REMARK VINA RESULT:    -8.497      4.606      5.147
REMARK INTER + INTRA:         -14.380
REMARK INTER:                 -11.181
REMARK INTRA:                  -3.199
REMARK CONF_INDEPENDENT:        2.685
REMARK UNBOUND:                -3.199
REMARK  9 active torsions:
REMARK  status: ('A' for Active; 'I' for Inactive)
REMARK    1  A    between atoms: C_4  and  O_5 
REMARK    2  A    between atoms: O_5  and  C_6 
REMARK    3  A    between atoms: C_6  and  C_7 
REMARK       I    between atoms: C_7  and  N_9 
REMARK    4  A    between atoms: N_9  and  C_10 
REMARK    5  A    between atoms: C_10  and  N_12 
REMARK    6  A    between atoms: N_12  and  N_13 
REMARK       I    between atoms: N_13  and  C_14 
REMARK    7  A    between atoms: C_14  and  C_16 
REMARK    8  A    between atoms: C_19  and  N_20 
REMARK       I    between atoms: N_20  and  C_21 
REMARK    9  A    between atoms: C_21  and  C_23 
ROOT
ATOM      1  N   UNL d   1      24.966 -13.271  -3.902  0.00  0.00    -0.273 N 
ATOM      2  H   UNL d   1      24.394 -12.859  -4.638  0.00  0.00     0.189 HD
ENDROOT
BRANCH   1   3
ATOM      3  C   UNL d   1      26.287 -12.922  -3.548  0.00  0.00     0.193 C 
ATOM      4  S   UNL d   1      27.430 -12.735  -4.780  0.00  0.00    -0.039 SA
BRANCH   3   5
ATOM      5  N   UNL d   1      26.551 -12.752  -2.159  0.00  0.00    -0.301 N 
ATOM      6  C   UNL d   1      27.210 -11.636  -1.570  0.00  0.00     0.248 C 
ATOM      7  O   UNL d   1      27.625 -10.684  -2.235  0.00  0.00    -0.271 OA
ATOM      8  H   UNL d   1      26.243 -13.489  -1.538  0.00  0.00     0.171 HD
BRANCH   6   9
ATOM      9  C   UNL d   1      27.428 -11.585  -0.030  0.00  0.00     0.278 C 
BRANCH   9  10
ATOM     10  O   UNL d   1      26.961 -12.837   0.547  0.00  0.00    -0.342 OA
BRANCH  10  11
ATOM     11  C   UNL d   1      27.599 -14.013   0.252  0.00  0.00     0.070 A 
ATOM     12  C   UNL d   1      27.026 -15.271   0.403  0.00  0.00     0.044 A 
ATOM     13  C   UNL d   1      27.732 -16.447   0.079  0.00  0.00    -0.042 A 
ATOM     14  C   UNL d   1      27.045 -17.767   0.277  0.00  0.00     0.049 C 
ATOM     15  C   UNL d   1      29.043 -16.348  -0.408  0.00  0.00     0.017 A 
ATOM     16  C   UNL d   1      29.635 -15.095  -0.563  0.00  0.00     0.022 A 
ATOM     17 BR   UNL d   1      30.059 -17.888  -0.864  0.00  0.00    -0.051 Br
ATOM     18  C   UNL d   1      28.916 -13.934  -0.231  0.00  0.00     0.038 A 
ENDBRANCH  10  11
ENDBRANCH   9  10
ENDBRANCH   6   9
ENDBRANCH   3   5
ENDBRANCH   1   3
BRANCH   1  19
ATOM     19  N   UNL d   1      24.293 -14.322  -3.132  0.00  0.00    -0.264 N 
ATOM     20  C   UNL d   1      24.990 -15.318  -2.456  0.00  0.00     0.270 C 
ATOM     21  O   UNL d   1      26.214 -15.406  -2.474  0.00  0.00    -0.266 OA
ATOM     22  H   UNL d   1      23.282 -14.212  -3.050  0.00  0.00     0.190 HD
BRANCH  20  23
ATOM     23  C   UNL d   1      24.173 -16.342  -1.701  0.00  0.00     0.033 A 
ATOM     24  C   UNL d   1      24.518 -17.708  -1.699  0.00  0.00     0.019 A 
ATOM     25  C   UNL d   1      23.661 -18.688  -1.128  0.00  0.00     0.030 A 
ATOM     26  C   UNL d   1      22.475 -18.306  -0.487  0.00  0.00     0.034 A 
ATOM     27  C   UNL d   1      22.139 -16.950  -0.522  0.00  0.00     0.030 A 
ATOM     28  C   UNL d   1      22.968 -15.981  -1.106  0.00  0.00     0.019 A 
BRANCH  26  29
ATOM     29  N   UNL d   1      21.669 -19.263   0.196  0.00  0.00    -0.327 N 
ATOM     30  C   UNL d   1      20.528 -19.865  -0.323  0.00  0.00     0.226 C 
ATOM     31  O   UNL d   1      20.068 -19.719  -1.454  0.00  0.00    -0.273 OA
ATOM     32  H   UNL d   1      21.906 -19.466   1.161  0.00  0.00     0.169 HD
BRANCH  30  33
ATOM     33  C   UNL d   1      19.796 -20.818   0.553  0.00  0.00     0.078 A 
ATOM     34  C   UNL d   1      18.979 -20.402   1.744  0.00  0.00     0.015 A 
ATOM     35  C   UNL d   1      18.279 -20.890   0.507  0.00  0.00     0.015 A 
ENDBRANCH  30  33
ENDBRANCH  26  29
ENDBRANCH  20  23
ENDBRANCH   1  19
TORSDOF 9
ENDMDL
MODEL 9
REMARK VINA RESULT:    -8.337      4.525      5.708
REMARK INTER + INTRA:         -13.996
REMARK INTER:                 -11.022
REMARK INTRA:                  -2.974
REMARK CONF_INDEPENDENT:        2.685
REMARK UNBOUND:                -2.974
REMARK  9 active torsions:
REMARK  status: ('A' for Active; 'I' for Inactive)
REMARK    1  A    between atoms: C_4  and  O_5 
REMARK    2  A    between atoms: O_5  and  C_6 
REMARK    3  A    between atoms: C_6  and  C_7 
REMARK       I    between atoms: C_7  and  N_9 
REMARK    4  A    between atoms: N_9  and  C_10 
REMARK    5  A    between atoms: C_10  and  N_12 
REMARK    6  A    between atoms: N_12  and  N_13 
REMARK       I    between atoms: N_13  and  C_14 
REMARK    7  A    between atoms: C_14  and  C_16 
REMARK    8  A    between atoms: C_19  and  N_20 
REMARK       I    between atoms: N_20  and  C_21 
REMARK    9  A    between atoms: C_21  and  C_23 
ROOT
ATOM      1  N   UNL d   1      28.237 -15.789  -3.070  0.00  0.00    -0.273 N 
ATOM      2  H   UNL d   1      28.995 -15.940  -2.406  0.00  0.00     0.189 HD
ENDROOT
BRANCH   1   3
ATOM      3  C   UNL d   1      28.319 -15.169  -4.336  0.00  0.00     0.193 C 
ATOM      4  S   UNL d   1      29.258 -15.903  -5.535  0.00  0.00    -0.039 SA
BRANCH   3   5
ATOM      5  N   UNL d   1      27.588 -13.958  -4.500  0.00  0.00    -0.301 N 
ATOM      6  C   UNL d   1      26.170 -13.843  -4.542  0.00  0.00     0.248 C 
ATOM      7  O   UNL d   1      25.422 -14.817  -4.435  0.00  0.00    -0.271 OA
ATOM      8  H   UNL d   1      28.125 -13.106  -4.597  0.00  0.00     0.171 HD
BRANCH   6   9
ATOM      9  C   UNL d   1      25.508 -12.446  -4.726  0.00  0.00     0.278 C 
BRANCH   9  10
ATOM     10  O   UNL d   1      26.320 -11.453  -4.040  0.00  0.00    -0.342 OA
BRANCH  10  11
ATOM     11  C   UNL d   1      26.819 -11.712  -2.790  0.00  0.00     0.070 A 
ATOM     12  C   UNL d   1      26.321 -12.692  -1.940  0.00  0.00     0.044 A 
ATOM     13  C   UNL d   1      26.880 -12.917  -0.665  0.00  0.00    -0.042 A 
ATOM     14  C   UNL d   1      26.279 -13.989   0.197  0.00  0.00     0.049 C 
ATOM     15  C   UNL d   1      27.964 -12.135  -0.245  0.00  0.00     0.017 A 
ATOM     16  C   UNL d   1      28.476 -11.145  -1.085  0.00  0.00     0.022 A 
ATOM     17 BR   UNL d   1      28.770 -12.376   1.460  0.00  0.00    -0.051 Br
ATOM     18  C   UNL d   1      27.903 -10.934  -2.350  0.00  0.00     0.038 A 
ENDBRANCH  10  11
ENDBRANCH   9  10
ENDBRANCH   6   9
ENDBRANCH   3   5
ENDBRANCH   1   3
BRANCH   1  19
ATOM     19  N   UNL d   1      26.939 -16.312  -2.634  0.00  0.00    -0.264 N 
ATOM     20  C   UNL d   1      26.696 -16.718  -1.325  0.00  0.00     0.270 C 
ATOM     21  O   UNL d   1      27.554 -16.692  -0.448  0.00  0.00    -0.266 OA
ATOM     22  H   UNL d   1      26.201 -16.267  -3.337  0.00  0.00     0.190 HD
BRANCH  20  23
ATOM     23  C   UNL d   1      25.312 -17.239  -1.010  0.00  0.00     0.033 A 
ATOM     24  C   UNL d   1      24.167 -16.431  -1.157  0.00  0.00     0.019 A 
ATOM     25  C   UNL d   1      22.891 -16.867  -0.707  0.00  0.00     0.030 A 
ATOM     26  C   UNL d   1      22.729 -18.149  -0.165  0.00  0.00     0.034 A 
ATOM     27  C   UNL d   1      23.881 -18.924  -0.005  0.00  0.00     0.030 A 
ATOM     28  C   UNL d   1      25.148 -18.490  -0.424  0.00  0.00     0.019 A 
BRANCH  26  29
ATOM     29  N   UNL d   1      21.436 -18.643   0.176  0.00  0.00    -0.327 N 
ATOM     30  C   UNL d   1      20.558 -19.264  -0.706  0.00  0.00     0.226 C 
ATOM     31  O   UNL d   1      20.769 -19.537  -1.885  0.00  0.00    -0.273 OA
ATOM     32  H   UNL d   1      21.104 -18.462   1.117  0.00  0.00     0.169 HD
BRANCH  30  33
ATOM     33  C   UNL d   1      19.234 -19.684  -0.173  0.00  0.00     0.078 A 
ATOM     34  C   UNL d   1      19.008 -20.948   0.607  0.00  0.00     0.015 A 
ATOM     35  C   UNL d   1      18.955 -19.625   1.318  0.00  0.00     0.015 A 
ENDBRANCH  30  33
ENDBRANCH  26  29
ENDBRANCH  20  23
ENDBRANCH   1  19
TORSDOF 9
ENDMDL
