MODEL 1
REMARK VINA RESULT:    -9.034      0.000      0.000
REMARK INTER + INTRA:         -12.443
REMARK INTER:                 -10.824
REMARK INTRA:                  -1.619
REMARK CONF_INDEPENDENT:        1.790
REMARK UNBOUND:                -1.619
REMARK  6 active torsions:
REMARK  status: ('A' for Active; 'I' for Inactive)
REMARK       I    between atoms: N_1  and  C_2 
REMARK       I    between atoms: C_2  and  N_4 
REMARK    1  A    between atoms: N_4  and  C_5 
REMARK    2  A    between atoms: C_5  and  C_6 
REMARK    3  A    between atoms: C_9  and  N_10 
REMARK       I    between atoms: N_10  and  C_11 
REMARK    4  A    between atoms: C_11  and  C_13 
REMARK    5  A    between atoms: C_18  and  C_19 
REMARK    6  A    between atoms: C_19  and  C_21 
ROOT
ATOM      1  N   UNL d   1      25.639 -14.776  -1.898  0.00  0.00    -0.323 N 
ATOM      2  C   UNL d   1      25.158 -14.075  -3.012  0.00  0.00     0.257 C 
ATOM      3  O   UNL d   1      24.022 -14.123  -3.482  0.00  0.00    -0.267 OA
ATOM      4  H   UNL d   1      26.635 -14.731  -1.712  0.00  0.00     0.169 HD
ENDROOT
BRANCH   1   5
ATOM      5  C   UNL d   1      24.943 -15.857  -1.248  0.00  0.00     0.035 A 
ATOM      6  C   UNL d   1      25.650 -16.988  -0.789  0.00  0.00     0.030 A 
ATOM      7  C   UNL d   1      24.966 -18.198  -0.487  0.00  0.00     0.011 A 
ATOM      8  C   UNL d   1      23.566 -18.275  -0.554  0.00  0.00    -0.040 A 
ATOM      9  C   UNL d   1      22.877 -17.123  -0.928  0.00  0.00     0.011 A 
ATOM     10  C   UNL d   1      23.550 -15.944  -1.266  0.00  0.00     0.030 A 
BRANCH   8  11
ATOM     11  C   UNL d   1      22.773 -19.507  -0.188  0.00  0.00     0.162 C 
BRANCH  11  12
ATOM     12  N   UNL d   1      21.400 -19.249   0.221  0.00  0.00    -0.339 N 
ATOM     13  C   UNL d   1      20.388 -19.377  -0.679  0.00  0.00     0.314 C 
ATOM     14  N   UNL d   1      19.153 -19.135  -0.193  0.00  0.00    -0.352 N 
ATOM     15  O   UNL d   1      20.544 -19.687  -1.862  0.00  0.00    -0.248 OA
ATOM     16  H   UNL d   1      18.384 -19.216  -0.848  0.00  0.00     0.160 HD
ATOM     17  H   UNL d   1      18.943 -18.884   0.759  0.00  0.00     0.160 HD
ATOM     18  H   UNL d   1      21.189 -19.015   1.178  0.00  0.00     0.164 HD
ENDBRANCH  11  12
ENDBRANCH   8  11
ENDBRANCH   1   5
BRANCH   2  19
ATOM     19  C   UNL d   1      26.084 -13.197  -3.771  0.00  0.00     0.046 A 
ATOM     20  C   UNL d   1      25.819 -11.812  -3.630  0.00  0.00     0.018 A 
ATOM     21  C   UNL d   1      26.553 -10.849  -4.325  0.00  0.00     0.001 A 
ATOM     22  C   UNL d   1      27.601 -11.253  -5.136  0.00  0.00     0.001 A 
ATOM     23  C   UNL d   1      27.837 -12.618  -5.330  0.00  0.00     0.016 A 
ATOM     24  C   UNL d   1      27.060 -13.619  -4.691  0.00  0.00     0.031 A 
BRANCH  24  25
ATOM     25  C   UNL d   1      27.389 -15.035  -5.080  0.00  0.00     0.200 C 
ATOM     26  O   UNL d   1      26.629 -15.572  -5.894  0.00  0.00    -0.286 OA
BRANCH  25  27
ATOM     27  C   UNL d   1      28.536 -15.742  -4.551  0.00  0.00     0.055 A 
ATOM     28  C   UNL d   1      29.615 -16.311  -5.200  0.00  0.00     0.023 A 
ATOM     29  C   UNL d   1      30.443 -17.059  -4.313  0.00  0.00     0.009 A 
ATOM     30  C   UNL d   1      30.013 -16.973  -3.008  0.00  0.00     0.050 A 
ATOM     31  S   UNL d   1      28.625 -15.986  -2.850  0.00  0.00    -0.098 SA
ENDBRANCH  25  27
ENDBRANCH  24  25
ENDBRANCH   2  19
TORSDOF 6
ENDMDL
MODEL 2
REMARK VINA RESULT:    -8.810      5.740      7.218
REMARK INTER + INTRA:         -11.771
REMARK INTER:                 -10.599
REMARK INTRA:                  -1.172
REMARK CONF_INDEPENDENT:        1.790
REMARK UNBOUND:                -1.172
REMARK  6 active torsions:
REMARK  status: ('A' for Active; 'I' for Inactive)
REMARK       I    between atoms: N_1  and  C_2 
REMARK       I    between atoms: C_2  and  N_4 
REMARK    1  A    between atoms: N_4  and  C_5 
REMARK    2  A    between atoms: C_5  and  C_6 
REMARK    3  A    between atoms: C_9  and  N_10 
REMARK       I    between atoms: N_10  and  C_11 
REMARK    4  A    between atoms: C_11  and  C_13 
REMARK    5  A    between atoms: C_18  and  C_19 
REMARK    6  A    between atoms: C_19  and  C_21 
ROOT
ATOM      1  N   UNL d   1      27.811 -16.122   1.120  0.00  0.00    -0.323 N 
ATOM      2  C   UNL d   1      27.834 -14.794   1.566  0.00  0.00     0.257 C 
ATOM      3  O   UNL d   1      26.903 -13.990   1.543  0.00  0.00    -0.267 OA
ATOM      4  H   UNL d   1      28.694 -16.619   1.084  0.00  0.00     0.169 HD
ENDROOT
BRANCH   1   5
ATOM      5  C   UNL d   1      26.748 -16.706   0.342  0.00  0.00     0.035 A 
ATOM      6  C   UNL d   1      25.912 -15.891  -0.449  0.00  0.00     0.030 A 
ATOM      7  C   UNL d   1      24.661 -16.377  -0.923  0.00  0.00     0.011 A 
ATOM      8  C   UNL d   1      24.265 -17.704  -0.691  0.00  0.00    -0.040 A 
ATOM      9  C   UNL d   1      25.142 -18.521   0.020  0.00  0.00     0.011 A 
ATOM     10  C   UNL d   1      26.353 -18.032   0.523  0.00  0.00     0.030 A 
BRANCH   8  11
ATOM     11  C   UNL d   1      22.982 -18.303  -1.216  0.00  0.00     0.162 C 
BRANCH  11  12
ATOM     12  N   UNL d   1      22.334 -19.242  -0.314  0.00  0.00    -0.339 N 
ATOM     13  C   UNL d   1      20.976 -19.292  -0.245  0.00  0.00     0.314 C 
ATOM     14  N   UNL d   1      20.477 -20.211   0.607  0.00  0.00    -0.352 N 
ATOM     15  O   UNL d   1      20.221 -18.566  -0.894  0.00  0.00    -0.248 OA
ATOM     16  H   UNL d   1      19.468 -20.259   0.681  0.00  0.00     0.160 HD
ATOM     17  H   UNL d   1      21.026 -20.843   1.165  0.00  0.00     0.160 HD
ATOM     18  H   UNL d   1      22.884 -19.887   0.232  0.00  0.00     0.164 HD
ENDBRANCH  11  12
ENDBRANCH   8  11
ENDBRANCH   1   5
BRANCH   2  19
ATOM     19  C   UNL d   1      29.102 -14.229   2.092  0.00  0.00     0.046 A 
ATOM     20  C   UNL d   1      30.088 -13.993   1.101  0.00  0.00     0.018 A 
ATOM     21  C   UNL d   1      31.361 -13.523   1.430  0.00  0.00     0.001 A 
ATOM     22  C   UNL d   1      31.654 -13.232   2.752  0.00  0.00     0.001 A 
ATOM     23  C   UNL d   1      30.712 -13.515   3.746  0.00  0.00     0.016 A 
ATOM     24  C   UNL d   1      29.436 -14.059   3.447  0.00  0.00     0.031 A 
BRANCH  24  25
ATOM     25  C   UNL d   1      28.580 -14.387   4.640  0.00  0.00     0.200 C 
ATOM     26  O   UNL d   1      27.784 -15.323   4.506  0.00  0.00    -0.286 OA
BRANCH  25  27
ATOM     27  C   UNL d   1      28.679 -13.665   5.892  0.00  0.00     0.055 A 
ATOM     28  C   UNL d   1      29.115 -14.081   7.134  0.00  0.00     0.023 A 
ATOM     29  C   UNL d   1      28.894 -13.097   8.141  0.00  0.00     0.009 A 
ATOM     30  C   UNL d   1      28.367 -11.936   7.621  0.00  0.00     0.050 A 
ATOM     31  S   UNL d   1      28.152 -12.027   5.927  0.00  0.00    -0.098 SA
ENDBRANCH  25  27
ENDBRANCH  24  25
ENDBRANCH   2  19
TORSDOF 6
ENDMDL
MODEL 3
REMARK VINA RESULT:    -8.740      1.958      4.153
REMARK INTER + INTRA:         -11.782
REMARK INTER:                 -10.530
REMARK INTRA:                  -1.251
REMARK CONF_INDEPENDENT:        1.790
REMARK UNBOUND:                -1.251
REMARK  6 active torsions:
REMARK  status: ('A' for Active; 'I' for Inactive)
REMARK       I    between atoms: N_1  and  C_2 
REMARK       I    between atoms: C_2  and  N_4 
REMARK    1  A    between atoms: N_4  and  C_5 
REMARK    2  A    between atoms: C_5  and  C_6 
REMARK    3  A    between atoms: C_9  and  N_10 
REMARK       I    between atoms: N_10  and  C_11 
REMARK    4  A    between atoms: C_11  and  C_13 
REMARK    5  A    between atoms: C_18  and  C_19 
REMARK    6  A    between atoms: C_19  and  C_21 
ROOT
ATOM      1  N   UNL d   1      26.206 -15.052  -2.344  0.00  0.00    -0.323 N 
ATOM      2  C   UNL d   1      25.873 -14.535  -3.603  0.00  0.00     0.257 C 
ATOM      3  O   UNL d   1      24.783 -14.610  -4.169  0.00  0.00    -0.267 OA
ATOM      4  H   UNL d   1      27.182 -15.024  -2.070  0.00  0.00     0.169 HD
ENDROOT
BRANCH   1   5
ATOM      5  C   UNL d   1      25.386 -15.966  -1.592  0.00  0.00     0.035 A 
ATOM      6  C   UNL d   1      25.967 -17.071  -0.934  0.00  0.00     0.030 A 
ATOM      7  C   UNL d   1      25.165 -18.165  -0.505  0.00  0.00     0.011 A 
ATOM      8  C   UNL d   1      23.768 -18.138  -0.648  0.00  0.00    -0.040 A 
ATOM      9  C   UNL d   1      23.202 -17.003  -1.224  0.00  0.00     0.011 A 
ATOM     10  C   UNL d   1      23.993 -15.944  -1.684  0.00  0.00     0.030 A 
BRANCH   8  11
ATOM     11  C   UNL d   1      22.852 -19.236  -0.161  0.00  0.00     0.162 C 
BRANCH  11  12
ATOM     12  N   UNL d   1      21.480 -18.820   0.085  0.00  0.00    -0.339 N 
ATOM     13  C   UNL d   1      20.508 -19.110  -0.823  0.00  0.00     0.314 C 
ATOM     14  N   UNL d   1      19.268 -18.698  -0.489  0.00  0.00    -0.352 N 
ATOM     15  O   UNL d   1      20.705 -19.701  -1.886  0.00  0.00    -0.248 OA
ATOM     16  H   UNL d   1      18.531 -18.895  -1.154  0.00  0.00     0.160 HD
ATOM     17  H   UNL d   1      19.026 -18.216   0.362  0.00  0.00     0.160 HD
ATOM     18  H   UNL d   1      21.235 -18.354   0.945  0.00  0.00     0.164 HD
ENDBRANCH  11  12
ENDBRANCH   8  11
ENDBRANCH   1   5
BRANCH   2  19
ATOM     19  C   UNL d   1      26.919 -13.851  -4.405  0.00  0.00     0.046 A 
ATOM     20  C   UNL d   1      27.783 -14.731  -5.104  0.00  0.00     0.018 A 
ATOM     21  C   UNL d   1      28.860 -14.258  -5.856  0.00  0.00     0.001 A 
ATOM     22  C   UNL d   1      29.063 -12.892  -5.963  0.00  0.00     0.001 A 
ATOM     23  C   UNL d   1      28.254 -12.015  -5.232  0.00  0.00     0.016 A 
ATOM     24  C   UNL d   1      27.196 -12.473  -4.404  0.00  0.00     0.031 A 
BRANCH  24  25
ATOM     25  C   UNL d   1      26.486 -11.404  -3.618  0.00  0.00     0.200 C 
ATOM     26  O   UNL d   1      26.470 -11.543  -2.390  0.00  0.00    -0.286 OA
BRANCH  25  27
ATOM     27  C   UNL d   1      25.859 -10.261  -4.248  0.00  0.00     0.055 A 
ATOM     28  C   UNL d   1      25.395  -9.080  -3.702  0.00  0.00     0.023 A 
ATOM     29  C   UNL d   1      24.693  -8.285  -4.654  0.00  0.00     0.009 A 
ATOM     30  C   UNL d   1      24.711  -8.848  -5.911  0.00  0.00     0.050 A 
ATOM     31  S   UNL d   1      25.579 -10.322  -5.945  0.00  0.00    -0.098 SA
ENDBRANCH  25  27
ENDBRANCH  24  25
ENDBRANCH   2  19
TORSDOF 6
ENDMDL
MODEL 4
REMARK VINA RESULT:    -8.460      1.147      1.422
REMARK INTER + INTRA:         -12.122
REMARK INTER:                 -10.250
REMARK INTRA:                  -1.872
REMARK CONF_INDEPENDENT:        1.790
REMARK UNBOUND:                -1.872
REMARK  6 active torsions:
REMARK  status: ('A' for Active; 'I' for Inactive)
REMARK       I    between atoms: N_1  and  C_2 
REMARK       I    between atoms: C_2  and  N_4 
REMARK    1  A    between atoms: N_4  and  C_5 
REMARK    2  A    between atoms: C_5  and  C_6 
REMARK    3  A    between atoms: C_9  and  N_10 
REMARK       I    between atoms: N_10  and  C_11 
REMARK    4  A    between atoms: C_11  and  C_13 
REMARK    5  A    between atoms: C_18  and  C_19 
REMARK    6  A    between atoms: C_19  and  C_21 
ROOT
ATOM      1  N   UNL d   1      25.858 -14.894  -2.243  0.00  0.00    -0.323 N 
ATOM      2  C   UNL d   1      25.476 -14.343  -3.473  0.00  0.00     0.257 C 
ATOM      3  O   UNL d   1      24.379 -14.445  -4.021  0.00  0.00    -0.267 OA
ATOM      4  H   UNL d   1      26.837 -14.832  -1.986  0.00  0.00     0.169 HD
ENDROOT
BRANCH   1   5
ATOM      5  C   UNL d   1      25.096 -15.876  -1.514  0.00  0.00     0.035 A 
ATOM      6  C   UNL d   1      25.741 -16.973  -0.905  0.00  0.00     0.030 A 
ATOM      7  C   UNL d   1      25.001 -18.121  -0.507  0.00  0.00     0.011 A 
ATOM      8  C   UNL d   1      23.602 -18.160  -0.630  0.00  0.00    -0.040 A 
ATOM      9  C   UNL d   1      22.972 -17.033  -1.156  0.00  0.00     0.011 A 
ATOM     10  C   UNL d   1      23.702 -15.920  -1.586  0.00  0.00     0.030 A 
BRANCH   8  11
ATOM     11  C   UNL d   1      22.750 -19.319  -0.172  0.00  0.00     0.162 C 
BRANCH  11  12
ATOM     12  N   UNL d   1      21.355 -18.988   0.078  0.00  0.00    -0.339 N 
ATOM     13  C   UNL d   1      20.418 -19.228  -0.879  0.00  0.00     0.314 C 
ATOM     14  N   UNL d   1      19.153 -18.904  -0.539  0.00  0.00    -0.352 N 
ATOM     15  O   UNL d   1      20.664 -19.702  -1.990  0.00  0.00    -0.248 OA
ATOM     16  H   UNL d   1      18.440 -19.065  -1.240  0.00  0.00     0.160 HD
ATOM     17  H   UNL d   1      18.871 -18.519   0.348  0.00  0.00     0.160 HD
ATOM     18  H   UNL d   1      21.070 -18.620   0.972  0.00  0.00     0.164 HD
ENDBRANCH  11  12
ENDBRANCH   8  11
ENDBRANCH   1   5
BRANCH   2  19
ATOM     19  C   UNL d   1      26.473 -13.579  -4.265  0.00  0.00     0.046 A 
ATOM     20  C   UNL d   1      25.971 -12.378  -4.827  0.00  0.00     0.018 A 
ATOM     21  C   UNL d   1      26.755 -11.571  -5.652  0.00  0.00     0.001 A 
ATOM     22  C   UNL d   1      28.073 -11.924  -5.890  0.00  0.00     0.001 A 
ATOM     23  C   UNL d   1      28.564 -13.134  -5.390  0.00  0.00     0.016 A 
ATOM     24  C   UNL d   1      27.767 -14.009  -4.606  0.00  0.00     0.031 A 
BRANCH  24  25
ATOM     25  C   UNL d   1      28.421 -15.309  -4.227  0.00  0.00     0.200 C 
ATOM     26  O   UNL d   1      28.561 -16.140  -5.132  0.00  0.00    -0.286 OA
BRANCH  25  27
ATOM     27  C   UNL d   1      28.881 -15.587  -2.882  0.00  0.00     0.055 A 
ATOM     28  C   UNL d   1      29.143 -16.790  -2.255  0.00  0.00     0.023 A 
ATOM     29  C   UNL d   1      29.420 -16.625  -0.868  0.00  0.00     0.009 A 
ATOM     30  C   UNL d   1      29.436 -15.299  -0.497  0.00  0.00     0.050 A 
ATOM     31  S   UNL d   1      29.130 -14.257  -1.819  0.00  0.00    -0.098 SA
ENDBRANCH  25  27
ENDBRANCH  24  25
ENDBRANCH   2  19
TORSDOF 6
ENDMDL
MODEL 5
REMARK VINA RESULT:    -8.317      4.379      6.188
REMARK INTER + INTRA:         -11.805
REMARK INTER:                 -10.107
REMARK INTRA:                  -1.698
REMARK CONF_INDEPENDENT:        1.790
REMARK UNBOUND:                -1.698
REMARK  6 active torsions:
REMARK  status: ('A' for Active; 'I' for Inactive)
REMARK       I    between atoms: N_1  and  C_2 
REMARK       I    between atoms: C_2  and  N_4 
REMARK    1  A    between atoms: N_4  and  C_5 
REMARK    2  A    between atoms: C_5  and  C_6 
REMARK    3  A    between atoms: C_9  and  N_10 
REMARK       I    between atoms: N_10  and  C_11 
REMARK    4  A    between atoms: C_11  and  C_13 
REMARK    5  A    between atoms: C_18  and  C_19 
REMARK    6  A    between atoms: C_19  and  C_21 
ROOT
ATOM      1  N   UNL d   1      27.328 -16.147   0.272  0.00  0.00    -0.323 N 
ATOM      2  C   UNL d   1      28.560 -16.055  -0.387  0.00  0.00     0.257 C 
ATOM      3  O   UNL d   1      28.793 -16.335  -1.563  0.00  0.00    -0.267 OA
ATOM      4  H   UNL d   1      27.322 -16.006   1.276  0.00  0.00     0.169 HD
ENDROOT
BRANCH   1   5
ATOM      5  C   UNL d   1      26.164 -16.810  -0.258  0.00  0.00     0.035 A 
ATOM      6  C   UNL d   1      25.277 -16.122  -1.113  0.00  0.00     0.030 A 
ATOM      7  C   UNL d   1      23.964 -16.616  -1.349  0.00  0.00     0.011 A 
ATOM      8  C   UNL d   1      23.544 -17.842  -0.807  0.00  0.00    -0.040 A 
ATOM      9  C   UNL d   1      24.461 -18.551  -0.033  0.00  0.00     0.011 A 
ATOM     10  C   UNL d   1      25.739 -18.046   0.233  0.00  0.00     0.030 A 
BRANCH   8  11
ATOM     11  C   UNL d   1      22.188 -18.455  -1.066  0.00  0.00     0.162 C 
BRANCH  11  12
ATOM     12  N   UNL d   1      21.684 -19.295   0.010  0.00  0.00    -0.339 N 
ATOM     13  C   UNL d   1      20.451 -19.862  -0.091  0.00  0.00     0.314 C 
ATOM     14  N   UNL d   1      20.088 -20.638   0.951  0.00  0.00    -0.352 N 
ATOM     15  O   UNL d   1      19.689 -19.700  -1.045  0.00  0.00    -0.248 OA
ATOM     16  H   UNL d   1      19.170 -21.063   0.901  0.00  0.00     0.160 HD
ATOM     17  H   UNL d   1      20.656 -20.823   1.762  0.00  0.00     0.160 HD
ATOM     18  H   UNL d   1      22.260 -19.495   0.813  0.00  0.00     0.164 HD
ENDBRANCH  11  12
ENDBRANCH   8  11
ENDBRANCH   1   5
BRANCH   2  19
ATOM     19  C   UNL d   1      29.758 -15.620   0.374  0.00  0.00     0.046 A 
ATOM     20  C   UNL d   1      30.967 -16.226  -0.050  0.00  0.00     0.018 A 
ATOM     21  C   UNL d   1      32.179 -15.978   0.598  0.00  0.00     0.001 A 
ATOM     22  C   UNL d   1      32.212 -15.079   1.651  0.00  0.00     0.001 A 
ATOM     23  C   UNL d   1      31.018 -14.519   2.117  0.00  0.00     0.016 A 
ATOM     24  C   UNL d   1      29.763 -14.808   1.522  0.00  0.00     0.031 A 
BRANCH  24  25
ATOM     25  C   UNL d   1      28.570 -14.193   2.203  0.00  0.00     0.200 C 
ATOM     26  O   UNL d   1      27.629 -13.863   1.473  0.00  0.00    -0.286 OA
BRANCH  25  27
ATOM     27  C   UNL d   1      28.505 -14.002   3.636  0.00  0.00     0.055 A 
ATOM     28  C   UNL d   1      28.913 -14.823   4.669  0.00  0.00     0.023 A 
ATOM     29  C   UNL d   1      28.514 -14.327   5.943  0.00  0.00     0.009 A 
ATOM     30  C   UNL d   1      27.882 -13.107   5.848  0.00  0.00     0.050 A 
ATOM     31  S   UNL d   1      27.781 -12.558   4.231  0.00  0.00    -0.098 SA
ENDBRANCH  25  27
ENDBRANCH  24  25
ENDBRANCH   2  19
TORSDOF 6
ENDMDL
MODEL 6
REMARK VINA RESULT:    -8.277      1.822      3.547
REMARK INTER + INTRA:         -11.754
REMARK INTER:                 -10.067
REMARK INTRA:                  -1.687
REMARK CONF_INDEPENDENT:        1.790
REMARK UNBOUND:                -1.687
REMARK  6 active torsions:
REMARK  status: ('A' for Active; 'I' for Inactive)
REMARK       I    between atoms: N_1  and  C_2 
REMARK       I    between atoms: C_2  and  N_4 
REMARK    1  A    between atoms: N_4  and  C_5 
REMARK    2  A    between atoms: C_5  and  C_6 
REMARK    3  A    between atoms: C_9  and  N_10 
REMARK       I    between atoms: N_10  and  C_11 
REMARK    4  A    between atoms: C_11  and  C_13 
REMARK    5  A    between atoms: C_18  and  C_19 
REMARK    6  A    between atoms: C_19  and  C_21 
ROOT
ATOM      1  N   UNL d   1      27.356 -16.698  -1.364  0.00  0.00    -0.323 N 
ATOM      2  C   UNL d   1      27.872 -15.443  -1.713  0.00  0.00     0.257 C 
ATOM      3  O   UNL d   1      27.328 -14.351  -1.560  0.00  0.00    -0.267 OA
ATOM      4  H   UNL d   1      27.868 -17.517  -1.673  0.00  0.00     0.169 HD
ENDROOT
BRANCH   1   5
ATOM      5  C   UNL d   1      25.991 -16.941  -0.974  0.00  0.00     0.035 A 
ATOM      6  C   UNL d   1      25.621 -18.175  -0.398  0.00  0.00     0.030 A 
ATOM      7  C   UNL d   1      24.256 -18.573  -0.346  0.00  0.00     0.011 A 
ATOM      8  C   UNL d   1      23.235 -17.714  -0.785  0.00  0.00    -0.040 A 
ATOM      9  C   UNL d   1      23.611 -16.464  -1.272  0.00  0.00     0.011 A 
ATOM     10  C   UNL d   1      24.956 -16.089  -1.363  0.00  0.00     0.030 A 
BRANCH   8  11
ATOM     11  C   UNL d   1      21.764 -18.046  -0.701  0.00  0.00     0.162 C 
BRANCH  11  12
ATOM     12  N   UNL d   1      21.430 -19.100   0.245  0.00  0.00    -0.339 N 
ATOM     13  C   UNL d   1      20.326 -19.869   0.043  0.00  0.00     0.314 C 
ATOM     14  N   UNL d   1      20.119 -20.831   0.967  0.00  0.00    -0.352 N 
ATOM     15  O   UNL d   1      19.545 -19.730  -0.899  0.00  0.00    -0.248 OA
ATOM     16  H   UNL d   1      19.297 -21.410   0.842  0.00  0.00     0.160 HD
ATOM     17  H   UNL d   1      20.713 -21.011   1.760  0.00  0.00     0.160 HD
ATOM     18  H   UNL d   1      22.035 -19.292   1.028  0.00  0.00     0.164 HD
ENDBRANCH  11  12
ENDBRANCH   8  11
ENDBRANCH   1   5
BRANCH   2  19
ATOM     19  C   UNL d   1      29.196 -15.365  -2.381  0.00  0.00     0.046 A 
ATOM     20  C   UNL d   1      30.296 -15.341  -1.488  0.00  0.00     0.018 A 
ATOM     21  C   UNL d   1      31.609 -15.206  -1.945  0.00  0.00     0.001 A 
ATOM     22  C   UNL d   1      31.848 -15.143  -3.308  0.00  0.00     0.001 A 
ATOM     23  C   UNL d   1      30.769 -15.106  -4.196  0.00  0.00     0.016 A 
ATOM     24  C   UNL d   1      29.422 -15.171  -3.755  0.00  0.00     0.031 A 
BRANCH  24  25
ATOM     25  C   UNL d   1      28.383 -15.028  -4.834  0.00  0.00     0.200 C 
ATOM     26  O   UNL d   1      28.632 -15.574  -5.914  0.00  0.00    -0.286 OA
BRANCH  25  27
ATOM     27  C   UNL d   1      27.146 -14.302  -4.633  0.00  0.00     0.055 A 
ATOM     28  C   UNL d   1      26.924 -12.963  -4.378  0.00  0.00     0.023 A 
ATOM     29  C   UNL d   1      25.558 -12.690  -4.080  0.00  0.00     0.009 A 
ATOM     30  C   UNL d   1      24.770 -13.814  -4.192  0.00  0.00     0.050 A 
ATOM     31  S   UNL d   1      25.672 -15.189  -4.666  0.00  0.00    -0.098 SA
ENDBRANCH  25  27
ENDBRANCH  24  25
ENDBRANCH   2  19
TORSDOF 6
ENDMDL
MODEL 7
REMARK VINA RESULT:    -8.097      4.265      5.719
REMARK INTER + INTRA:         -11.718
REMARK INTER:                  -9.887
REMARK INTRA:                  -1.832
REMARK CONF_INDEPENDENT:        1.790
REMARK UNBOUND:                -1.832
REMARK  6 active torsions:
REMARK  status: ('A' for Active; 'I' for Inactive)
REMARK       I    between atoms: N_1  and  C_2 
REMARK       I    between atoms: C_2  and  N_4 
REMARK    1  A    between atoms: N_4  and  C_5 
REMARK    2  A    between atoms: C_5  and  C_6 
REMARK    3  A    between atoms: C_9  and  N_10 
REMARK       I    between atoms: N_10  and  C_11 
REMARK    4  A    between atoms: C_11  and  C_13 
REMARK    5  A    between atoms: C_18  and  C_19 
REMARK    6  A    between atoms: C_19  and  C_21 
ROOT
ATOM      1  N   UNL d   1      26.190 -16.438  -0.394  0.00  0.00    -0.323 N 
ATOM      2  C   UNL d   1      27.394 -17.052  -0.024  0.00  0.00     0.257 C 
ATOM      3  O   UNL d   1      27.562 -18.236   0.265  0.00  0.00    -0.267 OA
ATOM      4  H   UNL d   1      26.186 -15.427  -0.475  0.00  0.00     0.169 HD
ENDROOT
BRANCH   1   5
ATOM      5  C   UNL d   1      24.890 -17.047  -0.273  0.00  0.00     0.035 A 
ATOM      6  C   UNL d   1      24.766 -18.447  -0.146  0.00  0.00     0.030 A 
ATOM      7  C   UNL d   1      23.521 -19.091  -0.391  0.00  0.00     0.011 A 
ATOM      8  C   UNL d   1      22.366 -18.347  -0.681  0.00  0.00    -0.040 A 
ATOM      9  C   UNL d   1      22.488 -16.959  -0.719  0.00  0.00     0.011 A 
ATOM     10  C   UNL d   1      23.720 -16.327  -0.520  0.00  0.00     0.030 A 
BRANCH   8  11
ATOM     11  C   UNL d   1      21.002 -18.960  -0.890  0.00  0.00     0.162 C 
BRANCH  11  12
ATOM     12  N   UNL d   1      20.525 -19.778   0.215  0.00  0.00    -0.339 N 
ATOM     13  C   UNL d   1      19.260 -20.279   0.194  0.00  0.00     0.314 C 
ATOM     14  N   UNL d   1      18.925 -21.041   1.256  0.00  0.00    -0.352 N 
ATOM     15  O   UNL d   1      18.447 -20.074  -0.709  0.00  0.00    -0.248 OA
ATOM     16  H   UNL d   1      17.985 -21.417   1.265  0.00  0.00     0.160 HD
ATOM     17  H   UNL d   1      19.534 -21.259   2.028  0.00  0.00     0.160 HD
ATOM     18  H   UNL d   1      21.140 -20.011   0.979  0.00  0.00     0.164 HD
ENDBRANCH  11  12
ENDBRANCH   8  11
ENDBRANCH   1   5
BRANCH   2  19
ATOM     19  C   UNL d   1      28.623 -16.227   0.089  0.00  0.00     0.046 A 
ATOM     20  C   UNL d   1      29.769 -16.807  -0.510  0.00  0.00     0.018 A 
ATOM     21  C   UNL d   1      31.022 -16.196  -0.441  0.00  0.00     0.001 A 
ATOM     22  C   UNL d   1      31.142 -14.966   0.186  0.00  0.00     0.001 A 
ATOM     23  C   UNL d   1      30.032 -14.411   0.831  0.00  0.00     0.016 A 
ATOM     24  C   UNL d   1      28.763 -15.045   0.837  0.00  0.00     0.031 A 
BRANCH  24  25
ATOM     25  C   UNL d   1      27.704 -14.357   1.655  0.00  0.00     0.200 C 
ATOM     26  O   UNL d   1      26.647 -14.088   1.072  0.00  0.00    -0.286 OA
BRANCH  25  27
ATOM     27  C   UNL d   1      27.888 -14.032   3.053  0.00  0.00     0.055 A 
ATOM     28  C   UNL d   1      28.281 -14.826   4.114  0.00  0.00     0.023 A 
ATOM     29  C   UNL d   1      28.175 -14.148   5.362  0.00  0.00     0.009 A 
ATOM     30  C   UNL d   1      27.780 -12.838   5.208  0.00  0.00     0.050 A 
ATOM     31  S   UNL d   1      27.548 -12.424   3.564  0.00  0.00    -0.098 SA
ENDBRANCH  25  27
ENDBRANCH  24  25
ENDBRANCH   2  19
TORSDOF 6
ENDMDL
MODEL 8
REMARK VINA RESULT:    -7.965      6.309      8.096
REMARK INTER + INTRA:         -11.660
REMARK INTER:                  -9.755
REMARK INTRA:                  -1.906
REMARK CONF_INDEPENDENT:        1.790
REMARK UNBOUND:                -1.906
REMARK  6 active torsions:
REMARK  status: ('A' for Active; 'I' for Inactive)
REMARK       I    between atoms: N_1  and  C_2 
REMARK       I    between atoms: C_2  and  N_4 
REMARK    1  A    between atoms: N_4  and  C_5 
REMARK    2  A    between atoms: C_5  and  C_6 
REMARK    3  A    between atoms: C_9  and  N_10 
REMARK       I    between atoms: N_10  and  C_11 
REMARK    4  A    between atoms: C_11  and  C_13 
REMARK    5  A    between atoms: C_18  and  C_19 
REMARK    6  A    between atoms: C_19  and  C_21 
ROOT
ATOM      1  N   UNL d   1      27.930 -14.414   1.474  0.00  0.00    -0.323 N 
ATOM      2  C   UNL d   1      27.010 -13.649   0.746  0.00  0.00     0.257 C 
ATOM      3  O   UNL d   1      26.393 -12.660   1.141  0.00  0.00    -0.267 OA
ATOM      4  H   UNL d   1      28.257 -15.277   1.053  0.00  0.00     0.169 HD
ENDROOT
BRANCH   1   5
ATOM      5  C   UNL d   1      28.139 -14.308   2.895  0.00  0.00     0.035 A 
ATOM      6  C   UNL d   1      27.117 -13.815   3.733  0.00  0.00     0.030 A 
ATOM      7  C   UNL d   1      27.412 -13.363   5.050  0.00  0.00     0.011 A 
ATOM      8  C   UNL d   1      28.707 -13.476   5.580  0.00  0.00    -0.040 A 
ATOM      9  C   UNL d   1      29.687 -14.044   4.769  0.00  0.00     0.011 A 
ATOM     10  C   UNL d   1      29.408 -14.450   3.460  0.00  0.00     0.030 A 
BRANCH   8  11
ATOM     11  C   UNL d   1      29.076 -13.074   6.989  0.00  0.00     0.162 C 
BRANCH  11  12
ATOM     12  N   UNL d   1      29.326 -14.186   7.894  0.00  0.00    -0.339 N 
ATOM     13  C   UNL d   1      28.902 -14.120   9.185  0.00  0.00     0.314 C 
ATOM     14  N   UNL d   1      29.166 -15.212   9.933  0.00  0.00    -0.352 N 
ATOM     15  O   UNL d   1      28.318 -13.152   9.676  0.00  0.00    -0.248 OA
ATOM     16  H   UNL d   1      28.867 -15.181  10.900  0.00  0.00     0.160 HD
ATOM     17  H   UNL d   1      29.631 -16.042   9.604  0.00  0.00     0.160 HD
ATOM     18  H   UNL d   1      29.776 -15.024   7.559  0.00  0.00     0.164 HD
ENDBRANCH  11  12
ENDBRANCH   8  11
ENDBRANCH   1   5
BRANCH   2  19
ATOM     19  C   UNL d   1      26.670 -14.052  -0.642  0.00  0.00     0.046 A 
ATOM     20  C   UNL d   1      26.734 -12.995  -1.585  0.00  0.00     0.018 A 
ATOM     21  C   UNL d   1      26.384 -13.185  -2.924  0.00  0.00     0.001 A 
ATOM     22  C   UNL d   1      26.013 -14.448  -3.354  0.00  0.00     0.001 A 
ATOM     23  C   UNL d   1      25.889 -15.485  -2.424  0.00  0.00     0.016 A 
ATOM     24  C   UNL d   1      26.170 -15.302  -1.045  0.00  0.00     0.031 A 
BRANCH  24  25
ATOM     25  C   UNL d   1      25.898 -16.496  -0.170  0.00  0.00     0.200 C 
ATOM     26  O   UNL d   1      26.785 -16.802   0.634  0.00  0.00    -0.286 OA
BRANCH  25  27
ATOM     27  C   UNL d   1      24.664 -17.249  -0.241  0.00  0.00     0.055 A 
ATOM     28  C   UNL d   1      24.437 -18.608  -0.148  0.00  0.00     0.023 A 
ATOM     29  C   UNL d   1      23.085 -18.950  -0.439  0.00  0.00     0.009 A 
ATOM     30  C   UNL d   1      22.308 -17.837  -0.669  0.00  0.00     0.050 A 
ATOM     31  S   UNL d   1      23.202 -16.386  -0.523  0.00  0.00    -0.098 SA
ENDBRANCH  25  27
ENDBRANCH  24  25
ENDBRANCH   2  19
TORSDOF 6
ENDMDL
MODEL 9
REMARK VINA RESULT:    -7.725      3.694      7.860
REMARK INTER + INTRA:         -11.626
REMARK INTER:                  -9.515
REMARK INTRA:                  -2.112
REMARK CONF_INDEPENDENT:        1.790
REMARK UNBOUND:                -2.112
REMARK  6 active torsions:
REMARK  status: ('A' for Active; 'I' for Inactive)
REMARK       I    between atoms: N_1  and  C_2 
REMARK       I    between atoms: C_2  and  N_4 
REMARK    1  A    between atoms: N_4  and  C_5 
REMARK    2  A    between atoms: C_5  and  C_6 
REMARK    3  A    between atoms: C_9  and  N_10 
REMARK       I    between atoms: N_10  and  C_11 
REMARK    4  A    between atoms: C_11  and  C_13 
REMARK    5  A    between atoms: C_18  and  C_19 
REMARK    6  A    between atoms: C_19  and  C_21 
ROOT
ATOM      1  N   UNL d   1      26.569 -14.093  -2.508  0.00  0.00    -0.323 N 
ATOM      2  C   UNL d   1      25.463 -14.951  -2.445  0.00  0.00     0.257 C 
ATOM      3  O   UNL d   1      24.395 -14.826  -3.043  0.00  0.00    -0.267 OA
ATOM      4  H   UNL d   1      27.328 -14.259  -1.856  0.00  0.00     0.169 HD
ENDROOT
BRANCH   1   5
ATOM      5  C   UNL d   1      26.555 -12.784  -3.109  0.00  0.00     0.035 A 
ATOM      6  C   UNL d   1      26.654 -11.628  -2.307  0.00  0.00     0.030 A 
ATOM      7  C   UNL d   1      26.283 -10.353  -2.819  0.00  0.00     0.011 A 
ATOM      8  C   UNL d   1      25.890 -10.199  -4.159  0.00  0.00    -0.040 A 
ATOM      9  C   UNL d   1      25.879 -11.338  -4.961  0.00  0.00     0.011 A 
ATOM     10  C   UNL d   1      26.204 -12.598  -4.447  0.00  0.00     0.030 A 
BRANCH   8  11
ATOM     11  C   UNL d   1      25.542  -8.869  -4.784  0.00  0.00     0.162 C 
BRANCH  11  12
ATOM     12  N   UNL d   1      24.186  -8.409  -4.524  0.00  0.00    -0.339 N 
ATOM     13  C   UNL d   1      23.403  -7.984  -5.553  0.00  0.00     0.314 C 
ATOM     14  N   UNL d   1      22.158  -7.600  -5.207  0.00  0.00    -0.352 N 
ATOM     15  O   UNL d   1      23.768  -7.936  -6.729  0.00  0.00    -0.248 OA
ATOM     16  H   UNL d   1      21.561  -7.271  -5.956  0.00  0.00     0.160 HD
ATOM     17  H   UNL d   1      21.785  -7.616  -4.271  0.00  0.00     0.160 HD
ATOM     18  H   UNL d   1      23.807  -8.442  -3.591  0.00  0.00     0.164 HD
ENDBRANCH  11  12
ENDBRANCH   8  11
ENDBRANCH   1   5
BRANCH   2  19
ATOM     19  C   UNL d   1      25.513 -16.131  -1.546  0.00  0.00     0.046 A 
ATOM     20  C   UNL d   1      24.396 -16.996  -1.662  0.00  0.00     0.018 A 
ATOM     21  C   UNL d   1      24.250 -18.120  -0.845  0.00  0.00     0.001 A 
ATOM     22  C   UNL d   1      25.245 -18.427   0.067  0.00  0.00     0.001 A 
ATOM     23  C   UNL d   1      26.324 -17.551   0.233  0.00  0.00     0.016 A 
ATOM     24  C   UNL d   1      26.461 -16.365  -0.535  0.00  0.00     0.031 A 
BRANCH  24  25
ATOM     25  C   UNL d   1      27.629 -15.492  -0.166  0.00  0.00     0.200 C 
ATOM     26  O   UNL d   1      28.643 -15.605  -0.865  0.00  0.00    -0.286 OA
BRANCH  25  27
ATOM     27  C   UNL d   1      27.583 -14.553   0.935  0.00  0.00     0.055 A 
ATOM     28  C   UNL d   1      28.151 -14.619   2.193  0.00  0.00     0.023 A 
ATOM     29  C   UNL d   1      27.721 -13.553   3.035  0.00  0.00     0.009 A 
ATOM     30  C   UNL d   1      26.902 -12.668   2.371  0.00  0.00     0.050 A 
ATOM     31  S   UNL d   1      26.661 -13.114   0.737  0.00  0.00    -0.098 SA
ENDBRANCH  25  27
ENDBRANCH  24  25
ENDBRANCH   2  19
TORSDOF 6
ENDMDL
