MODEL 1
REMARK VINA RESULT:    -9.542      0.000      0.000
REMARK INTER + INTRA:         -15.036
REMARK INTER:                 -12.823
REMARK INTRA:                  -2.213
REMARK CONF_INDEPENDENT:        3.281
REMARK UNBOUND:                -2.213
REMARK  11 active torsions:
REMARK  status: ('A' for Active; 'I' for Inactive)
REMARK    1  A    between atoms: C_2  and  C_3 
REMARK    2  A    between atoms: C_3  and  C_4 
REMARK    3  A    between atoms: C_4  and  C_5 
REMARK       I    between atoms: C_5  and  N_7 
REMARK    4  A    between atoms: N_7  and  C_8 
REMARK    5  A    between atoms: C_11  and  C_12 
REMARK       I    between atoms: C_12  and  N_14 
REMARK    6  A    between atoms: N_14  and  N_15 
REMARK    7  A    between atoms: N_15  and  C_16 
REMARK    8  A    between atoms: C_16  and  N_18 
REMARK       I    between atoms: N_18  and  C_19 
REMARK    9  A    between atoms: C_19  and  C_21 
REMARK   10  A    between atoms: C_25  and  O_26 
REMARK   11  A    between atoms: O_26  and  C_27 
ROOT
ATOM      1  C   UNL d   1      27.676 -16.543  -0.567  0.00  0.00     0.270 C 
ATOM      2  O   UNL d   1      28.022 -15.564  -1.235  0.00  0.00    -0.266 OA
ATOM      3  N   UNL d   1      28.603 -17.333   0.104  0.00  0.00    -0.264 N 
ATOM      4  H   UNL d   1      28.340 -18.132   0.679  0.00  0.00     0.190 HD
ENDROOT
BRANCH   3   5
ATOM      5  N   UNL d   1      30.034 -17.070   0.095  0.00  0.00    -0.273 N 
ATOM      6  H   UNL d   1      30.407 -16.705   0.968  0.00  0.00     0.189 HD
BRANCH   5   7
ATOM      7  C   UNL d   1      30.749 -17.318  -1.095  0.00  0.00     0.193 C 
ATOM      8  S   UNL d   1      32.228 -18.134  -1.017  0.00  0.00    -0.039 SA
BRANCH   7   9
ATOM      9  N   UNL d   1      30.148 -16.845  -2.286  0.00  0.00    -0.298 N 
ATOM     10  C   UNL d   1      30.828 -16.332  -3.418  0.00  0.00     0.258 C 
ATOM     11  O   UNL d   1      32.053 -16.236  -3.521  0.00  0.00    -0.267 OA
ATOM     12  H   UNL d   1      29.142 -16.911  -2.353  0.00  0.00     0.171 HD
BRANCH  10  13
ATOM     13  C   UNL d   1      30.086 -15.803  -4.602  0.00  0.00     0.035 A 
ATOM     14  C   UNL d   1      30.735 -14.899  -5.468  0.00  0.00     0.017 A 
ATOM     15  C   UNL d   1      30.007 -14.125  -6.379  0.00  0.00     0.004 A 
ATOM     16  C   UNL d   1      28.627 -14.291  -6.474  0.00  0.00     0.037 A 
ATOM     17  C   UNL d   1      27.974 -15.198  -5.632  0.00  0.00     0.069 A 
ATOM     18  C   UNL d   1      28.707 -15.953  -4.700  0.00  0.00     0.053 A 
BRANCH  17  19
ATOM     19  O   UNL d   1      26.607 -15.238  -5.755  0.00  0.00    -0.351 OA
BRANCH  19  20
ATOM     20  C   UNL d   1      25.883 -14.846  -4.589  0.00  0.00     0.171 C 
ATOM     21  C   UNL d   1      25.734 -13.343  -4.567  0.00  0.00     0.034 C 
ENDBRANCH  19  20
ENDBRANCH  17  19
ENDBRANCH  10  13
ENDBRANCH   7   9
ENDBRANCH   5   7
ENDBRANCH   3   5
BRANCH   1  22
ATOM     22  C   UNL d   1      26.200 -16.902  -0.437  0.00  0.00     0.033 A 
ATOM     23  C   UNL d   1      25.814 -18.185   0.008  0.00  0.00     0.019 A 
ATOM     24  C   UNL d   1      24.451 -18.581   0.065  0.00  0.00     0.030 A 
ATOM     25  C   UNL d   1      23.442 -17.682  -0.285  0.00  0.00     0.034 A 
ATOM     26  C   UNL d   1      23.824 -16.410  -0.718  0.00  0.00     0.030 A 
ATOM     27  C   UNL d   1      25.173 -16.017  -0.780  0.00  0.00     0.019 A 
BRANCH  25  28
ATOM     28  N   UNL d   1      22.065 -18.008  -0.132  0.00  0.00    -0.327 N 
ATOM     29  C   UNL d   1      21.360 -18.752  -1.070  0.00  0.00     0.222 C 
ATOM     30  O   UNL d   1      21.895 -19.325  -2.020  0.00  0.00    -0.273 OA
ATOM     31  H   UNL d   1      21.604 -17.722   0.724  0.00  0.00     0.169 HD
BRANCH  29  32
ATOM     32  C   UNL d   1      19.855 -18.862  -0.848  0.00  0.00     0.103 C 
BRANCH  32  33
ATOM     33  C   UNL d   1      19.589 -19.444   0.552  0.00  0.00     0.009 C 
BRANCH  33  34
ATOM     34  C   UNL d   1      19.443 -20.960   0.562  0.00  0.00    -0.004 C 
ATOM     35  C   UNL d   1      18.073 -21.367   1.087  0.00  0.00     0.005 C 
ENDBRANCH  33  34
ENDBRANCH  32  33
ENDBRANCH  29  32
ENDBRANCH  25  28
ENDBRANCH   1  22
TORSDOF 11
ENDMDL
MODEL 2
REMARK VINA RESULT:    -9.517      1.035      1.269
REMARK INTER + INTRA:         -15.160
REMARK INTER:                 -12.798
REMARK INTRA:                  -2.362
REMARK CONF_INDEPENDENT:        3.281
REMARK UNBOUND:                -2.362
REMARK  11 active torsions:
REMARK  status: ('A' for Active; 'I' for Inactive)
REMARK    1  A    between atoms: C_2  and  C_3 
REMARK    2  A    between atoms: C_3  and  C_4 
REMARK    3  A    between atoms: C_4  and  C_5 
REMARK       I    between atoms: C_5  and  N_7 
REMARK    4  A    between atoms: N_7  and  C_8 
REMARK    5  A    between atoms: C_11  and  C_12 
REMARK       I    between atoms: C_12  and  N_14 
REMARK    6  A    between atoms: N_14  and  N_15 
REMARK    7  A    between atoms: N_15  and  C_16 
REMARK    8  A    between atoms: C_16  and  N_18 
REMARK       I    between atoms: N_18  and  C_19 
REMARK    9  A    between atoms: C_19  and  C_21 
REMARK   10  A    between atoms: C_25  and  O_26 
REMARK   11  A    between atoms: O_26  and  C_27 
ROOT
ATOM      1  C   UNL d   1      27.573 -16.709  -0.477  0.00  0.00     0.270 C 
ATOM      2  O   UNL d   1      27.954 -15.544  -0.630  0.00  0.00    -0.266 OA
ATOM      3  N   UNL d   1      28.471 -17.766  -0.386  0.00  0.00    -0.264 N 
ATOM      4  H   UNL d   1      28.181 -18.731  -0.238  0.00  0.00     0.190 HD
ENDROOT
BRANCH   3   5
ATOM      5  N   UNL d   1      29.915 -17.595  -0.440  0.00  0.00    -0.273 N 
ATOM      6  H   UNL d   1      30.405 -17.816   0.425  0.00  0.00     0.189 HD
BRANCH   5   7
ATOM      7  C   UNL d   1      30.486 -17.132  -1.643  0.00  0.00     0.193 C 
ATOM      8  S   UNL d   1      32.097 -17.510  -1.994  0.00  0.00    -0.039 SA
BRANCH   7   9
ATOM      9  N   UNL d   1      29.636 -16.365  -2.475  0.00  0.00    -0.298 N 
ATOM     10  C   UNL d   1      29.510 -16.488  -3.881  0.00  0.00     0.258 C 
ATOM     11  O   UNL d   1      30.130 -17.297  -4.576  0.00  0.00    -0.267 OA
ATOM     12  H   UNL d   1      29.033 -15.692  -2.024  0.00  0.00     0.171 HD
BRANCH  10  13
ATOM     13  C   UNL d   1      28.621 -15.582  -4.668  0.00  0.00     0.035 A 
ATOM     14  C   UNL d   1      29.200 -14.532  -5.410  0.00  0.00     0.017 A 
ATOM     15  C   UNL d   1      28.420 -13.470  -5.884  0.00  0.00     0.004 A 
ATOM     16  C   UNL d   1      27.043 -13.479  -5.672  0.00  0.00     0.037 A 
ATOM     17  C   UNL d   1      26.456 -14.525  -4.951  0.00  0.00     0.069 A 
ATOM     18  C   UNL d   1      27.247 -15.575  -4.454  0.00  0.00     0.053 A 
BRANCH  17  19
ATOM     19  O   UNL d   1      25.104 -14.406  -4.736  0.00  0.00    -0.351 OA
BRANCH  19  20
ATOM     20  C   UNL d   1      24.737 -13.540  -3.663  0.00  0.00     0.171 C 
ATOM     21  C   UNL d   1      25.916 -13.354  -2.736  0.00  0.00     0.034 C 
ENDBRANCH  19  20
ENDBRANCH  17  19
ENDBRANCH  10  13
ENDBRANCH   7   9
ENDBRANCH   5   7
ENDBRANCH   3   5
BRANCH   1  22
ATOM     22  C   UNL d   1      26.085 -17.020  -0.359  0.00  0.00     0.033 A 
ATOM     23  C   UNL d   1      25.652 -18.215   0.256  0.00  0.00     0.019 A 
ATOM     24  C   UNL d   1      24.280 -18.575   0.313  0.00  0.00     0.030 A 
ATOM     25  C   UNL d   1      23.306 -17.723  -0.211  0.00  0.00     0.034 A 
ATOM     26  C   UNL d   1      23.734 -16.536  -0.812  0.00  0.00     0.030 A 
ATOM     27  C   UNL d   1      25.093 -16.180  -0.875  0.00  0.00     0.019 A 
BRANCH  25  28
ATOM     28  N   UNL d   1      21.917 -17.999  -0.070  0.00  0.00    -0.327 N 
ATOM     29  C   UNL d   1      21.197 -18.727  -1.010  0.00  0.00     0.222 C 
ATOM     30  O   UNL d   1      21.721 -19.326  -1.949  0.00  0.00    -0.273 OA
ATOM     31  H   UNL d   1      21.457 -17.690   0.778  0.00  0.00     0.169 HD
BRANCH  29  32
ATOM     32  C   UNL d   1      19.686 -18.782  -0.803  0.00  0.00     0.103 C 
BRANCH  32  33
ATOM     33  C   UNL d   1      19.270 -20.229  -0.487  0.00  0.00     0.009 C 
BRANCH  33  34
ATOM     34  C   UNL d   1      18.948 -20.461   0.984  0.00  0.00    -0.004 C 
ATOM     35  C   UNL d   1      19.904 -19.679   1.875  0.00  0.00     0.005 C 
ENDBRANCH  33  34
ENDBRANCH  32  33
ENDBRANCH  29  32
ENDBRANCH  25  28
ENDBRANCH   1  22
TORSDOF 11
ENDMDL
MODEL 3
REMARK VINA RESULT:    -9.358      1.793      2.734
REMARK INTER + INTRA:         -14.665
REMARK INTER:                 -12.640
REMARK INTRA:                  -2.026
REMARK CONF_INDEPENDENT:        3.281
REMARK UNBOUND:                -2.026
REMARK  11 active torsions:
REMARK  status: ('A' for Active; 'I' for Inactive)
REMARK    1  A    between atoms: C_2  and  C_3 
REMARK    2  A    between atoms: C_3  and  C_4 
REMARK    3  A    between atoms: C_4  and  C_5 
REMARK       I    between atoms: C_5  and  N_7 
REMARK    4  A    between atoms: N_7  and  C_8 
REMARK    5  A    between atoms: C_11  and  C_12 
REMARK       I    between atoms: C_12  and  N_14 
REMARK    6  A    between atoms: N_14  and  N_15 
REMARK    7  A    between atoms: N_15  and  C_16 
REMARK    8  A    between atoms: C_16  and  N_18 
REMARK       I    between atoms: N_18  and  C_19 
REMARK    9  A    between atoms: C_19  and  C_21 
REMARK   10  A    between atoms: C_25  and  O_26 
REMARK   11  A    between atoms: O_26  and  C_27 
ROOT
ATOM      1  C   UNL d   1      27.927 -16.708  -0.166  0.00  0.00     0.270 C 
ATOM      2  O   UNL d   1      28.629 -17.207  -1.050  0.00  0.00    -0.266 OA
ATOM      3  N   UNL d   1      28.460 -15.863   0.801  0.00  0.00    -0.264 N 
ATOM      4  H   UNL d   1      27.897 -15.423   1.527  0.00  0.00     0.190 HD
ENDROOT
BRANCH   3   5
ATOM      5  N   UNL d   1      29.863 -15.482   0.844  0.00  0.00    -0.273 N 
ATOM      6  H   UNL d   1      30.398 -15.903   1.601  0.00  0.00     0.189 HD
BRANCH   5   7
ATOM      7  C   UNL d   1      30.337 -14.575  -0.126  0.00  0.00     0.193 C 
ATOM      8  S   UNL d   1      31.808 -13.781   0.133  0.00  0.00    -0.039 SA
BRANCH   7   9
ATOM      9  N   UNL d   1      29.513 -14.401  -1.263  0.00  0.00    -0.298 N 
ATOM     10  C   UNL d   1      28.239 -13.781  -1.285  0.00  0.00     0.258 C 
ATOM     11  O   UNL d   1      27.674 -13.296  -0.302  0.00  0.00    -0.267 OA
ATOM     12  H   UNL d   1      29.880 -14.714  -2.151  0.00  0.00     0.171 HD
BRANCH  10  13
ATOM     13  C   UNL d   1      27.429 -13.706  -2.538  0.00  0.00     0.035 A 
ATOM     14  C   UNL d   1      26.095 -13.254  -2.464  0.00  0.00     0.017 A 
ATOM     15  C   UNL d   1      25.200 -13.475  -3.517  0.00  0.00     0.004 A 
ATOM     16  C   UNL d   1      25.646 -14.098  -4.680  0.00  0.00     0.037 A 
ATOM     17  C   UNL d   1      26.972 -14.536  -4.772  0.00  0.00     0.069 A 
ATOM     18  C   UNL d   1      27.860 -14.336  -3.701  0.00  0.00     0.053 A 
BRANCH  17  19
ATOM     19  O   UNL d   1      27.295 -15.199  -5.930  0.00  0.00    -0.351 OA
BRANCH  19  20
ATOM     20  C   UNL d   1      28.661 -15.089  -6.330  0.00  0.00     0.171 C 
ATOM     21  C   UNL d   1      28.894 -13.740  -6.969  0.00  0.00     0.034 C 
ENDBRANCH  19  20
ENDBRANCH  17  19
ENDBRANCH  10  13
ENDBRANCH   7   9
ENDBRANCH   5   7
ENDBRANCH   3   5
BRANCH   1  22
ATOM     22  C   UNL d   1      26.429 -16.991  -0.124  0.00  0.00     0.033 A 
ATOM     23  C   UNL d   1      25.951 -18.250   0.300  0.00  0.00     0.019 A 
ATOM     24  C   UNL d   1      24.569 -18.575   0.276  0.00  0.00     0.030 A 
ATOM     25  C   UNL d   1      23.630 -17.628  -0.137  0.00  0.00     0.034 A 
ATOM     26  C   UNL d   1      24.102 -16.379  -0.549  0.00  0.00     0.030 A 
ATOM     27  C   UNL d   1      25.471 -16.056  -0.531  0.00  0.00     0.019 A 
BRANCH  25  28
ATOM     28  N   UNL d   1      22.231 -17.882  -0.066  0.00  0.00    -0.327 N 
ATOM     29  C   UNL d   1      21.557 -18.640  -1.015  0.00  0.00     0.222 C 
ATOM     30  O   UNL d   1      22.126 -19.285  -1.896  0.00  0.00    -0.273 OA
ATOM     31  H   UNL d   1      21.728 -17.532   0.741  0.00  0.00     0.169 HD
BRANCH  29  32
ATOM     32  C   UNL d   1      20.036 -18.669  -0.895  0.00  0.00     0.103 C 
BRANCH  32  33
ATOM     33  C   UNL d   1      19.588 -20.075  -0.458  0.00  0.00     0.009 C 
BRANCH  33  34
ATOM     34  C   UNL d   1      18.769 -20.080   0.826  0.00  0.00    -0.004 C 
ATOM     35  C   UNL d   1      18.080 -21.424   1.022  0.00  0.00     0.005 C 
ENDBRANCH  33  34
ENDBRANCH  32  33
ENDBRANCH  29  32
ENDBRANCH  25  28
ENDBRANCH   1  22
TORSDOF 11
ENDMDL
MODEL 4
REMARK VINA RESULT:    -9.200      3.195      5.290
REMARK INTER + INTRA:         -14.059
REMARK INTER:                 -12.481
REMARK INTRA:                  -1.578
REMARK CONF_INDEPENDENT:        3.281
REMARK UNBOUND:                -1.578
REMARK  11 active torsions:
REMARK  status: ('A' for Active; 'I' for Inactive)
REMARK    1  A    between atoms: C_2  and  C_3 
REMARK    2  A    between atoms: C_3  and  C_4 
REMARK    3  A    between atoms: C_4  and  C_5 
REMARK       I    between atoms: C_5  and  N_7 
REMARK    4  A    between atoms: N_7  and  C_8 
REMARK    5  A    between atoms: C_11  and  C_12 
REMARK       I    between atoms: C_12  and  N_14 
REMARK    6  A    between atoms: N_14  and  N_15 
REMARK    7  A    between atoms: N_15  and  C_16 
REMARK    8  A    between atoms: C_16  and  N_18 
REMARK       I    between atoms: N_18  and  C_19 
REMARK    9  A    between atoms: C_19  and  C_21 
REMARK   10  A    between atoms: C_25  and  O_26 
REMARK   11  A    between atoms: O_26  and  C_27 
ROOT
ATOM      1  C   UNL d   1      27.954 -16.901  -1.155  0.00  0.00     0.270 C 
ATOM      2  O   UNL d   1      28.260 -16.001  -1.944  0.00  0.00    -0.266 OA
ATOM      3  N   UNL d   1      28.918 -17.633  -0.472  0.00  0.00    -0.264 N 
ATOM      4  H   UNL d   1      28.689 -18.364   0.199  0.00  0.00     0.190 HD
ENDROOT
BRANCH   3   5
ATOM      5  N   UNL d   1      30.347 -17.394  -0.606  0.00  0.00    -0.273 N 
ATOM      6  H   UNL d   1      30.848 -18.093  -1.151  0.00  0.00     0.189 HD
BRANCH   5   7
ATOM      7  C   UNL d   1      30.896 -16.262   0.031  0.00  0.00     0.193 C 
ATOM      8  S   UNL d   1      32.542 -15.922  -0.162  0.00  0.00    -0.039 SA
BRANCH   7   9
ATOM      9  N   UNL d   1      29.995 -15.489   0.800  0.00  0.00    -0.298 N 
ATOM     10  C   UNL d   1      29.322 -14.318   0.370  0.00  0.00     0.258 C 
ATOM     11  O   UNL d   1      29.428 -13.814  -0.750  0.00  0.00    -0.267 OA
ATOM     12  H   UNL d   1      29.780 -15.820   1.730  0.00  0.00     0.171 HD
BRANCH  10  13
ATOM     13  C   UNL d   1      28.435 -13.545   1.291  0.00  0.00     0.035 A 
ATOM     14  C   UNL d   1      28.234 -12.169   1.053  0.00  0.00     0.017 A 
ATOM     15  C   UNL d   1      27.701 -11.337   2.044  0.00  0.00     0.004 A 
ATOM     16  C   UNL d   1      27.309 -11.883   3.264  0.00  0.00     0.037 A 
ATOM     17  C   UNL d   1      27.488 -13.250   3.505  0.00  0.00     0.069 A 
ATOM     18  C   UNL d   1      28.048 -14.077   2.517  0.00  0.00     0.053 A 
BRANCH  17  19
ATOM     19  O   UNL d   1      27.134 -13.678   4.762  0.00  0.00    -0.351 OA
BRANCH  19  20
ATOM     20  C   UNL d   1      28.144 -13.526   5.759  0.00  0.00     0.171 C 
ATOM     21  C   UNL d   1      28.900 -14.825   5.916  0.00  0.00     0.034 C 
ENDBRANCH  19  20
ENDBRANCH  17  19
ENDBRANCH  10  13
ENDBRANCH   7   9
ENDBRANCH   5   7
ENDBRANCH   3   5
BRANCH   1  22
ATOM     22  C   UNL d   1      26.487 -17.222  -0.889  0.00  0.00     0.033 A 
ATOM     23  C   UNL d   1      25.469 -16.412  -1.436  0.00  0.00     0.019 A 
ATOM     24  C   UNL d   1      24.097 -16.633  -1.145  0.00  0.00     0.030 A 
ATOM     25  C   UNL d   1      23.713 -17.699  -0.328  0.00  0.00     0.034 A 
ATOM     26  C   UNL d   1      24.721 -18.505   0.207  0.00  0.00     0.030 A 
ATOM     27  C   UNL d   1      26.081 -18.285  -0.076  0.00  0.00     0.019 A 
BRANCH  25  28
ATOM     28  N   UNL d   1      22.343 -18.017  -0.108  0.00  0.00    -0.327 N 
ATOM     29  C   UNL d   1      21.589 -18.753  -1.013  0.00  0.00     0.222 C 
ATOM     30  O   UNL d   1      22.072 -19.325  -1.990  0.00  0.00    -0.273 OA
ATOM     31  H   UNL d   1      21.928 -17.732   0.771  0.00  0.00     0.169 HD
BRANCH  29  32
ATOM     32  C   UNL d   1      20.095 -18.855  -0.717  0.00  0.00     0.103 C 
BRANCH  32  33
ATOM     33  C   UNL d   1      19.786 -20.249  -0.143  0.00  0.00     0.009 C 
BRANCH  33  34
ATOM     34  C   UNL d   1      19.089 -20.208   1.211  0.00  0.00    -0.004 C 
ATOM     35  C   UNL d   1      18.030 -21.298   1.307  0.00  0.00     0.005 C 
ENDBRANCH  33  34
ENDBRANCH  32  33
ENDBRANCH  29  32
ENDBRANCH  25  28
ENDBRANCH   1  22
TORSDOF 11
ENDMDL
MODEL 5
REMARK VINA RESULT:    -9.139      5.582      7.968
REMARK INTER + INTRA:         -14.397
REMARK INTER:                 -12.420
REMARK INTRA:                  -1.977
REMARK CONF_INDEPENDENT:        3.281
REMARK UNBOUND:                -1.977
REMARK  11 active torsions:
REMARK  status: ('A' for Active; 'I' for Inactive)
REMARK    1  A    between atoms: C_2  and  C_3 
REMARK    2  A    between atoms: C_3  and  C_4 
REMARK    3  A    between atoms: C_4  and  C_5 
REMARK       I    between atoms: C_5  and  N_7 
REMARK    4  A    between atoms: N_7  and  C_8 
REMARK    5  A    between atoms: C_11  and  C_12 
REMARK       I    between atoms: C_12  and  N_14 
REMARK    6  A    between atoms: N_14  and  N_15 
REMARK    7  A    between atoms: N_15  and  C_16 
REMARK    8  A    between atoms: C_16  and  N_18 
REMARK       I    between atoms: N_18  and  C_19 
REMARK    9  A    between atoms: C_19  and  C_21 
REMARK   10  A    between atoms: C_25  and  O_26 
REMARK   11  A    between atoms: O_26  and  C_27 
ROOT
ATOM      1  C   UNL d   1      28.369 -15.104   0.056  0.00  0.00     0.270 C 
ATOM      2  O   UNL d   1      28.618 -14.294  -0.843  0.00  0.00    -0.266 OA
ATOM      3  N   UNL d   1      29.138 -15.170   1.213  0.00  0.00    -0.264 N 
ATOM      4  H   UNL d   1      28.939 -15.814   1.977  0.00  0.00     0.190 HD
ENDROOT
BRANCH   3   5
ATOM      5  N   UNL d   1      30.270 -14.294   1.472  0.00  0.00    -0.273 N 
ATOM      6  H   UNL d   1      30.390 -13.540   0.798  0.00  0.00     0.189 HD
BRANCH   5   7
ATOM      7  C   UNL d   1      31.086 -14.572   2.587  0.00  0.00     0.193 C 
ATOM      8  S   UNL d   1      32.560 -15.370   2.355  0.00  0.00    -0.039 SA
BRANCH   7   9
ATOM      9  N   UNL d   1      30.584 -14.148   3.840  0.00  0.00    -0.298 N 
ATOM     10  C   UNL d   1      29.249 -14.288   4.296  0.00  0.00     0.258 C 
ATOM     11  O   UNL d   1      28.336 -14.812   3.654  0.00  0.00    -0.267 OA
ATOM     12  H   UNL d   1      31.244 -13.741   4.488  0.00  0.00     0.171 HD
BRANCH  10  13
ATOM     13  C   UNL d   1      28.815 -13.748   5.619  0.00  0.00     0.035 A 
ATOM     14  C   UNL d   1      28.299 -12.437   5.687  0.00  0.00     0.017 A 
ATOM     15  C   UNL d   1      28.192 -11.767   6.912  0.00  0.00     0.004 A 
ATOM     16  C   UNL d   1      28.547 -12.424   8.089  0.00  0.00     0.037 A 
ATOM     17  C   UNL d   1      29.045 -13.730   8.035  0.00  0.00     0.069 A 
ATOM     18  C   UNL d   1      29.175 -14.389   6.800  0.00  0.00     0.053 A 
BRANCH  17  19
ATOM     19  O   UNL d   1      29.430 -14.264   9.241  0.00  0.00    -0.351 OA
BRANCH  19  20
ATOM     20  C   UNL d   1      28.372 -14.471  10.176  0.00  0.00     0.171 C 
ATOM     21  C   UNL d   1      28.440 -13.419  11.258  0.00  0.00     0.034 C 
ENDBRANCH  19  20
ENDBRANCH  17  19
ENDBRANCH  10  13
ENDBRANCH   7   9
ENDBRANCH   5   7
ENDBRANCH   3   5
BRANCH   1  22
ATOM     22  C   UNL d   1      27.180 -16.050  -0.070  0.00  0.00     0.033 A 
ATOM     23  C   UNL d   1      27.182 -17.292   0.601  0.00  0.00     0.019 A 
ATOM     24  C   UNL d   1      26.129 -18.232   0.443  0.00  0.00     0.030 A 
ATOM     25  C   UNL d   1      25.029 -17.928  -0.361  0.00  0.00     0.034 A 
ATOM     26  C   UNL d   1      25.023 -16.694  -1.018  0.00  0.00     0.030 A 
ATOM     27  C   UNL d   1      26.067 -15.764  -0.868  0.00  0.00     0.019 A 
BRANCH  25  28
ATOM     28  N   UNL d   1      23.905 -18.797  -0.451  0.00  0.00    -0.327 N 
ATOM     29  C   UNL d   1      22.609 -18.378  -0.180  0.00  0.00     0.222 C 
ATOM     30  O   UNL d   1      22.301 -17.200  -0.000  0.00  0.00    -0.273 OA
ATOM     31  H   UNL d   1      24.065 -19.743  -0.776  0.00  0.00     0.169 HD
BRANCH  29  32
ATOM     32  C   UNL d   1      21.543 -19.469  -0.148  0.00  0.00     0.103 C 
BRANCH  32  33
ATOM     33  C   UNL d   1      20.288 -18.976  -0.890  0.00  0.00     0.009 C 
BRANCH  33  34
ATOM     34  C   UNL d   1      19.015 -19.706  -0.483  0.00  0.00    -0.004 C 
ATOM     35  C   UNL d   1      19.322 -20.808   0.523  0.00  0.00     0.005 C 
ENDBRANCH  33  34
ENDBRANCH  32  33
ENDBRANCH  29  32
ENDBRANCH  25  28
ENDBRANCH   1  22
TORSDOF 11
ENDMDL
MODEL 6
REMARK VINA RESULT:    -8.876      4.356      6.591
REMARK INTER + INTRA:         -14.147
REMARK INTER:                 -12.157
REMARK INTRA:                  -1.990
REMARK CONF_INDEPENDENT:        3.281
REMARK UNBOUND:                -1.990
REMARK  11 active torsions:
REMARK  status: ('A' for Active; 'I' for Inactive)
REMARK    1  A    between atoms: C_2  and  C_3 
REMARK    2  A    between atoms: C_3  and  C_4 
REMARK    3  A    between atoms: C_4  and  C_5 
REMARK       I    between atoms: C_5  and  N_7 
REMARK    4  A    between atoms: N_7  and  C_8 
REMARK    5  A    between atoms: C_11  and  C_12 
REMARK       I    between atoms: C_12  and  N_14 
REMARK    6  A    between atoms: N_14  and  N_15 
REMARK    7  A    between atoms: N_15  and  C_16 
REMARK    8  A    between atoms: C_16  and  N_18 
REMARK       I    between atoms: N_18  and  C_19 
REMARK    9  A    between atoms: C_19  and  C_21 
REMARK   10  A    between atoms: C_25  and  O_26 
REMARK   11  A    between atoms: O_26  and  C_27 
ROOT
ATOM      1  C   UNL d   1      26.658 -16.062  -1.323  0.00  0.00     0.270 C 
ATOM      2  O   UNL d   1      27.707 -16.604  -1.685  0.00  0.00    -0.266 OA
ATOM      3  N   UNL d   1      26.552 -14.681  -1.205  0.00  0.00    -0.264 N 
ATOM      4  H   UNL d   1      25.691 -14.211  -0.929  0.00  0.00     0.190 HD
ENDROOT
BRANCH   3   5
ATOM      5  N   UNL d   1      27.641 -13.767  -1.510  0.00  0.00    -0.273 N 
ATOM      6  H   UNL d   1      28.431 -14.189  -1.994  0.00  0.00     0.189 HD
BRANCH   5   7
ATOM      7  C   UNL d   1      27.517 -12.423  -1.102  0.00  0.00     0.193 C 
ATOM      8  S   UNL d   1      27.227 -11.228  -2.264  0.00  0.00    -0.039 SA
BRANCH   7   9
ATOM      9  N   UNL d   1      27.652 -12.185   0.286  0.00  0.00    -0.298 N 
ATOM     10  C   UNL d   1      26.871 -12.770   1.314  0.00  0.00     0.258 C 
ATOM     11  O   UNL d   1      25.961 -13.582   1.133  0.00  0.00    -0.267 OA
ATOM     12  H   UNL d   1      28.398 -11.570   0.579  0.00  0.00     0.171 HD
BRANCH  10  13
ATOM     13  C   UNL d   1      27.062 -12.399   2.748  0.00  0.00     0.035 A 
ATOM     14  C   UNL d   1      27.261 -11.043   3.083  0.00  0.00     0.017 A 
ATOM     15  C   UNL d   1      27.770 -10.678   4.335  0.00  0.00     0.004 A 
ATOM     16  C   UNL d   1      28.030 -11.662   5.287  0.00  0.00     0.037 A 
ATOM     17  C   UNL d   1      27.820 -13.009   4.971  0.00  0.00     0.069 A 
ATOM     18  C   UNL d   1      27.335 -13.373   3.704  0.00  0.00     0.053 A 
BRANCH  17  19
ATOM     19  O   UNL d   1      28.172 -13.905   5.951  0.00  0.00    -0.351 OA
BRANCH  19  20
ATOM     20  C   UNL d   1      28.576 -15.190   5.479  0.00  0.00     0.171 C 
ATOM     21  C   UNL d   1      30.026 -15.141   5.056  0.00  0.00     0.034 C 
ENDBRANCH  19  20
ENDBRANCH  17  19
ENDBRANCH  10  13
ENDBRANCH   7   9
ENDBRANCH   5   7
ENDBRANCH   3   5
BRANCH   1  22
ATOM     22  C   UNL d   1      25.425 -16.906  -1.016  0.00  0.00     0.033 A 
ATOM     23  C   UNL d   1      24.131 -16.382  -1.227  0.00  0.00     0.019 A 
ATOM     24  C   UNL d   1      22.962 -17.107  -0.878  0.00  0.00     0.030 A 
ATOM     25  C   UNL d   1      23.064 -18.394  -0.345  0.00  0.00     0.034 A 
ATOM     26  C   UNL d   1      24.344 -18.915  -0.144  0.00  0.00     0.030 A 
ATOM     27  C   UNL d   1      25.505 -18.197  -0.484  0.00  0.00     0.019 A 
BRANCH  25  28
ATOM     28  N   UNL d   1      21.913 -19.191  -0.090  0.00  0.00    -0.327 N 
ATOM     29  C   UNL d   1      20.639 -18.828  -0.511  0.00  0.00     0.222 C 
ATOM     30  O   UNL d   1      20.421 -17.883  -1.269  0.00  0.00    -0.273 OA
ATOM     31  H   UNL d   1      22.048 -20.082   0.373  0.00  0.00     0.169 HD
BRANCH  29  32
ATOM     32  C   UNL d   1      19.491 -19.697  -0.006  0.00  0.00     0.103 C 
BRANCH  32  33
ATOM     33  C   UNL d   1      19.726 -20.037   1.476  0.00  0.00     0.009 C 
BRANCH  33  34
ATOM     34  C   UNL d   1      18.744 -21.062   2.027  0.00  0.00    -0.004 C 
ATOM     35  C   UNL d   1      17.823 -21.574   0.927  0.00  0.00     0.005 C 
ENDBRANCH  33  34
ENDBRANCH  32  33
ENDBRANCH  29  32
ENDBRANCH  25  28
ENDBRANCH   1  22
TORSDOF 11
ENDMDL
MODEL 7
REMARK VINA RESULT:    -8.783      2.590      3.979
REMARK INTER + INTRA:         -14.142
REMARK INTER:                 -12.064
REMARK INTRA:                  -2.078
REMARK CONF_INDEPENDENT:        3.281
REMARK UNBOUND:                -2.078
REMARK  11 active torsions:
REMARK  status: ('A' for Active; 'I' for Inactive)
REMARK    1  A    between atoms: C_2  and  C_3 
REMARK    2  A    between atoms: C_3  and  C_4 
REMARK    3  A    between atoms: C_4  and  C_5 
REMARK       I    between atoms: C_5  and  N_7 
REMARK    4  A    between atoms: N_7  and  C_8 
REMARK    5  A    between atoms: C_11  and  C_12 
REMARK       I    between atoms: C_12  and  N_14 
REMARK    6  A    between atoms: N_14  and  N_15 
REMARK    7  A    between atoms: N_15  and  C_16 
REMARK    8  A    between atoms: C_16  and  N_18 
REMARK       I    between atoms: N_18  and  C_19 
REMARK    9  A    between atoms: C_19  and  C_21 
REMARK   10  A    between atoms: C_25  and  O_26 
REMARK   11  A    between atoms: O_26  and  C_27 
ROOT
ATOM      1  C   UNL d   1      26.164 -15.091  -1.867  0.00  0.00     0.270 C 
ATOM      2  O   UNL d   1      27.375 -15.201  -1.647  0.00  0.00    -0.266 OA
ATOM      3  N   UNL d   1      25.641 -13.990  -2.535  0.00  0.00    -0.264 N 
ATOM      4  H   UNL d   1      24.650 -13.887  -2.746  0.00  0.00     0.190 HD
ENDROOT
BRANCH   3   5
ATOM      5  N   UNL d   1      26.459 -12.899  -3.042  0.00  0.00    -0.273 N 
ATOM      6  H   UNL d   1      26.357 -12.019  -2.541  0.00  0.00     0.189 HD
BRANCH   5   7
ATOM      7  C   UNL d   1      27.279 -13.147  -4.162  0.00  0.00     0.193 C 
ATOM      8  S   UNL d   1      27.068 -12.223  -5.563  0.00  0.00    -0.039 SA
BRANCH   7   9
ATOM      9  N   UNL d   1      28.234 -14.181  -4.011  0.00  0.00    -0.298 N 
ATOM     10  C   UNL d   1      28.610 -15.122  -5.002  0.00  0.00     0.258 C 
ATOM     11  O   UNL d   1      28.154 -15.161  -6.146  0.00  0.00    -0.267 OA
ATOM     12  H   UNL d   1      28.722 -14.233  -3.128  0.00  0.00     0.171 HD
BRANCH  10  13
ATOM     13  C   UNL d   1      29.590 -16.212  -4.712  0.00  0.00     0.035 A 
ATOM     14  C   UNL d   1      30.029 -17.036  -5.768  0.00  0.00     0.017 A 
ATOM     15  C   UNL d   1      30.667 -18.255  -5.513  0.00  0.00     0.004 A 
ATOM     16  C   UNL d   1      30.926 -18.635  -4.198  0.00  0.00     0.037 A 
ATOM     17  C   UNL d   1      30.510 -17.817  -3.141  0.00  0.00     0.069 A 
ATOM     18  C   UNL d   1      29.845 -16.607  -3.402  0.00  0.00     0.053 A 
BRANCH  17  19
ATOM     19  O   UNL d   1      30.750 -18.312  -1.883  0.00  0.00    -0.351 OA
BRANCH  19  20
ATOM     20  C   UNL d   1      29.840 -17.870  -0.876  0.00  0.00     0.171 C 
ATOM     21  C   UNL d   1      30.423 -16.677  -0.155  0.00  0.00     0.034 C 
ENDBRANCH  19  20
ENDBRANCH  17  19
ENDBRANCH  10  13
ENDBRANCH   7   9
ENDBRANCH   5   7
ENDBRANCH   3   5
BRANCH   1  22
ATOM     22  C   UNL d   1      25.200 -16.188  -1.427  0.00  0.00     0.033 A 
ATOM     23  C   UNL d   1      23.808 -15.952  -1.414  0.00  0.00     0.019 A 
ATOM     24  C   UNL d   1      22.888 -16.921  -0.936  0.00  0.00     0.030 A 
ATOM     25  C   UNL d   1      23.341 -18.166  -0.496  0.00  0.00     0.034 A 
ATOM     26  C   UNL d   1      24.718 -18.402  -0.516  0.00  0.00     0.030 A 
ATOM     27  C   UNL d   1      25.633 -17.442  -0.984  0.00  0.00     0.019 A 
BRANCH  25  28
ATOM     28  N   UNL d   1      22.439 -19.200  -0.117  0.00  0.00    -0.327 N 
ATOM     29  C   UNL d   1      21.080 -19.152  -0.404  0.00  0.00     0.222 C 
ATOM     30  O   UNL d   1      20.572 -18.305  -1.139  0.00  0.00    -0.273 OA
ATOM     31  H   UNL d   1      22.823 -20.021   0.334  0.00  0.00     0.169 HD
BRANCH  29  32
ATOM     32  C   UNL d   1      20.221 -20.246   0.224  0.00  0.00     0.103 C 
BRANCH  32  33
ATOM     33  C   UNL d   1      19.828 -19.827   1.651  0.00  0.00     0.009 C 
BRANCH  33  34
ATOM     34  C   UNL d   1      18.490 -20.395   2.104  0.00  0.00    -0.004 C 
ATOM     35  C   UNL d   1      18.024 -21.498   1.163  0.00  0.00     0.005 C 
ENDBRANCH  33  34
ENDBRANCH  32  33
ENDBRANCH  29  32
ENDBRANCH  25  28
ENDBRANCH   1  22
TORSDOF 11
ENDMDL
MODEL 8
REMARK VINA RESULT:    -8.769      3.310      4.600
REMARK INTER + INTRA:         -14.163
REMARK INTER:                 -12.051
REMARK INTRA:                  -2.112
REMARK CONF_INDEPENDENT:        3.281
REMARK UNBOUND:                -2.112
REMARK  11 active torsions:
REMARK  status: ('A' for Active; 'I' for Inactive)
REMARK    1  A    between atoms: C_2  and  C_3 
REMARK    2  A    between atoms: C_3  and  C_4 
REMARK    3  A    between atoms: C_4  and  C_5 
REMARK       I    between atoms: C_5  and  N_7 
REMARK    4  A    between atoms: N_7  and  C_8 
REMARK    5  A    between atoms: C_11  and  C_12 
REMARK       I    between atoms: C_12  and  N_14 
REMARK    6  A    between atoms: N_14  and  N_15 
REMARK    7  A    between atoms: N_15  and  C_16 
REMARK    8  A    between atoms: C_16  and  N_18 
REMARK       I    between atoms: N_18  and  C_19 
REMARK    9  A    between atoms: C_19  and  C_21 
REMARK   10  A    between atoms: C_25  and  O_26 
REMARK   11  A    between atoms: O_26  and  C_27 
ROOT
ATOM      1  C   UNL d   1      27.034 -16.361  -1.673  0.00  0.00     0.270 C 
ATOM      2  O   UNL d   1      28.058 -16.681  -1.060  0.00  0.00    -0.266 OA
ATOM      3  N   UNL d   1      27.085 -15.588  -2.828  0.00  0.00    -0.264 N 
ATOM      4  H   UNL d   1      26.257 -15.331  -3.361  0.00  0.00     0.190 HD
ENDROOT
BRANCH   3   5
ATOM      5  N   UNL d   1      28.327 -15.114  -3.418  0.00  0.00    -0.273 N 
ATOM      6  H   UNL d   1      29.165 -15.329  -2.881  0.00  0.00     0.189 HD
BRANCH   5   7
ATOM      7  C   UNL d   1      28.258 -14.402  -4.633  0.00  0.00     0.193 C 
ATOM      8  S   UNL d   1      28.619 -15.200  -6.081  0.00  0.00    -0.039 SA
BRANCH   7   9
ATOM      9  N   UNL d   1      27.884 -13.042  -4.531  0.00  0.00    -0.298 N 
ATOM     10  C   UNL d   1      26.629 -12.551  -4.089  0.00  0.00     0.258 C 
ATOM     11  O   UNL d   1      25.686 -13.256  -3.723  0.00  0.00    -0.267 OA
ATOM     12  H   UNL d   1      28.586 -12.351  -4.757  0.00  0.00     0.171 HD
BRANCH  10  13
ATOM     13  C   UNL d   1      26.322 -11.089  -4.079  0.00  0.00     0.035 A 
ATOM     14  C   UNL d   1      26.295 -10.405  -2.846  0.00  0.00     0.017 A 
ATOM     15  C   UNL d   1      25.698  -9.144  -2.736  0.00  0.00     0.004 A 
ATOM     16  C   UNL d   1      25.174  -8.528  -3.871  0.00  0.00     0.037 A 
ATOM     17  C   UNL d   1      25.211  -9.191  -5.103  0.00  0.00     0.069 A 
ATOM     18  C   UNL d   1      25.788 -10.468  -5.203  0.00  0.00     0.053 A 
BRANCH  17  19
ATOM     19  O   UNL d   1      24.608  -8.530  -6.145  0.00  0.00    -0.351 OA
BRANCH  19  20
ATOM     20  C   UNL d   1      23.280  -8.076  -5.885  0.00  0.00     0.171 C 
ATOM     21  C   UNL d   1      23.281  -6.573  -5.729  0.00  0.00     0.034 C 
ENDBRANCH  19  20
ENDBRANCH  17  19
ENDBRANCH  10  13
ENDBRANCH   7   9
ENDBRANCH   5   7
ENDBRANCH   3   5
BRANCH   1  22
ATOM     22  C   UNL d   1      25.668 -16.832  -1.185  0.00  0.00     0.033 A 
ATOM     23  C   UNL d   1      25.535 -18.074  -0.526  0.00  0.00     0.019 A 
ATOM     24  C   UNL d   1      24.270 -18.580  -0.130  0.00  0.00     0.030 A 
ATOM     25  C   UNL d   1      23.111 -17.833  -0.349  0.00  0.00     0.034 A 
ATOM     26  C   UNL d   1      23.245 -16.600  -0.994  0.00  0.00     0.030 A 
ATOM     27  C   UNL d   1      24.496 -16.098  -1.393  0.00  0.00     0.019 A 
BRANCH  25  28
ATOM     28  N   UNL d   1      21.843 -18.258   0.137  0.00  0.00    -0.327 N 
ATOM     29  C   UNL d   1      20.915 -18.916  -0.663  0.00  0.00     0.222 C 
ATOM     30  O   UNL d   1      21.167 -19.325  -1.796  0.00  0.00    -0.273 OA
ATOM     31  H   UNL d   1      21.641 -18.116   1.119  0.00  0.00     0.169 HD
BRANCH  29  32
ATOM     32  C   UNL d   1      19.539 -19.145  -0.045  0.00  0.00     0.103 C 
BRANCH  32  33
ATOM     33  C   UNL d   1      19.707 -19.583   1.420  0.00  0.00     0.009 C 
BRANCH  33  34
ATOM     34  C   UNL d   1      18.861 -20.793   1.794  0.00  0.00    -0.004 C 
ATOM     35  C   UNL d   1      18.031 -21.259   0.605  0.00  0.00     0.005 C 
ENDBRANCH  33  34
ENDBRANCH  32  33
ENDBRANCH  29  32
ENDBRANCH  25  28
ENDBRANCH   1  22
TORSDOF 11
ENDMDL
MODEL 9
REMARK VINA RESULT:    -8.750      4.341      6.579
REMARK INTER + INTRA:         -13.977
REMARK INTER:                 -12.031
REMARK INTRA:                  -1.946
REMARK CONF_INDEPENDENT:        3.281
REMARK UNBOUND:                -1.946
REMARK  11 active torsions:
REMARK  status: ('A' for Active; 'I' for Inactive)
REMARK    1  A    between atoms: C_2  and  C_3 
REMARK    2  A    between atoms: C_3  and  C_4 
REMARK    3  A    between atoms: C_4  and  C_5 
REMARK       I    between atoms: C_5  and  N_7 
REMARK    4  A    between atoms: N_7  and  C_8 
REMARK    5  A    between atoms: C_11  and  C_12 
REMARK       I    between atoms: C_12  and  N_14 
REMARK    6  A    between atoms: N_14  and  N_15 
REMARK    7  A    between atoms: N_15  and  C_16 
REMARK    8  A    between atoms: C_16  and  N_18 
REMARK       I    between atoms: N_18  and  C_19 
REMARK    9  A    between atoms: C_19  and  C_21 
REMARK   10  A    between atoms: C_25  and  O_26 
REMARK   11  A    between atoms: O_26  and  C_27 
ROOT
ATOM      1  C   UNL d   1      27.725 -16.700  -0.978  0.00  0.00     0.270 C 
ATOM      2  O   UNL d   1      28.116 -16.500  -2.133  0.00  0.00    -0.266 OA
ATOM      3  N   UNL d   1      28.574 -16.565   0.114  0.00  0.00    -0.264 N 
ATOM      4  H   UNL d   1      28.269 -16.704   1.076  0.00  0.00     0.190 HD
ENDROOT
BRANCH   3   5
ATOM      5  N   UNL d   1      29.968 -16.165  -0.001  0.00  0.00    -0.273 N 
ATOM      6  H   UNL d   1      30.607 -16.911  -0.267  0.00  0.00     0.189 HD
BRANCH   5   7
ATOM      7  C   UNL d   1      30.301 -14.824   0.279  0.00  0.00     0.193 C 
ATOM      8  S   UNL d   1      30.819 -13.820  -0.980  0.00  0.00    -0.039 SA
BRANCH   7   9
ATOM      9  N   UNL d   1      30.171 -14.424   1.630  0.00  0.00    -0.298 N 
ATOM     10  C   UNL d   1      28.976 -14.435   2.393  0.00  0.00     0.258 C 
ATOM     11  O   UNL d   1      27.877 -14.807   1.976  0.00  0.00    -0.267 OA
ATOM     12  H   UNL d   1      31.012 -14.140   2.111  0.00  0.00     0.171 HD
BRANCH  10  13
ATOM     13  C   UNL d   1      28.943 -13.933   3.800  0.00  0.00     0.035 A 
ATOM     14  C   UNL d   1      29.106 -14.851   4.858  0.00  0.00     0.017 A 
ATOM     15  C   UNL d   1      28.757 -14.507   6.169  0.00  0.00     0.004 A 
ATOM     16  C   UNL d   1      28.296 -13.222   6.445  0.00  0.00     0.037 A 
ATOM     17  C   UNL d   1      28.147 -12.297   5.405  0.00  0.00     0.069 A 
ATOM     18  C   UNL d   1      28.473 -12.655   4.086  0.00  0.00     0.053 A 
BRANCH  17  19
ATOM     19  O   UNL d   1      27.621 -11.082   5.769  0.00  0.00    -0.351 OA
BRANCH  19  20
ATOM     20  C   UNL d   1      28.537  -9.988   5.721  0.00  0.00     0.171 C 
ATOM     21  C   UNL d   1      29.762 -10.318   6.541  0.00  0.00     0.034 C 
ENDBRANCH  19  20
ENDBRANCH  17  19
ENDBRANCH  10  13
ENDBRANCH   7   9
ENDBRANCH   5   7
ENDBRANCH   3   5
BRANCH   1  22
ATOM     22  C   UNL d   1      26.272 -17.081  -0.715  0.00  0.00     0.033 A 
ATOM     23  C   UNL d   1      25.224 -16.243  -1.152  0.00  0.00     0.019 A 
ATOM     24  C   UNL d   1      23.864 -16.526  -0.855  0.00  0.00     0.030 A 
ATOM     25  C   UNL d   1      23.523 -17.680  -0.148  0.00  0.00     0.034 A 
ATOM     26  C   UNL d   1      24.561 -18.514   0.277  0.00  0.00     0.030 A 
ATOM     27  C   UNL d   1      25.909 -18.233  -0.010  0.00  0.00     0.019 A 
BRANCH  25  28
ATOM     28  N   UNL d   1      22.166 -18.051   0.068  0.00  0.00    -0.327 N 
ATOM     29  C   UNL d   1      21.436 -18.793  -0.853  0.00  0.00     0.222 C 
ATOM     30  O   UNL d   1      21.936 -19.324  -1.844  0.00  0.00    -0.273 OA
ATOM     31  H   UNL d   1      21.743 -17.802   0.954  0.00  0.00     0.169 HD
BRANCH  29  32
ATOM     32  C   UNL d   1      19.948 -18.955  -0.556  0.00  0.00     0.103 C 
BRANCH  32  33
ATOM     33  C   UNL d   1      19.668 -20.411  -0.141  0.00  0.00     0.009 C 
BRANCH  33  34
ATOM     34  C   UNL d   1      18.725 -20.533   1.048  0.00  0.00    -0.004 C 
ATOM     35  C   UNL d   1      19.457 -20.235   2.351  0.00  0.00     0.005 C 
ENDBRANCH  33  34
ENDBRANCH  32  33
ENDBRANCH  29  32
ENDBRANCH  25  28
ENDBRANCH   1  22
TORSDOF 11
ENDMDL
