MODEL 1
REMARK VINA RESULT:    -8.904      0.000      0.000
REMARK INTER + INTRA:         -11.877
REMARK INTER:                 -10.097
REMARK INTRA:                  -1.779
REMARK CONF_INDEPENDENT:        1.193
REMARK UNBOUND:                -1.779
REMARK  4 active torsions:
REMARK  status: ('A' for Active; 'I' for Inactive)
REMARK    1  A    between atoms: C_6  and  C_7 
REMARK       I    between atoms: C_7  and  N_9 
REMARK    2  A    between atoms: N_9  and  N_10 
REMARK       I    between atoms: N_10  and  C_11 
REMARK    3  A    between atoms: C_11  and  C_13 
REMARK    4  A    between atoms: C_18  and  O_19 
ROOT
ATOM      1  C   UNL d   1      24.232 -17.922  -0.152  0.00  0.00     0.270 C 
ATOM      2  O   UNL d   1      24.450 -18.551   0.884  0.00  0.00    -0.266 OA
ATOM      3  N   UNL d   1      22.986 -18.058  -0.749  0.00  0.00    -0.263 N 
ATOM      4  H   UNL d   1      22.660 -17.597  -1.590  0.00  0.00     0.190 HD
ENDROOT
BRANCH   3   5
ATOM      5  N   UNL d   1      22.055 -18.918  -0.129  0.00  0.00    -0.263 N 
ATOM      6  C   UNL d   1      20.712 -18.804  -0.425  0.00  0.00     0.272 C 
ATOM      7  O   UNL d   1      20.278 -18.020  -1.270  0.00  0.00    -0.266 OA
ATOM      8  H   UNL d   1      22.416 -19.532   0.603  0.00  0.00     0.190 HD
BRANCH   6   9
ATOM      9  C   UNL d   1      19.784 -19.717   0.303  0.00  0.00     0.066 A 
ATOM     10  C   UNL d   1      18.764 -20.356  -0.419  0.00  0.00     0.020 A 
ATOM     11  C   UNL d   1      17.855 -21.200   0.230  0.00  0.00     0.001 A 
ATOM     12  C   UNL d   1      17.938 -21.383   1.610  0.00  0.00     0.003 A 
ATOM     13  C   UNL d   1      18.939 -20.736   2.341  0.00  0.00     0.037 A 
ATOM     14  C   UNL d   1      19.865 -19.917   1.686  0.00  0.00     0.081 A 
BRANCH  14  15
ATOM     15  O   UNL d   1      20.847 -19.290   2.401  0.00  0.00    -0.360 OA
ATOM     16  H   UNL d   1      21.405 -19.946   2.848  0.00  0.00     0.217 HD
ENDBRANCH  14  15
ENDBRANCH   6   9
ENDBRANCH   3   5
BRANCH   1  17
ATOM     17  C   UNL d   1      25.269 -17.008  -0.798  0.00  0.00     0.040 A 
ATOM     18  C   UNL d   1      24.842 -15.938  -1.612  0.00  0.00     0.017 A 
ATOM     19  C   UNL d   1      25.750 -15.060  -2.217  0.00  0.00     0.002 A 
ATOM     20  C   UNL d   1      27.114 -15.238  -2.047  0.00  0.00     0.007 A 
ATOM     21  C   UNL d   1      27.592 -16.295  -1.265  0.00  0.00    -0.055 A 
ATOM     22  C   UNL d   1      29.088 -16.459  -1.133  0.00  0.00     0.049 C 
ATOM     23  C   UNL d   1      26.675 -17.184  -0.617  0.00  0.00    -0.040 A 
ATOM     24  C   UNL d   1      27.284 -18.269   0.240  0.00  0.00     0.050 C 
ENDBRANCH   1  17
TORSDOF 4
ENDMDL
MODEL 2
REMARK VINA RESULT:    -8.594      1.055      2.317
REMARK INTER + INTRA:         -11.721
REMARK INTER:                  -9.787
REMARK INTRA:                  -1.935
REMARK CONF_INDEPENDENT:        1.193
REMARK UNBOUND:                -1.935
REMARK  4 active torsions:
REMARK  status: ('A' for Active; 'I' for Inactive)
REMARK    1  A    between atoms: C_6  and  C_7 
REMARK       I    between atoms: C_7  and  N_9 
REMARK    2  A    between atoms: N_9  and  N_10 
REMARK       I    between atoms: N_10  and  C_11 
REMARK    3  A    between atoms: C_11  and  C_13 
REMARK    4  A    between atoms: C_18  and  O_19 
ROOT
ATOM      1  C   UNL d   1      24.702 -17.919  -0.096  0.00  0.00     0.270 C 
ATOM      2  O   UNL d   1      24.886 -18.574   0.931  0.00  0.00    -0.266 OA
ATOM      3  N   UNL d   1      23.443 -17.957  -0.679  0.00  0.00    -0.263 N 
ATOM      4  H   UNL d   1      23.142 -17.465  -1.512  0.00  0.00     0.190 HD
ENDROOT
BRANCH   3   5
ATOM      5  N   UNL d   1      22.458 -18.753  -0.055  0.00  0.00    -0.263 N 
ATOM      6  C   UNL d   1      21.129 -18.586  -0.388  0.00  0.00     0.272 C 
ATOM      7  O   UNL d   1      20.753 -17.811  -1.267  0.00  0.00    -0.266 OA
ATOM      8  H   UNL d   1      22.773 -19.359   0.704  0.00  0.00     0.190 HD
BRANCH   6   9
ATOM      9  C   UNL d   1      20.143 -19.431   0.346  0.00  0.00     0.066 A 
ATOM     10  C   UNL d   1      20.320 -19.629   1.724  0.00  0.00     0.020 A 
ATOM     11  C   UNL d   1      19.433 -20.437   2.446  0.00  0.00     0.001 A 
ATOM     12  C   UNL d   1      18.384 -21.080   1.788  0.00  0.00     0.003 A 
ATOM     13  C   UNL d   1      18.211 -20.904   0.412  0.00  0.00     0.037 A 
ATOM     14  C   UNL d   1      19.080 -20.072  -0.302  0.00  0.00     0.081 A 
BRANCH  14  15
ATOM     15  O   UNL d   1      18.906 -19.896  -1.646  0.00  0.00    -0.360 OA
ATOM     16  H   UNL d   1      19.100 -18.976  -1.890  0.00  0.00     0.217 HD
ENDBRANCH  14  15
ENDBRANCH   6   9
ENDBRANCH   3   5
BRANCH   1  17
ATOM     17  C   UNL d   1      25.797 -17.078  -0.746  0.00  0.00     0.040 A 
ATOM     18  C   UNL d   1      27.150 -17.373  -0.480  0.00  0.00     0.017 A 
ATOM     19  C   UNL d   1      28.195 -16.644  -1.061  0.00  0.00     0.002 A 
ATOM     20  C   UNL d   1      27.920 -15.580  -1.907  0.00  0.00     0.007 A 
ATOM     21  C   UNL d   1      26.594 -15.233  -2.190  0.00  0.00    -0.055 A 
ATOM     22  C   UNL d   1      26.349 -14.050  -3.098  0.00  0.00     0.049 C 
ATOM     23  C   UNL d   1      25.516 -15.988  -1.625  0.00  0.00    -0.040 A 
ATOM     24  C   UNL d   1      24.120 -15.564  -2.021  0.00  0.00     0.050 C 
ENDBRANCH   1  17
TORSDOF 4
ENDMDL
MODEL 3
REMARK VINA RESULT:    -6.728      5.460      9.587
REMARK INTER + INTRA:          -9.998
REMARK INTER:                  -7.921
REMARK INTRA:                  -2.077
REMARK CONF_INDEPENDENT:        1.193
REMARK UNBOUND:                -2.077
REMARK  4 active torsions:
REMARK  status: ('A' for Active; 'I' for Inactive)
REMARK    1  A    between atoms: C_6  and  C_7 
REMARK       I    between atoms: C_7  and  N_9 
REMARK    2  A    between atoms: N_9  and  N_10 
REMARK       I    between atoms: N_10  and  C_11 
REMARK    3  A    between atoms: C_11  and  C_13 
REMARK    4  A    between atoms: C_18  and  O_19 
ROOT
ATOM      1  C   UNL d   1      25.013 -14.370  -2.978  0.00  0.00     0.270 C 
ATOM      2  O   UNL d   1      24.423 -14.430  -4.058  0.00  0.00    -0.266 OA
ATOM      3  N   UNL d   1      25.555 -13.151  -2.596  0.00  0.00    -0.263 N 
ATOM      4  H   UNL d   1      26.053 -12.948  -1.737  0.00  0.00     0.190 HD
ENDROOT
BRANCH   3   5
ATOM      5  N   UNL d   1      25.397 -12.060  -3.478  0.00  0.00    -0.263 N 
ATOM      6  C   UNL d   1      25.955 -10.838  -3.164  0.00  0.00     0.272 C 
ATOM      7  O   UNL d   1      26.655 -10.658  -2.167  0.00  0.00    -0.266 OA
ATOM      8  H   UNL d   1      24.778 -12.205  -4.277  0.00  0.00     0.190 HD
BRANCH   6   9
ATOM      9  C   UNL d   1      25.707  -9.722  -4.123  0.00  0.00     0.066 A 
ATOM     10  C   UNL d   1      25.600  -8.415  -3.621  0.00  0.00     0.020 A 
ATOM     11  C   UNL d   1      25.341  -7.342  -4.483  0.00  0.00     0.001 A 
ATOM     12  C   UNL d   1      25.154  -7.573  -5.846  0.00  0.00     0.003 A 
ATOM     13  C   UNL d   1      25.241  -8.873  -6.352  0.00  0.00     0.037 A 
ATOM     14  C   UNL d   1      25.529  -9.941  -5.494  0.00  0.00     0.081 A 
BRANCH  14  15
ATOM     15  O   UNL d   1      25.620 -11.210  -5.991  0.00  0.00    -0.360 OA
ATOM     16  H   UNL d   1      24.780 -11.679  -5.864  0.00  0.00     0.217 HD
ENDBRANCH  14  15
ENDBRANCH   6   9
ENDBRANCH   3   5
BRANCH   1  17
ATOM     17  C   UNL d   1      25.171 -15.576  -2.055  0.00  0.00     0.040 A 
ATOM     18  C   UNL d   1      24.027 -16.291  -1.644  0.00  0.00     0.017 A 
ATOM     19  C   UNL d   1      24.115 -17.413  -0.812  0.00  0.00     0.002 A 
ATOM     20  C   UNL d   1      25.347 -17.841  -0.343  0.00  0.00     0.007 A 
ATOM     21  C   UNL d   1      26.512 -17.155  -0.704  0.00  0.00    -0.055 A 
ATOM     22  C   UNL d   1      27.827 -17.648  -0.145  0.00  0.00     0.049 C 
ATOM     23  C   UNL d   1      26.440 -16.023  -1.578  0.00  0.00    -0.040 A 
ATOM     24  C   UNL d   1      27.755 -15.374  -1.946  0.00  0.00     0.050 C 
ENDBRANCH   1  17
TORSDOF 4
ENDMDL
MODEL 4
REMARK VINA RESULT:    -6.618      1.290      8.172
REMARK INTER + INTRA:          -9.853
REMARK INTER:                  -7.811
REMARK INTRA:                  -2.042
REMARK CONF_INDEPENDENT:        1.193
REMARK UNBOUND:                -2.042
REMARK  4 active torsions:
REMARK  status: ('A' for Active; 'I' for Inactive)
REMARK    1  A    between atoms: C_6  and  C_7 
REMARK       I    between atoms: C_7  and  N_9 
REMARK    2  A    between atoms: N_9  and  N_10 
REMARK       I    between atoms: N_10  and  C_11 
REMARK    3  A    between atoms: C_11  and  C_13 
REMARK    4  A    between atoms: C_18  and  O_19 
ROOT
ATOM      1  C   UNL d   1      21.731 -18.346  -0.062  0.00  0.00     0.270 C 
ATOM      2  O   UNL d   1      21.485 -17.467  -0.889  0.00  0.00    -0.266 OA
ATOM      3  N   UNL d   1      23.059 -18.586   0.261  0.00  0.00    -0.263 N 
ATOM      4  H   UNL d   1      23.411 -19.264   0.927  0.00  0.00     0.190 HD
ENDROOT
BRANCH   3   5
ATOM      5  N   UNL d   1      24.041 -17.807  -0.388  0.00  0.00    -0.263 N 
ATOM      6  C   UNL d   1      25.346 -17.838   0.057  0.00  0.00     0.272 C 
ATOM      7  O   UNL d   1      25.725 -18.575   0.969  0.00  0.00    -0.266 OA
ATOM      8  H   UNL d   1      23.711 -17.166  -1.112  0.00  0.00     0.190 HD
BRANCH   6   9
ATOM      9  C   UNL d   1      26.318 -16.955  -0.650  0.00  0.00     0.066 A 
ATOM     10  C   UNL d   1      27.688 -17.114  -0.388  0.00  0.00     0.020 A 
ATOM     11  C   UNL d   1      28.631 -16.288  -1.010  0.00  0.00     0.001 A 
ATOM     12  C   UNL d   1      28.210 -15.275  -1.872  0.00  0.00     0.003 A 
ATOM     13  C   UNL d   1      26.847 -15.097  -2.126  0.00  0.00     0.037 A 
ATOM     14  C   UNL d   1      25.907 -15.943  -1.526  0.00  0.00     0.081 A 
BRANCH  14  15
ATOM     15  O   UNL d   1      24.575 -15.771  -1.780  0.00  0.00    -0.360 OA
ATOM     16  H   UNL d   1      24.413 -15.788  -2.736  0.00  0.00     0.217 HD
ENDBRANCH  14  15
ENDBRANCH   6   9
ENDBRANCH   3   5
BRANCH   1  17
ATOM     17  C   UNL d   1      20.640 -19.174   0.612  0.00  0.00     0.040 A 
ATOM     18  C   UNL d   1      20.660 -19.339   2.013  0.00  0.00     0.017 A 
ATOM     19  C   UNL d   1      19.676 -20.075   2.685  0.00  0.00     0.002 A 
ATOM     20  C   UNL d   1      18.656 -20.691   1.975  0.00  0.00     0.007 A 
ATOM     21  C   UNL d   1      18.602 -20.575   0.582  0.00  0.00    -0.055 A 
ATOM     22  C   UNL d   1      17.484 -21.286  -0.145  0.00  0.00     0.049 C 
ATOM     23  C   UNL d   1      19.585 -19.802  -0.116  0.00  0.00    -0.040 A 
ATOM     24  C   UNL d   1      19.419 -19.700  -1.615  0.00  0.00     0.050 C 
ENDBRANCH   1  17
TORSDOF 4
ENDMDL
MODEL 5
REMARK VINA RESULT:    -6.554      5.482      9.648
REMARK INTER + INTRA:          -9.801
REMARK INTER:                  -7.747
REMARK INTRA:                  -2.054
REMARK CONF_INDEPENDENT:        1.193
REMARK UNBOUND:                -2.054
REMARK  4 active torsions:
REMARK  status: ('A' for Active; 'I' for Inactive)
REMARK    1  A    between atoms: C_6  and  C_7 
REMARK       I    between atoms: C_7  and  N_9 
REMARK    2  A    between atoms: N_9  and  N_10 
REMARK       I    between atoms: N_10  and  C_11 
REMARK    3  A    between atoms: C_11  and  C_13 
REMARK    4  A    between atoms: C_18  and  O_19 
ROOT
ATOM      1  C   UNL d   1      25.300 -14.350  -2.886  0.00  0.00     0.270 C 
ATOM      2  O   UNL d   1      24.532 -14.417  -3.846  0.00  0.00    -0.266 OA
ATOM      3  N   UNL d   1      25.869 -13.119  -2.588  0.00  0.00    -0.263 N 
ATOM      4  H   UNL d   1      26.505 -12.910  -1.827  0.00  0.00     0.190 HD
ENDROOT
BRANCH   3   5
ATOM      5  N   UNL d   1      25.530 -12.027  -3.414  0.00  0.00    -0.263 N 
ATOM      6  C   UNL d   1      26.047 -10.776  -3.144  0.00  0.00     0.272 C 
ATOM      7  O   UNL d   1      26.858 -10.569  -2.241  0.00  0.00    -0.266 OA
ATOM      8  H   UNL d   1      24.823 -12.197  -4.131  0.00  0.00     0.190 HD
BRANCH   6   9
ATOM      9  C   UNL d   1      25.608  -9.662  -4.034  0.00  0.00     0.066 A 
ATOM     10  C   UNL d   1      25.455  -8.380  -3.482  0.00  0.00     0.020 A 
ATOM     11  C   UNL d   1      25.019  -7.312  -4.276  0.00  0.00     0.001 A 
ATOM     12  C   UNL d   1      24.701  -7.526  -5.617  0.00  0.00     0.003 A 
ATOM     13  C   UNL d   1      24.833  -8.803  -6.171  0.00  0.00     0.037 A 
ATOM     14  C   UNL d   1      25.297  -9.863  -5.384  0.00  0.00     0.081 A 
BRANCH  14  15
ATOM     15  O   UNL d   1      25.431 -11.109  -5.928  0.00  0.00    -0.360 OA
ATOM     16  H   UNL d   1      24.597 -11.599  -5.849  0.00  0.00     0.217 HD
ENDBRANCH  14  15
ENDBRANCH   6   9
ENDBRANCH   3   5
BRANCH   1  17
ATOM     17  C   UNL d   1      25.649 -15.559  -2.021  0.00  0.00     0.040 A 
ATOM     18  C   UNL d   1      26.992 -15.983  -1.930  0.00  0.00     0.017 A 
ATOM     19  C   UNL d   1      27.371 -17.075  -1.139  0.00  0.00     0.002 A 
ATOM     20  C   UNL d   1      26.416 -17.793  -0.435  0.00  0.00     0.007 A 
ATOM     21  C   UNL d   1      25.068 -17.426  -0.506  0.00  0.00    -0.055 A 
ATOM     22  C   UNL d   1      24.066 -18.258   0.260  0.00  0.00     0.049 C 
ATOM     23  C   UNL d   1      24.669 -16.294  -1.288  0.00  0.00    -0.040 A 
ATOM     24  C   UNL d   1      23.198 -15.950  -1.270  0.00  0.00     0.050 C 
ENDBRANCH   1  17
TORSDOF 4
ENDMDL
MODEL 6
REMARK VINA RESULT:    -6.510      4.795      9.348
REMARK INTER + INTRA:          -9.764
REMARK INTER:                  -7.704
REMARK INTRA:                  -2.061
REMARK CONF_INDEPENDENT:        1.193
REMARK UNBOUND:                -2.061
REMARK  4 active torsions:
REMARK  status: ('A' for Active; 'I' for Inactive)
REMARK    1  A    between atoms: C_6  and  C_7 
REMARK       I    between atoms: C_7  and  N_9 
REMARK    2  A    between atoms: N_9  and  N_10 
REMARK       I    between atoms: N_10  and  C_11 
REMARK    3  A    between atoms: C_11  and  C_13 
REMARK    4  A    between atoms: C_18  and  O_19 
ROOT
ATOM      1  C   UNL d   1      25.065 -15.237  -2.623  0.00  0.00     0.270 C 
ATOM      2  O   UNL d   1      24.329 -14.261  -2.770  0.00  0.00    -0.266 OA
ATOM      3  N   UNL d   1      26.160 -15.363  -3.468  0.00  0.00    -0.263 N 
ATOM      4  H   UNL d   1      26.855 -16.100  -3.458  0.00  0.00     0.190 HD
ENDROOT
BRANCH   3   5
ATOM      5  N   UNL d   1      26.350 -14.362  -4.445  0.00  0.00    -0.263 N 
ATOM      6  C   UNL d   1      27.442 -14.422  -5.285  0.00  0.00     0.272 C 
ATOM      7  O   UNL d   1      28.243 -15.357  -5.275  0.00  0.00    -0.266 OA
ATOM      8  H   UNL d   1      25.708 -13.568  -4.416  0.00  0.00     0.190 HD
BRANCH   6   9
ATOM      9  C   UNL d   1      27.600 -13.305  -6.262  0.00  0.00     0.066 A 
ATOM     10  C   UNL d   1      28.528 -13.449  -7.305  0.00  0.00     0.020 A 
ATOM     11  C   UNL d   1      28.727 -12.415  -8.227  0.00  0.00     0.001 A 
ATOM     12  C   UNL d   1      28.024 -11.217  -8.093  0.00  0.00     0.003 A 
ATOM     13  C   UNL d   1      27.111 -11.058  -7.047  0.00  0.00     0.037 A 
ATOM     14  C   UNL d   1      26.892 -12.103  -6.143  0.00  0.00     0.081 A 
BRANCH  14  15
ATOM     15  O   UNL d   1      25.994 -11.948  -5.124  0.00  0.00    -0.360 OA
ATOM     16  H   UNL d   1      25.155 -11.603  -5.469  0.00  0.00     0.217 HD
ENDBRANCH  14  15
ENDBRANCH   6   9
ENDBRANCH   3   5
BRANCH   1  17
ATOM     17  C   UNL d   1      24.821 -16.304  -1.560  0.00  0.00     0.040 A 
ATOM     18  C   UNL d   1      23.500 -16.706  -1.270  0.00  0.00     0.017 A 
ATOM     19  C   UNL d   1      23.219 -17.691  -0.316  0.00  0.00     0.002 A 
ATOM     20  C   UNL d   1      24.247 -18.288   0.398  0.00  0.00     0.007 A 
ATOM     21  C   UNL d   1      25.575 -17.912   0.163  0.00  0.00    -0.055 A 
ATOM     22  C   UNL d   1      26.655 -18.575   0.985  0.00  0.00     0.049 C 
ATOM     23  C   UNL d   1      25.879 -16.926  -0.831  0.00  0.00    -0.040 A 
ATOM     24  C   UNL d   1      27.343 -16.616  -1.042  0.00  0.00     0.050 C 
ENDBRANCH   1  17
TORSDOF 4
ENDMDL
MODEL 7
REMARK VINA RESULT:    -6.167      4.897      9.536
REMARK INTER + INTRA:          -9.452
REMARK INTER:                  -7.360
REMARK INTRA:                  -2.093
REMARK CONF_INDEPENDENT:        1.193
REMARK UNBOUND:                -2.093
REMARK  4 active torsions:
REMARK  status: ('A' for Active; 'I' for Inactive)
REMARK    1  A    between atoms: C_6  and  C_7 
REMARK       I    between atoms: C_7  and  N_9 
REMARK    2  A    between atoms: N_9  and  N_10 
REMARK       I    between atoms: N_10  and  C_11 
REMARK    3  A    between atoms: C_11  and  C_13 
REMARK    4  A    between atoms: C_18  and  O_19 
ROOT
ATOM      1  C   UNL d   1      26.205 -15.024  -2.083  0.00  0.00     0.270 C 
ATOM      2  O   UNL d   1      25.970 -13.884  -1.681  0.00  0.00    -0.266 OA
ATOM      3  N   UNL d   1      26.645 -15.178  -3.391  0.00  0.00    -0.263 N 
ATOM      4  H   UNL d   1      26.888 -16.046  -3.853  0.00  0.00     0.190 HD
ENDROOT
BRANCH   3   5
ATOM      5  N   UNL d   1      26.787 -14.012  -4.174  0.00  0.00    -0.263 N 
ATOM      6  C   UNL d   1      27.238 -14.110  -5.474  0.00  0.00     0.272 C 
ATOM      7  O   UNL d   1      27.466 -15.188  -6.023  0.00  0.00    -0.266 OA
ATOM      8  H   UNL d   1      26.640 -13.121  -3.698  0.00  0.00     0.190 HD
BRANCH   6   9
ATOM      9  C   UNL d   1      27.404 -12.831  -6.224  0.00  0.00     0.066 A 
ATOM     10  C   UNL d   1      28.406 -12.752  -7.205  0.00  0.00     0.020 A 
ATOM     11  C   UNL d   1      28.614 -11.562  -7.913  0.00  0.00     0.001 A 
ATOM     12  C   UNL d   1      27.845 -10.435  -7.622  0.00  0.00     0.003 A 
ATOM     13  C   UNL d   1      26.858 -10.499  -6.635  0.00  0.00     0.037 A 
ATOM     14  C   UNL d   1      26.631 -11.697  -5.949  0.00  0.00     0.081 A 
BRANCH  14  15
ATOM     15  O   UNL d   1      25.661 -11.761  -4.988  0.00  0.00    -0.360 OA
ATOM     16  H   UNL d   1      24.796 -11.549  -5.373  0.00  0.00     0.217 HD
ENDBRANCH  14  15
ENDBRANCH   6   9
ENDBRANCH   3   5
BRANCH   1  17
ATOM     17  C   UNL d   1      26.031 -16.262  -1.207  0.00  0.00     0.040 A 
ATOM     18  C   UNL d   1      27.171 -16.935  -0.721  0.00  0.00     0.017 A 
ATOM     19  C   UNL d   1      27.070 -18.065   0.099  0.00  0.00     0.002 A 
ATOM     20  C   UNL d   1      25.825 -18.574   0.438  0.00  0.00     0.007 A 
ATOM     21  C   UNL d   1      24.662 -17.956  -0.035  0.00  0.00    -0.055 A 
ATOM     22  C   UNL d   1      23.332 -18.566   0.343  0.00  0.00     0.049 C 
ATOM     23  C   UNL d   1      24.750 -16.782  -0.850  0.00  0.00    -0.040 A 
ATOM     24  C   UNL d   1      23.440 -16.162  -1.277  0.00  0.00     0.050 C 
ENDBRANCH   1  17
TORSDOF 4
ENDMDL
MODEL 8
REMARK VINA RESULT:    -6.087      1.617      2.199
REMARK INTER + INTRA:          -9.266
REMARK INTER:                  -7.280
REMARK INTRA:                  -1.986
REMARK CONF_INDEPENDENT:        1.193
REMARK UNBOUND:                -1.986
REMARK  4 active torsions:
REMARK  status: ('A' for Active; 'I' for Inactive)
REMARK    1  A    between atoms: C_6  and  C_7 
REMARK       I    between atoms: C_7  and  N_9 
REMARK    2  A    between atoms: N_9  and  N_10 
REMARK       I    between atoms: N_10  and  C_11 
REMARK    3  A    between atoms: C_11  and  C_13 
REMARK    4  A    between atoms: C_18  and  O_19 
ROOT
ATOM      1  C   UNL d   1      25.338 -16.925  -0.265  0.00  0.00     0.270 C 
ATOM      2  O   UNL d   1      25.712 -17.829   0.484  0.00  0.00    -0.266 OA
ATOM      3  N   UNL d   1      23.984 -16.841  -0.561  0.00  0.00    -0.263 N 
ATOM      4  H   UNL d   1      23.531 -16.149  -1.147  0.00  0.00     0.190 HD
ENDROOT
BRANCH   3   5
ATOM      5  N   UNL d   1      23.128 -17.804   0.014  0.00  0.00    -0.263 N 
ATOM      6  C   UNL d   1      21.807 -17.869  -0.378  0.00  0.00     0.272 C 
ATOM      7  O   UNL d   1      21.338 -17.161  -1.270  0.00  0.00    -0.266 OA
ATOM      8  H   UNL d   1      23.511 -18.355   0.784  0.00  0.00     0.190 HD
BRANCH   6   9
ATOM      9  C   UNL d   1      20.953 -18.883   0.306  0.00  0.00     0.066 A 
ATOM     10  C   UNL d   1      20.997 -18.965   1.707  0.00  0.00     0.020 A 
ATOM     11  C   UNL d   1      20.233 -19.921   2.387  0.00  0.00     0.001 A 
ATOM     12  C   UNL d   1      19.446 -20.823   1.670  0.00  0.00     0.003 A 
ATOM     13  C   UNL d   1      19.410 -20.761   0.274  0.00  0.00     0.037 A 
ATOM     14  C   UNL d   1      20.152 -19.786  -0.403  0.00  0.00     0.081 A 
BRANCH  14  15
ATOM     15  O   UNL d   1      20.111 -19.723  -1.767  0.00  0.00    -0.360 OA
ATOM     16  H   UNL d   1      20.803 -19.126  -2.094  0.00  0.00     0.217 HD
ENDBRANCH  14  15
ENDBRANCH   6   9
ENDBRANCH   3   5
BRANCH   1  17
ATOM     17  C   UNL d   1      26.297 -15.907  -0.875  0.00  0.00     0.040 A 
ATOM     18  C   UNL d   1      26.102 -15.479  -2.205  0.00  0.00     0.017 A 
ATOM     19  C   UNL d   1      26.942 -14.536  -2.810  0.00  0.00     0.002 A 
ATOM     20  C   UNL d   1      28.018 -14.009  -2.112  0.00  0.00     0.007 A 
ATOM     21  C   UNL d   1      28.268 -14.414  -0.796  0.00  0.00    -0.055 A 
ATOM     22  C   UNL d   1      29.469 -13.828  -0.091  0.00  0.00     0.049 C 
ATOM     23  C   UNL d   1      27.401 -15.357  -0.156  0.00  0.00    -0.040 A 
ATOM     24  C   UNL d   1      27.727 -15.701   1.279  0.00  0.00     0.050 C 
ENDBRANCH   1  17
TORSDOF 4
ENDMDL
MODEL 9
REMARK VINA RESULT:    -5.982      4.305      6.326
REMARK INTER + INTRA:          -9.272
REMARK INTER:                  -7.176
REMARK INTRA:                  -2.097
REMARK CONF_INDEPENDENT:        1.193
REMARK UNBOUND:                -2.097
REMARK  4 active torsions:
REMARK  status: ('A' for Active; 'I' for Inactive)
REMARK    1  A    between atoms: C_6  and  C_7 
REMARK       I    between atoms: C_7  and  N_9 
REMARK    2  A    between atoms: N_9  and  N_10 
REMARK       I    between atoms: N_10  and  C_11 
REMARK    3  A    between atoms: C_11  and  C_13 
REMARK    4  A    between atoms: C_18  and  O_19 
ROOT
ATOM      1  C   UNL d   1      26.941 -15.202  -5.146  0.00  0.00     0.270 C 
ATOM      2  O   UNL d   1      25.942 -15.667  -5.695  0.00  0.00    -0.266 OA
ATOM      3  N   UNL d   1      27.022 -15.280  -3.762  0.00  0.00    -0.263 N 
ATOM      4  H   UNL d   1      27.783 -14.954  -3.177  0.00  0.00     0.190 HD
ENDROOT
BRANCH   3   5
ATOM      5  N   UNL d   1      25.946 -15.884  -3.078  0.00  0.00    -0.263 N 
ATOM      6  C   UNL d   1      26.071 -16.193  -1.738  0.00  0.00     0.272 C 
ATOM      7  O   UNL d   1      27.068 -15.904  -1.076  0.00  0.00    -0.266 OA
ATOM      8  H   UNL d   1      25.142 -16.161  -3.643  0.00  0.00     0.190 HD
BRANCH   6   9
ATOM      9  C   UNL d   1      24.908 -16.869  -1.095  0.00  0.00     0.066 A 
ATOM     10  C   UNL d   1      23.629 -16.315  -1.264  0.00  0.00     0.020 A 
ATOM     11  C   UNL d   1      22.514 -16.903  -0.654  0.00  0.00     0.001 A 
ATOM     12  C   UNL d   1      22.674 -18.027   0.155  0.00  0.00     0.003 A 
ATOM     13  C   UNL d   1      23.946 -18.575   0.344  0.00  0.00     0.037 A 
ATOM     14  C   UNL d   1      25.055 -18.005  -0.289  0.00  0.00     0.081 A 
BRANCH  14  15
ATOM     15  O   UNL d   1      26.298 -18.545  -0.109  0.00  0.00    -0.360 OA
ATOM     16  H   UNL d   1      26.976 -17.855  -0.181  0.00  0.00     0.217 HD
ENDBRANCH  14  15
ENDBRANCH   6   9
ENDBRANCH   3   5
BRANCH   1  17
ATOM     17  C   UNL d   1      28.082 -14.548  -5.921  0.00  0.00     0.040 A 
ATOM     18  C   UNL d   1      27.906 -13.253  -6.454  0.00  0.00     0.017 A 
ATOM     19  C   UNL d   1      28.924 -12.600  -7.160  0.00  0.00     0.002 A 
ATOM     20  C   UNL d   1      30.140 -13.229  -7.378  0.00  0.00     0.007 A 
ATOM     21  C   UNL d   1      30.359 -14.521  -6.887  0.00  0.00    -0.055 A 
ATOM     22  C   UNL d   1      31.692 -15.171  -7.174  0.00  0.00     0.049 C 
ATOM     23  C   UNL d   1      29.338 -15.191  -6.139  0.00  0.00    -0.040 A 
ATOM     24  C   UNL d   1      29.682 -16.566  -5.615  0.00  0.00     0.050 C 
ENDBRANCH   1  17
TORSDOF 4
ENDMDL
