MODEL 1
REMARK VINA RESULT:    -8.129      0.000      0.000
REMARK INTER + INTRA:         -11.904
REMARK INTER:                 -10.516
REMARK INTRA:                  -1.388
REMARK CONF_INDEPENDENT:        2.386
REMARK UNBOUND:                -1.388
REMARK  8 active torsions:
REMARK  status: ('A' for Active; 'I' for Inactive)
REMARK    1  A    between atoms: C_2  and  C_3 
REMARK    2  A    between atoms: C_3  and  N_4 
REMARK       I    between atoms: N_4  and  C_5 
REMARK       I    between atoms: C_5  and  N_7 
REMARK    3  A    between atoms: N_7  and  N_8 
REMARK       I    between atoms: N_8  and  C_9 
REMARK    4  A    between atoms: C_11  and  C_9 
REMARK    5  A    between atoms: C_11  and  O_13 
REMARK    6  A    between atoms: O_13  and  C_14 
REMARK    7  A    between atoms: C_17  and  O_18 
REMARK    8  A    between atoms: O_18  and  C_19 
ROOT
ATOM      1  N   UNL d   1      24.186 -18.473  -0.582  0.00  0.00    -0.264 N 
ATOM      2  C   UNL d   1      25.328 -18.039   0.115  0.00  0.00     0.265 C 
ATOM      3  O   UNL d   1      25.622 -18.575   1.190  0.00  0.00    -0.269 OA
ATOM      4  H   UNL d   1      23.969 -18.091  -1.503  0.00  0.00     0.190 HD
ENDROOT
BRANCH   2   5
ATOM      5  C   UNL d   1      26.263 -16.885  -0.554  0.00  0.00     0.218 C 
ATOM      6  C   UNL d   1      27.088 -16.233   0.602  0.00  0.00     0.050 C 
BRANCH   5   7
ATOM      7  O   UNL d   1      25.786 -15.743  -1.319  0.00  0.00    -0.337 OA
BRANCH   7   8
ATOM      8  C   UNL d   1      26.326 -15.518  -2.550  0.00  0.00     0.070 C 
ATOM      9  C   UNL d   1      27.694 -15.508  -2.813  0.00  0.00     0.039 C 
ATOM     10  C   UNL d   1      28.190 -15.242  -4.131  0.00  0.00     0.039 C 
ATOM     11  C   UNL d   1      27.332 -15.201  -5.216  0.00  0.00     0.068 C 
ATOM     12  C   UNL d   1      26.015 -15.145  -4.883  0.00  0.00     0.039 C 
ATOM     13  C   UNL d   1      25.550 -15.082  -3.578  0.00  0.00     0.039 C 
BRANCH  11  14
ATOM     14  O   UNL d   1      27.757 -15.095  -6.514  0.00  0.00    -0.352 OA
BRANCH  14  15
ATOM     15  C   UNL d   1      28.778 -14.096  -6.812  0.00  0.00     0.171 C 
ATOM     16  C   UNL d   1      30.147 -14.752  -6.749  0.00  0.00     0.034 C 
ENDBRANCH  14  15
ENDBRANCH  11  14
ENDBRANCH   7   8
ENDBRANCH   5   7
ENDBRANCH   2   5
BRANCH   1  17
ATOM     17  N   UNL d   1      23.001 -18.917   0.192  0.00  0.00    -0.249 N 
ATOM     18  C   UNL d   1      21.784 -19.168  -0.411  0.00  0.00     0.334 C 
ATOM     19  N   UNL d   1      20.787 -19.728   0.331  0.00  0.00    -0.342 N 
ATOM     20  O   UNL d   1      21.536 -18.959  -1.601  0.00  0.00    -0.246 OA
ATOM     21  H   UNL d   1      21.040 -20.242   1.161  0.00  0.00     0.164 HD
ATOM     22  H   UNL d   1      23.186 -19.145   1.162  0.00  0.00     0.192 HD
BRANCH  19  23
ATOM     23  C   UNL d   1      19.515 -20.041  -0.353  0.00  0.00     0.124 C 
BRANCH  23  24
ATOM     24  C   UNL d   1      18.544 -20.781   0.548  0.00  0.00     0.015 C 
ATOM     25  C   UNL d   1      18.777 -20.490   2.025  0.00  0.00     0.006 C 
ENDBRANCH  23  24
ENDBRANCH  19  23
ENDBRANCH   1  17
TORSDOF 8
ENDMDL
MODEL 2
REMARK VINA RESULT:    -7.900      1.311      1.688
REMARK INTER + INTRA:         -11.707
REMARK INTER:                 -10.286
REMARK INTRA:                  -1.421
REMARK CONF_INDEPENDENT:        2.386
REMARK UNBOUND:                -1.421
REMARK  8 active torsions:
REMARK  status: ('A' for Active; 'I' for Inactive)
REMARK    1  A    between atoms: C_2  and  C_3 
REMARK    2  A    between atoms: C_3  and  N_4 
REMARK       I    between atoms: N_4  and  C_5 
REMARK       I    between atoms: C_5  and  N_7 
REMARK    3  A    between atoms: N_7  and  N_8 
REMARK       I    between atoms: N_8  and  C_9 
REMARK    4  A    between atoms: C_11  and  C_9 
REMARK    5  A    between atoms: C_11  and  O_13 
REMARK    6  A    between atoms: O_13  and  C_14 
REMARK    7  A    between atoms: C_17  and  O_18 
REMARK    8  A    between atoms: O_18  and  C_19 
ROOT
ATOM      1  N   UNL d   1      23.534 -18.232  -1.209  0.00  0.00    -0.264 N 
ATOM      2  C   UNL d   1      24.825 -17.805  -0.851  0.00  0.00     0.265 C 
ATOM      3  O   UNL d   1      25.501 -18.498  -0.083  0.00  0.00    -0.269 OA
ATOM      4  H   UNL d   1      22.990 -17.709  -1.895  0.00  0.00     0.190 HD
ENDROOT
BRANCH   2   5
ATOM      5  C   UNL d   1      25.410 -16.438  -1.517  0.00  0.00     0.218 C 
ATOM      6  C   UNL d   1      26.044 -15.597  -0.361  0.00  0.00     0.050 C 
BRANCH   5   7
ATOM      7  O   UNL d   1      24.637 -15.459  -2.266  0.00  0.00    -0.337 OA
BRANCH   7   8
ATOM      8  C   UNL d   1      25.259 -14.770  -3.264  0.00  0.00     0.070 C 
ATOM      9  C   UNL d   1      25.065 -13.415  -3.517  0.00  0.00     0.039 C 
ATOM     10  C   UNL d   1      25.739 -12.762  -4.600  0.00  0.00     0.039 C 
ATOM     11  C   UNL d   1      26.758 -13.398  -5.287  0.00  0.00     0.068 C 
ATOM     12  C   UNL d   1      26.846 -14.733  -5.042  0.00  0.00     0.039 C 
ATOM     13  C   UNL d   1      25.972 -15.427  -4.219  0.00  0.00     0.039 C 
BRANCH  11  14
ATOM     14  O   UNL d   1      27.535 -12.782  -6.231  0.00  0.00    -0.352 OA
BRANCH  14  15
ATOM     15  C   UNL d   1      28.563 -13.582  -6.888  0.00  0.00     0.171 C 
ATOM     16  C   UNL d   1      28.911 -12.944  -8.223  0.00  0.00     0.034 C 
ENDBRANCH  14  15
ENDBRANCH  11  14
ENDBRANCH   7   8
ENDBRANCH   5   7
ENDBRANCH   2   5
BRANCH   1  17
ATOM     17  N   UNL d   1      22.717 -18.959  -0.206  0.00  0.00    -0.249 N 
ATOM     18  C   UNL d   1      21.336 -18.948  -0.238  0.00  0.00     0.334 C 
ATOM     19  N   UNL d   1      20.654 -19.766   0.612  0.00  0.00    -0.342 N 
ATOM     20  O   UNL d   1      20.659 -18.274  -1.018  0.00  0.00    -0.246 OA
ATOM     21  H   UNL d   1      21.131 -20.573   0.985  0.00  0.00     0.164 HD
ATOM     22  H   UNL d   1      23.243 -19.561   0.417  0.00  0.00     0.192 HD
BRANCH  19  23
ATOM     23  C   UNL d   1      19.179 -19.780   0.515  0.00  0.00     0.124 C 
BRANCH  23  24
ATOM     24  C   UNL d   1      18.542 -20.666   1.570  0.00  0.00     0.015 C 
ATOM     25  C   UNL d   1      17.925 -21.927   0.980  0.00  0.00     0.006 C 
ENDBRANCH  23  24
ENDBRANCH  19  23
ENDBRANCH   1  17
TORSDOF 8
ENDMDL
MODEL 3
REMARK VINA RESULT:    -7.879      2.079      2.398
REMARK INTER + INTRA:         -11.617
REMARK INTER:                 -10.266
REMARK INTRA:                  -1.351
REMARK CONF_INDEPENDENT:        2.386
REMARK UNBOUND:                -1.351
REMARK  8 active torsions:
REMARK  status: ('A' for Active; 'I' for Inactive)
REMARK    1  A    between atoms: C_2  and  C_3 
REMARK    2  A    between atoms: C_3  and  N_4 
REMARK       I    between atoms: N_4  and  C_5 
REMARK       I    between atoms: C_5  and  N_7 
REMARK    3  A    between atoms: N_7  and  N_8 
REMARK       I    between atoms: N_8  and  C_9 
REMARK    4  A    between atoms: C_11  and  C_9 
REMARK    5  A    between atoms: C_11  and  O_13 
REMARK    6  A    between atoms: O_13  and  C_14 
REMARK    7  A    between atoms: C_17  and  O_18 
REMARK    8  A    between atoms: O_18  and  C_19 
ROOT
ATOM      1  N   UNL d   1      23.561 -18.373  -1.222  0.00  0.00    -0.264 N 
ATOM      2  C   UNL d   1      24.794 -17.824  -0.827  0.00  0.00     0.265 C 
ATOM      3  O   UNL d   1      25.466 -18.402   0.034  0.00  0.00    -0.269 OA
ATOM      4  H   UNL d   1      23.027 -17.946  -1.981  0.00  0.00     0.190 HD
ENDROOT
BRANCH   2   5
ATOM      5  C   UNL d   1      25.325 -16.474  -1.569  0.00  0.00     0.218 C 
ATOM      6  C   UNL d   1      25.906 -15.538  -0.462  0.00  0.00     0.050 C 
BRANCH   5   7
ATOM      7  O   UNL d   1      24.518 -15.579  -2.385  0.00  0.00    -0.337 OA
BRANCH   7   8
ATOM      8  C   UNL d   1      25.157 -14.713  -3.221  0.00  0.00     0.070 C 
ATOM      9  C   UNL d   1      25.987 -15.107  -4.267  0.00  0.00     0.039 C 
ATOM     10  C   UNL d   1      26.643 -14.136  -5.094  0.00  0.00     0.039 C 
ATOM     11  C   UNL d   1      26.306 -12.796  -5.017  0.00  0.00     0.068 C 
ATOM     12  C   UNL d   1      25.549 -12.474  -3.934  0.00  0.00     0.039 C 
ATOM     13  C   UNL d   1      25.178 -13.380  -2.952  0.00  0.00     0.039 C 
BRANCH  11  14
ATOM     14  O   UNL d   1      26.788 -11.843  -5.874  0.00  0.00    -0.352 OA
BRANCH  14  15
ATOM     15  C   UNL d   1      25.914 -10.720  -6.197  0.00  0.00     0.171 C 
ATOM     16  C   UNL d   1      26.248  -9.553  -5.283  0.00  0.00     0.034 C 
ENDBRANCH  14  15
ENDBRANCH  11  14
ENDBRANCH   7   8
ENDBRANCH   5   7
ENDBRANCH   2   5
BRANCH   1  17
ATOM     17  N   UNL d   1      22.733 -19.076  -0.212  0.00  0.00    -0.249 N 
ATOM     18  C   UNL d   1      21.354 -18.995  -0.209  0.00  0.00     0.334 C 
ATOM     19  N   UNL d   1      20.653 -19.794   0.644  0.00  0.00    -0.342 N 
ATOM     20  O   UNL d   1      20.693 -18.274  -0.960  0.00  0.00    -0.246 OA
ATOM     21  H   UNL d   1      21.097 -20.630   0.992  0.00  0.00     0.164 HD
ATOM     22  H   UNL d   1      23.243 -19.715   0.387  0.00  0.00     0.192 HD
BRANCH  19  23
ATOM     23  C   UNL d   1      19.177 -19.732   0.585  0.00  0.00     0.124 C 
BRANCH  23  24
ATOM     24  C   UNL d   1      18.521 -20.646   1.603  0.00  0.00     0.015 C 
ATOM     25  C   UNL d   1      18.020 -21.945   0.987  0.00  0.00     0.006 C 
ENDBRANCH  23  24
ENDBRANCH  19  23
ENDBRANCH   1  17
TORSDOF 8
ENDMDL
MODEL 4
REMARK VINA RESULT:    -7.628      4.346      8.571
REMARK INTER + INTRA:         -11.355
REMARK INTER:                 -10.014
REMARK INTRA:                  -1.341
REMARK CONF_INDEPENDENT:        2.386
REMARK UNBOUND:                -1.341
REMARK  8 active torsions:
REMARK  status: ('A' for Active; 'I' for Inactive)
REMARK    1  A    between atoms: C_2  and  C_3 
REMARK    2  A    between atoms: C_3  and  N_4 
REMARK       I    between atoms: N_4  and  C_5 
REMARK       I    between atoms: C_5  and  N_7 
REMARK    3  A    between atoms: N_7  and  N_8 
REMARK       I    between atoms: N_8  and  C_9 
REMARK    4  A    between atoms: C_11  and  C_9 
REMARK    5  A    between atoms: C_11  and  O_13 
REMARK    6  A    between atoms: O_13  and  C_14 
REMARK    7  A    between atoms: C_17  and  O_18 
REMARK    8  A    between atoms: O_18  and  C_19 
ROOT
ATOM      1  N   UNL d   1      27.922 -15.178   1.900  0.00  0.00    -0.264 N 
ATOM      2  C   UNL d   1      27.080 -15.385   0.792  0.00  0.00     0.265 C 
ATOM      3  O   UNL d   1      26.491 -14.421   0.291  0.00  0.00    -0.269 OA
ATOM      4  H   UNL d   1      28.470 -15.950   2.281  0.00  0.00     0.190 HD
ENDROOT
BRANCH   2   5
ATOM      5  C   UNL d   1      26.963 -16.885   0.167  0.00  0.00     0.218 C 
ATOM      6  C   UNL d   1      28.415 -17.369  -0.146  0.00  0.00     0.050 C 
BRANCH   5   7
ATOM      7  O   UNL d   1      26.216 -17.253  -1.026  0.00  0.00    -0.337 OA
BRANCH   7   8
ATOM      8  C   UNL d   1      24.863 -17.386  -0.927  0.00  0.00     0.070 C 
ATOM      9  C   UNL d   1      23.965 -16.326  -1.015  0.00  0.00     0.039 C 
ATOM     10  C   UNL d   1      22.554 -16.541  -0.881  0.00  0.00     0.039 C 
ATOM     11  C   UNL d   1      22.030 -17.822  -0.875  0.00  0.00     0.068 C 
ATOM     12  C   UNL d   1      22.958 -18.802  -0.720  0.00  0.00     0.039 C 
ATOM     13  C   UNL d   1      24.311 -18.564  -0.529  0.00  0.00     0.039 C 
BRANCH  11  14
ATOM     14  O   UNL d   1      20.687 -18.090  -0.895  0.00  0.00    -0.352 OA
BRANCH  14  15
ATOM     15  C   UNL d   1      20.278 -19.491  -0.919  0.00  0.00     0.171 C 
ATOM     16  C   UNL d   1      19.154 -19.697   0.082  0.00  0.00     0.034 C 
ENDBRANCH  14  15
ENDBRANCH  11  14
ENDBRANCH   7   8
ENDBRANCH   5   7
ENDBRANCH   2   5
BRANCH   1  17
ATOM     17  N   UNL d   1      27.557 -14.137   2.892  0.00  0.00    -0.249 N 
ATOM     18  C   UNL d   1      27.925 -14.229   4.220  0.00  0.00     0.334 C 
ATOM     19  N   UNL d   1      27.699 -13.163   5.038  0.00  0.00    -0.342 N 
ATOM     20  O   UNL d   1      28.490 -15.203   4.724  0.00  0.00    -0.246 OA
ATOM     21  H   UNL d   1      27.593 -12.252   4.619  0.00  0.00     0.164 HD
ATOM     22  H   UNL d   1      27.137 -13.303   2.499  0.00  0.00     0.192 HD
BRANCH  19  23
ATOM     23  C   UNL d   1      28.156 -13.265   6.440  0.00  0.00     0.124 C 
BRANCH  23  24
ATOM     24  C   UNL d   1      29.669 -13.286   6.551  0.00  0.00     0.015 C 
ATOM     25  C   UNL d   1      30.149 -13.699   7.937  0.00  0.00     0.006 C 
ENDBRANCH  23  24
ENDBRANCH  19  23
ENDBRANCH   1  17
TORSDOF 8
ENDMDL
MODEL 5
REMARK VINA RESULT:    -7.619      4.508      9.133
REMARK INTER + INTRA:         -11.361
REMARK INTER:                 -10.005
REMARK INTRA:                  -1.356
REMARK CONF_INDEPENDENT:        2.386
REMARK UNBOUND:                -1.356
REMARK  8 active torsions:
REMARK  status: ('A' for Active; 'I' for Inactive)
REMARK    1  A    between atoms: C_2  and  C_3 
REMARK    2  A    between atoms: C_3  and  N_4 
REMARK       I    between atoms: N_4  and  C_5 
REMARK       I    between atoms: C_5  and  N_7 
REMARK    3  A    between atoms: N_7  and  N_8 
REMARK       I    between atoms: N_8  and  C_9 
REMARK    4  A    between atoms: C_11  and  C_9 
REMARK    5  A    between atoms: C_11  and  O_13 
REMARK    6  A    between atoms: O_13  and  C_14 
REMARK    7  A    between atoms: C_17  and  O_18 
REMARK    8  A    between atoms: O_18  and  C_19 
ROOT
ATOM      1  N   UNL d   1      26.344 -13.173  -3.515  0.00  0.00    -0.264 N 
ATOM      2  C   UNL d   1      25.731 -14.397  -3.191  0.00  0.00     0.265 C 
ATOM      3  O   UNL d   1      24.798 -14.811  -3.889  0.00  0.00    -0.269 OA
ATOM      4  H   UNL d   1      27.159 -12.852  -2.993  0.00  0.00     0.190 HD
ENDROOT
BRANCH   2   5
ATOM      5  C   UNL d   1      26.318 -15.261  -1.941  0.00  0.00     0.218 C 
ATOM      6  C   UNL d   1      27.872 -15.100  -1.959  0.00  0.00     0.050 C 
BRANCH   5   7
ATOM      7  O   UNL d   1      26.124 -16.686  -1.727  0.00  0.00    -0.337 OA
BRANCH   7   8
ATOM      8  C   UNL d   1      24.929 -17.109  -1.226  0.00  0.00     0.070 C 
ATOM      9  C   UNL d   1      23.748 -16.376  -1.299  0.00  0.00     0.039 C 
ATOM     10  C   UNL d   1      22.532 -16.878  -0.729  0.00  0.00     0.039 C 
ATOM     11  C   UNL d   1      22.444 -18.185  -0.285  0.00  0.00     0.068 C 
ATOM     12  C   UNL d   1      23.642 -18.818  -0.175  0.00  0.00     0.039 C 
ATOM     13  C   UNL d   1      24.863 -18.211  -0.431  0.00  0.00     0.039 C 
BRANCH  11  14
ATOM     14  O   UNL d   1      21.276 -18.766   0.134  0.00  0.00    -0.352 OA
BRANCH  14  15
ATOM     15  C   UNL d   1      20.259 -19.044  -0.875  0.00  0.00     0.171 C 
ATOM     16  C   UNL d   1      19.204 -19.959  -0.277  0.00  0.00     0.034 C 
ENDBRANCH  14  15
ENDBRANCH  11  14
ENDBRANCH   7   8
ENDBRANCH   5   7
ENDBRANCH   2   5
BRANCH   1  17
ATOM     17  N   UNL d   1      25.512 -12.084  -4.083  0.00  0.00    -0.249 N 
ATOM     18  C   UNL d   1      25.896 -10.759  -4.019  0.00  0.00     0.334 C 
ATOM     19  N   UNL d   1      25.167  -9.831  -4.701  0.00  0.00    -0.342 N 
ATOM     20  O   UNL d   1      26.889 -10.346  -3.415  0.00  0.00    -0.246 OA
ATOM     21  H   UNL d   1      24.602 -10.142  -5.476  0.00  0.00     0.164 HD
ATOM     22  H   UNL d   1      24.716 -12.395  -4.628  0.00  0.00     0.192 HD
BRANCH  19  23
ATOM     23  C   UNL d   1      25.634  -8.429  -4.665  0.00  0.00     0.124 C 
BRANCH  23  24
ATOM     24  C   UNL d   1      24.489  -7.438  -4.757  0.00  0.00     0.015 C 
ATOM     25  C   UNL d   1      23.600  -7.683  -5.969  0.00  0.00     0.006 C 
ENDBRANCH  23  24
ENDBRANCH  19  23
ENDBRANCH   1  17
TORSDOF 8
ENDMDL
MODEL 6
REMARK VINA RESULT:    -7.466      2.765      5.573
REMARK INTER + INTRA:         -11.182
REMARK INTER:                  -9.853
REMARK INTRA:                  -1.329
REMARK CONF_INDEPENDENT:        2.386
REMARK UNBOUND:                -1.329
REMARK  8 active torsions:
REMARK  status: ('A' for Active; 'I' for Inactive)
REMARK    1  A    between atoms: C_2  and  C_3 
REMARK    2  A    between atoms: C_3  and  N_4 
REMARK       I    between atoms: N_4  and  C_5 
REMARK       I    between atoms: C_5  and  N_7 
REMARK    3  A    between atoms: N_7  and  N_8 
REMARK       I    between atoms: N_8  and  C_9 
REMARK    4  A    between atoms: C_11  and  C_9 
REMARK    5  A    between atoms: C_11  and  O_13 
REMARK    6  A    between atoms: O_13  and  C_14 
REMARK    7  A    between atoms: C_17  and  O_18 
REMARK    8  A    between atoms: O_18  and  C_19 
ROOT
ATOM      1  N   UNL d   1      23.789 -17.958  -0.986  0.00  0.00    -0.264 N 
ATOM      2  C   UNL d   1      24.932 -17.393  -0.391  0.00  0.00     0.265 C 
ATOM      3  O   UNL d   1      25.574 -18.053   0.433  0.00  0.00    -0.269 OA
ATOM      4  H   UNL d   1      23.289 -17.454  -1.719  0.00  0.00     0.190 HD
ENDROOT
BRANCH   2   5
ATOM      5  C   UNL d   1      25.406 -15.907  -0.860  0.00  0.00     0.218 C 
ATOM      6  C   UNL d   1      25.161 -15.810  -2.400  0.00  0.00     0.050 C 
BRANCH   5   7
ATOM      7  O   UNL d   1      26.738 -15.347  -0.690  0.00  0.00    -0.337 OA
BRANCH   7   8
ATOM      8  C   UNL d   1      27.032 -14.720   0.484  0.00  0.00     0.070 C 
ATOM      9  C   UNL d   1      26.620 -13.429   0.804  0.00  0.00     0.039 C 
ATOM     10  C   UNL d   1      26.986 -12.827   2.053  0.00  0.00     0.039 C 
ATOM     11  C   UNL d   1      27.570 -13.578   3.058  0.00  0.00     0.068 C 
ATOM     12  C   UNL d   1      28.008 -14.801   2.656  0.00  0.00     0.039 C 
ATOM     13  C   UNL d   1      27.933 -15.258   1.350  0.00  0.00     0.039 C 
BRANCH  11  14
ATOM     14  O   UNL d   1      27.811 -13.099   4.319  0.00  0.00    -0.352 OA
BRANCH  14  15
ATOM     15  C   UNL d   1      27.784 -14.056   5.421  0.00  0.00     0.171 C 
ATOM     16  C   UNL d   1      29.183 -14.608   5.633  0.00  0.00     0.034 C 
ENDBRANCH  14  15
ENDBRANCH  11  14
ENDBRANCH   7   8
ENDBRANCH   5   7
ENDBRANCH   2   5
BRANCH   1  17
ATOM     17  N   UNL d   1      22.941 -18.872  -0.183  0.00  0.00    -0.249 N 
ATOM     18  C   UNL d   1      21.581 -18.984  -0.393  0.00  0.00     0.334 C 
ATOM     19  N   UNL d   1      20.893 -19.958   0.267  0.00  0.00    -0.342 N 
ATOM     20  O   UNL d   1      20.933 -18.285  -1.176  0.00  0.00    -0.246 OA
ATOM     21  H   UNL d   1      21.405 -20.757   0.610  0.00  0.00     0.164 HD
ATOM     22  H   UNL d   1      23.450 -19.495   0.434  0.00  0.00     0.192 HD
BRANCH  19  23
ATOM     23  C   UNL d   1      19.450 -20.095  -0.020  0.00  0.00     0.124 C 
BRANCH  23  24
ATOM     24  C   UNL d   1      18.714 -20.847   1.073  0.00  0.00     0.015 C 
ATOM     25  C   UNL d   1      19.172 -20.447   2.469  0.00  0.00     0.006 C 
ENDBRANCH  23  24
ENDBRANCH  19  23
ENDBRANCH   1  17
TORSDOF 8
ENDMDL
MODEL 7
REMARK VINA RESULT:    -7.184      3.750      8.268
REMARK INTER + INTRA:         -11.082
REMARK INTER:                  -9.571
REMARK INTRA:                  -1.511
REMARK CONF_INDEPENDENT:        2.386
REMARK UNBOUND:                -1.511
REMARK  8 active torsions:
REMARK  status: ('A' for Active; 'I' for Inactive)
REMARK    1  A    between atoms: C_2  and  C_3 
REMARK    2  A    between atoms: C_3  and  N_4 
REMARK       I    between atoms: N_4  and  C_5 
REMARK       I    between atoms: C_5  and  N_7 
REMARK    3  A    between atoms: N_7  and  N_8 
REMARK       I    between atoms: N_8  and  C_9 
REMARK    4  A    between atoms: C_11  and  C_9 
REMARK    5  A    between atoms: C_11  and  O_13 
REMARK    6  A    between atoms: O_13  and  C_14 
REMARK    7  A    between atoms: C_17  and  O_18 
REMARK    8  A    between atoms: O_18  and  C_19 
ROOT
ATOM      1  N   UNL d   1      27.100 -15.549   0.779  0.00  0.00    -0.264 N 
ATOM      2  C   UNL d   1      27.337 -16.216  -0.437  0.00  0.00     0.265 C 
ATOM      3  O   UNL d   1      28.202 -17.099  -0.485  0.00  0.00    -0.269 OA
ATOM      4  H   UNL d   1      26.344 -14.868   0.853  0.00  0.00     0.190 HD
ENDROOT
BRANCH   2   5
ATOM      5  C   UNL d   1      26.416 -15.844  -1.728  0.00  0.00     0.218 C 
ATOM      6  C   UNL d   1      27.059 -14.593  -2.408  0.00  0.00     0.050 C 
BRANCH   5   7
ATOM      7  O   UNL d   1      24.997 -15.523  -1.695  0.00  0.00    -0.337 OA
BRANCH   7   8
ATOM      8  C   UNL d   1      24.118 -16.510  -1.365  0.00  0.00     0.070 C 
ATOM      9  C   UNL d   1      23.026 -16.334  -0.519  0.00  0.00     0.039 C 
ATOM     10  C   UNL d   1      22.155 -17.426  -0.201  0.00  0.00     0.039 C 
ATOM     11  C   UNL d   1      22.242 -18.625  -0.887  0.00  0.00     0.068 C 
ATOM     12  C   UNL d   1      23.366 -18.755  -1.641  0.00  0.00     0.039 C 
ATOM     13  C   UNL d   1      24.375 -17.805  -1.694  0.00  0.00     0.039 C 
BRANCH  11  14
ATOM     14  O   UNL d   1      21.350 -19.653  -0.732  0.00  0.00    -0.352 OA
BRANCH  14  15
ATOM     15  C   UNL d   1      20.028 -19.328  -0.207  0.00  0.00     0.171 C 
ATOM     16  C   UNL d   1      19.905 -19.879   1.203  0.00  0.00     0.034 C 
ENDBRANCH  14  15
ENDBRANCH  11  14
ENDBRANCH   7   8
ENDBRANCH   5   7
ENDBRANCH   2   5
BRANCH   1  17
ATOM     17  N   UNL d   1      28.241 -15.299   1.693  0.00  0.00    -0.249 N 
ATOM     18  C   UNL d   1      28.125 -14.489   2.805  0.00  0.00     0.334 C 
ATOM     19  N   UNL d   1      29.163 -14.434   3.687  0.00  0.00    -0.342 N 
ATOM     20  O   UNL d   1      27.122 -13.831   3.091  0.00  0.00    -0.246 OA
ATOM     21  H   UNL d   1      29.819 -15.200   3.702  0.00  0.00     0.164 HD
ATOM     22  H   UNL d   1      29.064 -15.863   1.513  0.00  0.00     0.192 HD
BRANCH  19  23
ATOM     23  C   UNL d   1      28.990 -13.607   4.900  0.00  0.00     0.124 C 
BRANCH  23  24
ATOM     24  C   UNL d   1      28.721 -14.447   6.135  0.00  0.00     0.015 C 
ATOM     25  C   UNL d   1      29.372 -13.872   7.387  0.00  0.00     0.006 C 
ENDBRANCH  23  24
ENDBRANCH  19  23
ENDBRANCH   1  17
TORSDOF 8
ENDMDL
MODEL 8
REMARK VINA RESULT:    -7.135      3.063      9.085
REMARK INTER + INTRA:         -10.929
REMARK INTER:                  -9.522
REMARK INTRA:                  -1.408
REMARK CONF_INDEPENDENT:        2.386
REMARK UNBOUND:                -1.408
REMARK  8 active torsions:
REMARK  status: ('A' for Active; 'I' for Inactive)
REMARK    1  A    between atoms: C_2  and  C_3 
REMARK    2  A    between atoms: C_3  and  N_4 
REMARK       I    between atoms: N_4  and  C_5 
REMARK       I    between atoms: C_5  and  N_7 
REMARK    3  A    between atoms: N_7  and  N_8 
REMARK       I    between atoms: N_8  and  C_9 
REMARK    4  A    between atoms: C_11  and  C_9 
REMARK    5  A    between atoms: C_11  and  O_13 
REMARK    6  A    between atoms: O_13  and  C_14 
REMARK    7  A    between atoms: C_17  and  O_18 
REMARK    8  A    between atoms: O_18  and  C_19 
ROOT
ATOM      1  N   UNL d   1      26.719 -15.610  -4.039  0.00  0.00    -0.264 N 
ATOM      2  C   UNL d   1      25.620 -14.937  -3.473  0.00  0.00     0.265 C 
ATOM      3  O   UNL d   1      24.777 -14.424  -4.217  0.00  0.00    -0.269 OA
ATOM      4  H   UNL d   1      27.386 -16.098  -3.441  0.00  0.00     0.190 HD
ENDROOT
BRANCH   2   5
ATOM      5  C   UNL d   1      25.467 -14.912  -1.852  0.00  0.00     0.218 C 
ATOM      6  C   UNL d   1      26.602 -13.993  -1.295  0.00  0.00     0.050 C 
BRANCH   5   7
ATOM      7  O   UNL d   1      25.507 -16.074  -0.977  0.00  0.00    -0.337 OA
BRANCH   7   8
ATOM      8  C   UNL d   1      24.397 -16.860  -0.892  0.00  0.00     0.070 C 
ATOM      9  C   UNL d   1      23.093 -16.383  -0.994  0.00  0.00     0.039 C 
ATOM     10  C   UNL d   1      21.972 -17.269  -0.874  0.00  0.00     0.039 C 
ATOM     11  C   UNL d   1      22.151 -18.641  -0.870  0.00  0.00     0.068 C 
ATOM     12  C   UNL d   1      23.441 -19.034  -0.700  0.00  0.00     0.039 C 
ATOM     13  C   UNL d   1      24.496 -18.158  -0.496  0.00  0.00     0.039 C 
BRANCH  11  14
ATOM     14  O   UNL d   1      21.117 -19.540  -0.903  0.00  0.00    -0.352 OA
BRANCH  14  15
ATOM     15  C   UNL d   1      19.903 -19.200  -0.168  0.00  0.00     0.171 C 
ATOM     16  C   UNL d   1      19.210 -20.482   0.263  0.00  0.00     0.034 C 
ENDBRANCH  14  15
ENDBRANCH  11  14
ENDBRANCH   7   8
ENDBRANCH   5   7
ENDBRANCH   2   5
BRANCH   1  17
ATOM     17  N   UNL d   1      27.291 -15.105  -5.310  0.00  0.00    -0.249 N 
ATOM     18  C   UNL d   1      28.639 -15.199  -5.596  0.00  0.00     0.334 C 
ATOM     19  N   UNL d   1      29.069 -14.864  -6.845  0.00  0.00    -0.342 N 
ATOM     20  O   UNL d   1      29.495 -15.607  -4.808  0.00  0.00    -0.246 OA
ATOM     21  H   UNL d   1      28.404 -14.886  -7.603  0.00  0.00     0.164 HD
ATOM     22  H   UNL d   1      26.608 -14.808  -5.998  0.00  0.00     0.192 HD
BRANCH  19  23
ATOM     23  C   UNL d   1      30.507 -15.031  -7.143  0.00  0.00     0.124 C 
BRANCH  23  24
ATOM     24  C   UNL d   1      30.905 -16.490  -7.262  0.00  0.00     0.015 C 
ATOM     25  C   UNL d   1      31.813 -16.944  -6.126  0.00  0.00     0.006 C 
ENDBRANCH  23  24
ENDBRANCH  19  23
ENDBRANCH   1  17
TORSDOF 8
ENDMDL
MODEL 9
REMARK VINA RESULT:    -6.925      4.582      8.649
REMARK INTER + INTRA:         -10.660
REMARK INTER:                  -9.311
REMARK INTRA:                  -1.349
REMARK CONF_INDEPENDENT:        2.386
REMARK UNBOUND:                -1.349
REMARK  8 active torsions:
REMARK  status: ('A' for Active; 'I' for Inactive)
REMARK    1  A    between atoms: C_2  and  C_3 
REMARK    2  A    between atoms: C_3  and  N_4 
REMARK       I    between atoms: N_4  and  C_5 
REMARK       I    between atoms: C_5  and  N_7 
REMARK    3  A    between atoms: N_7  and  N_8 
REMARK       I    between atoms: N_8  and  C_9 
REMARK    4  A    between atoms: C_11  and  C_9 
REMARK    5  A    between atoms: C_11  and  O_13 
REMARK    6  A    between atoms: O_13  and  C_14 
REMARK    7  A    between atoms: C_17  and  O_18 
REMARK    8  A    between atoms: O_18  and  C_19 
ROOT
ATOM      1  N   UNL d   1      28.155 -14.809   2.127  0.00  0.00    -0.264 N 
ATOM      2  C   UNL d   1      27.340 -14.852   0.982  0.00  0.00     0.265 C 
ATOM      3  O   UNL d   1      26.675 -13.857   0.673  0.00  0.00    -0.269 OA
ATOM      4  H   UNL d   1      28.762 -15.596   2.357  0.00  0.00     0.190 HD
ENDROOT
BRANCH   2   5
ATOM      5  C   UNL d   1      27.351 -16.198   0.063  0.00  0.00     0.218 C 
ATOM      6  C   UNL d   1      28.807 -16.374  -0.478  0.00  0.00     0.050 C 
BRANCH   5   7
ATOM      7  O   UNL d   1      26.521 -16.434  -1.108  0.00  0.00    -0.337 OA
BRANCH   7   8
ATOM      8  C   UNL d   1      25.268 -16.938  -0.922  0.00  0.00     0.070 C 
ATOM      9  C   UNL d   1      25.003 -18.235  -0.492  0.00  0.00     0.039 C 
ATOM     10  C   UNL d   1      23.657 -18.702  -0.339  0.00  0.00     0.039 C 
ATOM     11  C   UNL d   1      22.590 -17.822  -0.404  0.00  0.00     0.068 C 
ATOM     12  C   UNL d   1      22.910 -16.595  -0.895  0.00  0.00     0.039 C 
ATOM     13  C   UNL d   1      24.174 -16.248  -1.345  0.00  0.00     0.039 C 
BRANCH  11  14
ATOM     14  O   UNL d   1      21.297 -18.177  -0.125  0.00  0.00    -0.352 OA
BRANCH  14  15
ATOM     15  C   UNL d   1      20.942 -19.588  -0.245  0.00  0.00     0.171 C 
ATOM     16  C   UNL d   1      19.575 -19.701  -0.897  0.00  0.00     0.034 C 
ENDBRANCH  14  15
ENDBRANCH  11  14
ENDBRANCH   7   8
ENDBRANCH   5   7
ENDBRANCH   2   5
BRANCH   1  17
ATOM     17  N   UNL d   1      27.698 -14.025   3.301  0.00  0.00    -0.249 N 
ATOM     18  C   UNL d   1      28.240 -14.205   4.559  0.00  0.00     0.334 C 
ATOM     19  N   UNL d   1      27.890 -13.342   5.554  0.00  0.00    -0.342 N 
ATOM     20  O   UNL d   1      29.062 -15.078   4.849  0.00  0.00    -0.246 OA
ATOM     21  H   UNL d   1      27.538 -12.433   5.296  0.00  0.00     0.164 HD
ATOM     22  H   UNL d   1      27.060 -13.267   3.087  0.00  0.00     0.192 HD
BRANCH  19  23
ATOM     23  C   UNL d   1      28.530 -13.520   6.874  0.00  0.00     0.124 C 
BRANCH  23  24
ATOM     24  C   UNL d   1      29.260 -12.272   7.333  0.00  0.00     0.015 C 
ATOM     25  C   UNL d   1      28.571 -11.589   8.507  0.00  0.00     0.006 C 
ENDBRANCH  23  24
ENDBRANCH  19  23
ENDBRANCH   1  17
TORSDOF 8
ENDMDL
