MODEL 1
REMARK VINA RESULT:    -9.375      0.000      0.000
REMARK INTER + INTRA:         -13.849
REMARK INTER:                 -11.164
REMARK INTRA:                  -2.685
REMARK CONF_INDEPENDENT:        1.790
REMARK UNBOUND:                -2.685
REMARK  6 active torsions:
REMARK  status: ('A' for Active; 'I' for Inactive)
REMARK    1  A    between atoms: O_2  and  C_3 
REMARK    2  A    between atoms: C_8  and  N_9 
REMARK       I    between atoms: N_9  and  C_10 
REMARK    3  A    between atoms: C_10  and  C_12 
REMARK    4  A    between atoms: C_17  and  N_18 
REMARK    5  A    between atoms: N_18  and  S_19 
REMARK    6  A    between atoms: S_19  and  C_22 
ROOT
ATOM      1  C   UNL d   1      27.942 -12.948  -6.402  0.00  0.00     0.059 C 
ATOM      2  C   UNL d   1      27.980 -11.971  -7.431  0.00  0.00     0.019 C 
ATOM      3  C   UNL d   1      27.032 -10.963  -7.557  0.00  0.00     0.001 C 
ATOM      4  C   UNL d   1      25.976 -10.915  -6.669  0.00  0.00     0.002 C 
ATOM      5  C   UNL d   1      25.956 -11.773  -5.572  0.00  0.00     0.031 C 
ATOM      6  C   UNL d   1      26.928 -12.780  -5.381  0.00  0.00     0.058 C 
ENDROOT
BRANCH   6   7
ATOM      7  N   UNL d   1      26.751 -13.398  -4.063  0.00  0.00    -0.280 N 
ATOM      8  H   UNL d   1      26.843 -12.861  -3.210  0.00  0.00     0.179 HD
BRANCH   7   9
ATOM      9  S   UNL d   1      25.994 -14.828  -3.986  0.00  0.00     0.263 S 
ATOM     10  O   UNL d   1      24.576 -14.442  -3.944  0.00  0.00    -0.200 OA
ATOM     11  O   UNL d   1      26.655 -15.575  -5.010  0.00  0.00    -0.200 OA
BRANCH   9  12
ATOM     12  C   UNL d   1      26.123 -15.787  -2.585  0.00  0.00     0.082 C 
ATOM     13  C   UNL d   1      27.249 -16.255  -1.938  0.00  0.00     0.028 C 
ATOM     14  C   UNL d   1      27.067 -17.255  -0.895  0.00  0.00     0.041 C 
ATOM     15  C   UNL d   1      25.733 -17.634  -0.500  0.00  0.00     0.102 C 
ATOM     16  C   UNL d   1      24.809 -16.924  -1.176  0.00  0.00     0.103 C 
ATOM     17  O   UNL d   1      25.013 -18.575   0.283  0.00  0.00    -0.346 OA
ATOM     18  C   UNL d   1      24.939 -15.847  -1.946  0.00  0.00     0.065 C 
ATOM     19  O   UNL d   1      23.857 -17.690  -1.802  0.00  0.00    -0.346 OA
ATOM     20  C   UNL d   1      22.822 -17.549  -0.895  0.00  0.00     0.202 C 
ATOM     21  C   UNL d   1      23.337 -18.547   0.135  0.00  0.00     0.202 C 
ENDBRANCH   9  12
ENDBRANCH   7   9
ENDBRANCH   6   7
BRANCH   1  22
ATOM     22  C   UNL d   1      29.113 -13.948  -6.642  0.00  0.00     0.258 C 
ATOM     23  N   UNL d   1      28.895 -15.293  -6.520  0.00  0.00    -0.320 N 
ATOM     24  H   UNL d   1      27.954 -15.592  -6.748  0.00  0.00     0.169 HD
ATOM     25  O   UNL d   1      30.219 -13.518  -6.976  0.00  0.00    -0.267 OA
BRANCH  23  26
ATOM     26  C   UNL d   1      29.655 -16.251  -5.768  0.00  0.00     0.068 C 
ATOM     27  C   UNL d   1      29.652 -16.111  -4.339  0.00  0.00     0.032 C 
ATOM     28  C   UNL d   1      30.198 -17.073  -3.493  0.00  0.00     0.002 C 
ATOM     29  C   UNL d   1      30.733 -18.206  -4.072  0.00  0.00     0.003 C 
ATOM     30  C   UNL d   1      30.933 -18.245  -5.462  0.00  0.00     0.039 C 
ATOM     31  C   UNL d   1      30.469 -17.234  -6.325  0.00  0.00     0.095 C 
BRANCH  31  32
ATOM     32  O   UNL d   1      30.775 -17.423  -7.645  0.00  0.00    -0.354 OA
ATOM     33  C   UNL d   1      31.491 -18.572  -8.115  0.00  0.00     0.210 C 
ENDBRANCH  31  32
ENDBRANCH  23  26
ENDBRANCH   1  22
TORSDOF 6
ENDMDL
MODEL 2
REMARK VINA RESULT:    -8.633      3.934      6.659
REMARK INTER + INTRA:         -13.759
REMARK INTER:                 -10.423
REMARK INTRA:                  -3.337
REMARK CONF_INDEPENDENT:        1.790
REMARK UNBOUND:                -3.337
REMARK  6 active torsions:
REMARK  status: ('A' for Active; 'I' for Inactive)
REMARK    1  A    between atoms: O_2  and  C_3 
REMARK    2  A    between atoms: C_8  and  N_9 
REMARK       I    between atoms: N_9  and  C_10 
REMARK    3  A    between atoms: C_10  and  C_12 
REMARK    4  A    between atoms: C_17  and  N_18 
REMARK    5  A    between atoms: N_18  and  S_19 
REMARK    6  A    between atoms: S_19  and  C_22 
ROOT
ATOM      1  C   UNL d   1      26.166 -14.610  -3.166  0.00  0.00     0.059 C 
ATOM      2  C   UNL d   1      26.086 -15.191  -4.458  0.00  0.00     0.019 C 
ATOM      3  C   UNL d   1      27.075 -15.038  -5.422  0.00  0.00     0.001 C 
ATOM      4  C   UNL d   1      28.178 -14.259  -5.140  0.00  0.00     0.002 C 
ATOM      5  C   UNL d   1      28.366 -13.766  -3.850  0.00  0.00     0.031 C 
ATOM      6  C   UNL d   1      27.406 -13.940  -2.828  0.00  0.00     0.058 C 
ENDROOT
BRANCH   6   7
ATOM      7  N   UNL d   1      27.953 -13.475  -1.550  0.00  0.00    -0.280 N 
ATOM      8  H   UNL d   1      28.229 -12.511  -1.411  0.00  0.00     0.179 HD
BRANCH   7   9
ATOM      9  S   UNL d   1      27.719 -14.397  -0.238  0.00  0.00     0.263 S 
ATOM     10  O   UNL d   1      26.476 -13.848   0.325  0.00  0.00    -0.200 OA
ATOM     11  O   UNL d   1      27.924 -15.714  -0.755  0.00  0.00    -0.200 OA
BRANCH   9  12
ATOM     12  C   UNL d   1      28.775 -14.273   1.092  0.00  0.00     0.082 C 
ATOM     13  C   UNL d   1      30.149 -14.391   1.140  0.00  0.00     0.028 C 
ATOM     14  C   UNL d   1      30.778 -14.476   2.451  0.00  0.00     0.041 C 
ATOM     15  C   UNL d   1      29.972 -14.324   3.636  0.00  0.00     0.102 C 
ATOM     16  C   UNL d   1      28.689 -14.068   3.318  0.00  0.00     0.103 C 
ATOM     17  O   UNL d   1      30.011 -14.449   5.051  0.00  0.00    -0.346 OA
ATOM     18  C   UNL d   1      28.134 -13.745   2.153  0.00  0.00     0.065 C 
ATOM     19  O   UNL d   1      27.781 -14.907   3.917  0.00  0.00    -0.346 OA
ATOM     20  C   UNL d   1      27.348 -14.080   4.937  0.00  0.00     0.202 C 
ATOM     21  C   UNL d   1      28.545 -14.274   5.859  0.00  0.00     0.202 C 
ENDBRANCH   9  12
ENDBRANCH   7   9
ENDBRANCH   6   7
BRANCH   1  22
ATOM     22  C   UNL d   1      24.843 -14.930  -2.409  0.00  0.00     0.258 C 
ATOM     23  N   UNL d   1      24.878 -15.680  -1.264  0.00  0.00    -0.320 N 
ATOM     24  H   UNL d   1      25.730 -15.588  -0.723  0.00  0.00     0.169 HD
ATOM     25  O   UNL d   1      23.778 -14.474  -2.828  0.00  0.00    -0.267 OA
BRANCH  23  26
ATOM     26  C   UNL d   1      24.087 -16.831  -0.933  0.00  0.00     0.068 C 
ATOM     27  C   UNL d   1      22.663 -16.657  -0.894  0.00  0.00     0.032 C 
ATOM     28  C   UNL d   1      21.782 -17.729  -0.763  0.00  0.00     0.002 C 
ATOM     29  C   UNL d   1      22.322 -18.997  -0.697  0.00  0.00     0.003 C 
ATOM     30  C   UNL d   1      23.707 -19.152  -0.516  0.00  0.00     0.039 C 
ATOM     31  C   UNL d   1      24.603 -18.067  -0.552  0.00  0.00     0.095 C 
BRANCH  31  32
ATOM     32  O   UNL d   1      25.912 -18.399  -0.331  0.00  0.00    -0.354 OA
ATOM     33  C   UNL d   1      26.658 -17.898   0.786  0.00  0.00     0.210 C 
ENDBRANCH  31  32
ENDBRANCH  23  26
ENDBRANCH   1  22
TORSDOF 6
ENDMDL
MODEL 3
REMARK VINA RESULT:    -8.388      2.600      7.288
REMARK INTER + INTRA:         -13.252
REMARK INTER:                 -10.178
REMARK INTRA:                  -3.074
REMARK CONF_INDEPENDENT:        1.790
REMARK UNBOUND:                -3.074
REMARK  6 active torsions:
REMARK  status: ('A' for Active; 'I' for Inactive)
REMARK    1  A    between atoms: O_2  and  C_3 
REMARK    2  A    between atoms: C_8  and  N_9 
REMARK       I    between atoms: N_9  and  C_10 
REMARK    3  A    between atoms: C_10  and  C_12 
REMARK    4  A    between atoms: C_17  and  N_18 
REMARK    5  A    between atoms: N_18  and  S_19 
REMARK    6  A    between atoms: S_19  and  C_22 
ROOT
ATOM      1  C   UNL d   1      24.539 -17.744  -0.287  0.00  0.00     0.059 C 
ATOM      2  C   UNL d   1      23.907 -18.971   0.043  0.00  0.00     0.019 C 
ATOM      3  C   UNL d   1      22.549 -19.200  -0.145  0.00  0.00     0.001 C 
ATOM      4  C   UNL d   1      21.755 -18.186  -0.641  0.00  0.00     0.002 C 
ATOM      5  C   UNL d   1      22.342 -17.007  -1.093  0.00  0.00     0.031 C 
ATOM      6  C   UNL d   1      23.726 -16.754  -0.965  0.00  0.00     0.058 C 
ENDROOT
BRANCH   6   7
ATOM      7  N   UNL d   1      24.075 -15.524  -1.684  0.00  0.00    -0.280 N 
ATOM      8  H   UNL d   1      23.424 -14.753  -1.760  0.00  0.00     0.179 HD
BRANCH   7   9
ATOM      9  S   UNL d   1      25.640 -15.233  -1.984  0.00  0.00     0.263 S 
ATOM     10  O   UNL d   1      26.059 -14.464  -0.802  0.00  0.00    -0.200 OA
ATOM     11  O   UNL d   1      26.114 -16.519  -2.389  0.00  0.00    -0.200 OA
BRANCH   9  12
ATOM     12  C   UNL d   1      26.085 -14.178  -3.245  0.00  0.00     0.082 C 
ATOM     13  C   UNL d   1      25.492 -13.004  -3.661  0.00  0.00     0.028 C 
ATOM     14  C   UNL d   1      25.941 -12.426  -4.920  0.00  0.00     0.041 C 
ATOM     15  C   UNL d   1      27.050 -13.025  -5.621  0.00  0.00     0.102 C 
ATOM     16  C   UNL d   1      27.550 -14.068  -4.932  0.00  0.00     0.103 C 
ATOM     17  O   UNL d   1      27.761 -12.986  -6.850  0.00  0.00    -0.346 OA
ATOM     18  C   UNL d   1      27.326 -14.466  -3.683  0.00  0.00     0.065 C 
ATOM     19  O   UNL d   1      27.648 -15.229  -5.658  0.00  0.00    -0.346 OA
ATOM     20  C   UNL d   1      28.999 -15.199  -5.951  0.00  0.00     0.202 C 
ATOM     21  C   UNL d   1      28.925 -14.179  -7.081  0.00  0.00     0.202 C 
ENDBRANCH   9  12
ENDBRANCH   7   9
ENDBRANCH   6   7
BRANCH   1  22
ATOM     22  C   UNL d   1      26.033 -17.839   0.142  0.00  0.00     0.258 C 
ATOM     23  N   UNL d   1      26.738 -16.698   0.413  0.00  0.00    -0.320 N 
ATOM     24  H   UNL d   1      26.182 -15.933   0.777  0.00  0.00     0.169 HD
ATOM     25  O   UNL d   1      26.558 -18.947   0.270  0.00  0.00    -0.267 OA
BRANCH  23  26
ATOM     26  C   UNL d   1      28.024 -16.308  -0.093  0.00  0.00     0.068 C 
ATOM     27  C   UNL d   1      28.727 -17.264  -0.900  0.00  0.00     0.032 C 
ATOM     28  C   UNL d   1      29.892 -16.945  -1.593  0.00  0.00     0.002 C 
ATOM     29  C   UNL d   1      30.353 -15.647  -1.507  0.00  0.00     0.003 C 
ATOM     30  C   UNL d   1      29.797 -14.777  -0.554  0.00  0.00     0.039 C 
ATOM     31  C   UNL d   1      28.675 -15.118   0.223  0.00  0.00     0.095 C 
BRANCH  31  32
ATOM     32  O   UNL d   1      28.286 -14.160   1.118  0.00  0.00    -0.354 OA
ATOM     33  C   UNL d   1      28.469 -14.303   2.532  0.00  0.00     0.210 C 
ENDBRANCH  31  32
ENDBRANCH  23  26
ENDBRANCH   1  22
TORSDOF 6
ENDMDL
MODEL 4
REMARK VINA RESULT:    -8.273      2.162      7.329
REMARK INTER + INTRA:         -13.295
REMARK INTER:                 -10.063
REMARK INTRA:                  -3.232
REMARK CONF_INDEPENDENT:        1.790
REMARK UNBOUND:                -3.232
REMARK  6 active torsions:
REMARK  status: ('A' for Active; 'I' for Inactive)
REMARK    1  A    between atoms: O_2  and  C_3 
REMARK    2  A    between atoms: C_8  and  N_9 
REMARK       I    between atoms: N_9  and  C_10 
REMARK    3  A    between atoms: C_10  and  C_12 
REMARK    4  A    between atoms: C_17  and  N_18 
REMARK    5  A    between atoms: N_18  and  S_19 
REMARK    6  A    between atoms: S_19  and  C_22 
ROOT
ATOM      1  C   UNL d   1      25.800 -15.097  -2.997  0.00  0.00     0.059 C 
ATOM      2  C   UNL d   1      24.753 -15.480  -2.119  0.00  0.00     0.019 C 
ATOM      3  C   UNL d   1      24.907 -16.442  -1.127  0.00  0.00     0.001 C 
ATOM      4  C   UNL d   1      26.118 -17.090  -0.997  0.00  0.00     0.002 C 
ATOM      5  C   UNL d   1      27.212 -16.669  -1.750  0.00  0.00     0.031 C 
ATOM      6  C   UNL d   1      27.109 -15.662  -2.735  0.00  0.00     0.058 C 
ENDROOT
BRANCH   6   7
ATOM      7  N   UNL d   1      28.444 -15.311  -3.229  0.00  0.00    -0.280 N 
ATOM      8  H   UNL d   1      29.276 -15.496  -2.682  0.00  0.00     0.179 HD
BRANCH   7   9
ATOM      9  S   UNL d   1      28.622 -15.024  -4.813  0.00  0.00     0.263 S 
ATOM     10  O   UNL d   1      27.383 -15.575  -5.383  0.00  0.00    -0.200 OA
ATOM     11  O   UNL d   1      29.045 -13.659  -4.827  0.00  0.00    -0.200 OA
BRANCH   9  12
ATOM     12  C   UNL d   1      29.804 -15.865  -5.706  0.00  0.00     0.082 C 
ATOM     13  C   UNL d   1      30.415 -15.525  -6.895  0.00  0.00     0.028 C 
ATOM     14  C   UNL d   1      31.218 -16.542  -7.561  0.00  0.00     0.041 C 
ATOM     15  C   UNL d   1      31.438 -17.810  -6.911  0.00  0.00     0.102 C 
ATOM     16  C   UNL d   1      30.861 -17.835  -5.695  0.00  0.00     0.103 C 
ATOM     17  O   UNL d   1      31.964 -19.112  -7.127  0.00  0.00    -0.346 OA
ATOM     18  C   UNL d   1      30.337 -16.855  -4.965  0.00  0.00     0.065 C 
ATOM     19  O   UNL d   1      30.030 -18.909  -5.487  0.00  0.00    -0.346 OA
ATOM     20  C   UNL d   1      30.876 -19.708  -4.739  0.00  0.00     0.202 C 
ATOM     21  C   UNL d   1      31.713 -20.234  -5.898  0.00  0.00     0.202 C 
ENDBRANCH   9  12
ENDBRANCH   7   9
ENDBRANCH   6   7
BRANCH   1  22
ATOM     22  C   UNL d   1      25.225 -14.068  -4.015  0.00  0.00     0.258 C 
ATOM     23  N   UNL d   1      26.067 -13.193  -4.647  0.00  0.00    -0.320 N 
ATOM     24  H   UNL d   1      27.006 -13.541  -4.796  0.00  0.00     0.169 HD
ATOM     25  O   UNL d   1      24.019 -14.075  -4.270  0.00  0.00    -0.267 OA
BRANCH  23  26
ATOM     26  C   UNL d   1      25.936 -11.768  -4.770  0.00  0.00     0.068 C 
ATOM     27  C   UNL d   1      25.839 -11.232  -6.097  0.00  0.00     0.032 C 
ATOM     28  C   UNL d   1      25.531  -9.896  -6.343  0.00  0.00     0.002 C 
ATOM     29  C   UNL d   1      25.289  -9.084  -5.254  0.00  0.00     0.003 C 
ATOM     30  C   UNL d   1      25.595  -9.546  -3.963  0.00  0.00     0.039 C 
ATOM     31  C   UNL d   1      25.998 -10.870  -3.707  0.00  0.00     0.095 C 
BRANCH  31  32
ATOM     32  O   UNL d   1      26.280 -11.139  -2.396  0.00  0.00    -0.354 OA
ATOM     33  C   UNL d   1      27.276 -12.090  -1.998  0.00  0.00     0.210 C 
ENDBRANCH  31  32
ENDBRANCH  23  26
ENDBRANCH   1  22
TORSDOF 6
ENDMDL
MODEL 5
REMARK VINA RESULT:    -8.071      1.933      2.782
REMARK INTER + INTRA:         -13.235
REMARK INTER:                  -9.861
REMARK INTRA:                  -3.374
REMARK CONF_INDEPENDENT:        1.790
REMARK UNBOUND:                -3.374
REMARK  6 active torsions:
REMARK  status: ('A' for Active; 'I' for Inactive)
REMARK    1  A    between atoms: O_2  and  C_3 
REMARK    2  A    between atoms: C_8  and  N_9 
REMARK       I    between atoms: N_9  and  C_10 
REMARK    3  A    between atoms: C_10  and  C_12 
REMARK    4  A    between atoms: C_17  and  N_18 
REMARK    5  A    between atoms: N_18  and  S_19 
REMARK    6  A    between atoms: S_19  and  C_22 
ROOT
ATOM      1  C   UNL d   1      29.060 -13.332  -3.536  0.00  0.00     0.059 C 
ATOM      2  C   UNL d   1      29.774 -13.033  -2.346  0.00  0.00     0.019 C 
ATOM      3  C   UNL d   1      29.228 -12.305  -1.296  0.00  0.00     0.001 C 
ATOM      4  C   UNL d   1      27.945 -11.811  -1.412  0.00  0.00     0.002 C 
ATOM      5  C   UNL d   1      27.159 -12.176  -2.502  0.00  0.00     0.031 C 
ATOM      6  C   UNL d   1      27.661 -12.956  -3.568  0.00  0.00     0.058 C 
ENDROOT
BRANCH   6   7
ATOM      7  N   UNL d   1      26.567 -13.325  -4.471  0.00  0.00    -0.280 N 
ATOM      8  H   UNL d   1      26.414 -12.838  -5.345  0.00  0.00     0.179 HD
BRANCH   7   9
ATOM      9  S   UNL d   1      25.872 -14.776  -4.276  0.00  0.00     0.263 S 
ATOM     10  O   UNL d   1      24.438 -14.449  -4.265  0.00  0.00    -0.200 OA
ATOM     11  O   UNL d   1      26.568 -15.575  -5.235  0.00  0.00    -0.200 OA
BRANCH   9  12
ATOM     12  C   UNL d   1      26.038 -15.610  -2.800  0.00  0.00     0.082 C 
ATOM     13  C   UNL d   1      27.171 -15.857  -2.051  0.00  0.00     0.028 C 
ATOM     14  C   UNL d   1      27.062 -16.802  -0.948  0.00  0.00     0.041 C 
ATOM     15  C   UNL d   1      25.773 -17.352  -0.609  0.00  0.00     0.102 C 
ATOM     16  C   UNL d   1      24.807 -16.838  -1.393  0.00  0.00     0.103 C 
ATOM     17  O   UNL d   1      25.145 -18.339   0.197  0.00  0.00    -0.346 OA
ATOM     18  C   UNL d   1      24.833 -15.807  -2.233  0.00  0.00     0.065 C 
ATOM     19  O   UNL d   1      24.026 -17.779  -2.017  0.00  0.00    -0.346 OA
ATOM     20  C   UNL d   1      22.918 -17.738  -1.189  0.00  0.00     0.202 C 
ATOM     21  C   UNL d   1      23.498 -18.576  -0.057  0.00  0.00     0.202 C 
ENDBRANCH   9  12
ENDBRANCH   7   9
ENDBRANCH   6   7
BRANCH   1  22
ATOM     22  C   UNL d   1      30.024 -14.084  -4.502  0.00  0.00     0.258 C 
ATOM     23  N   UNL d   1      29.532 -15.041  -5.347  0.00  0.00    -0.320 N 
ATOM     24  H   UNL d   1      28.574 -14.892  -5.644  0.00  0.00     0.169 HD
ATOM     25  O   UNL d   1      31.219 -13.782  -4.522  0.00  0.00    -0.267 OA
BRANCH  23  26
ATOM     26  C   UNL d   1      30.015 -16.377  -5.551  0.00  0.00     0.068 C 
ATOM     27  C   UNL d   1      30.405 -16.736  -6.885  0.00  0.00     0.032 C 
ATOM     28  C   UNL d   1      31.053 -17.933  -7.178  0.00  0.00     0.002 C 
ATOM     29  C   UNL d   1      31.343 -18.778  -6.126  0.00  0.00     0.003 C 
ATOM     30  C   UNL d   1      30.774 -18.535  -4.865  0.00  0.00     0.039 C 
ATOM     31  C   UNL d   1      30.036 -17.372  -4.576  0.00  0.00     0.095 C 
BRANCH  31  32
ATOM     32  O   UNL d   1      29.535 -17.314  -3.305  0.00  0.00    -0.354 OA
ATOM     33  C   UNL d   1      30.310 -16.857  -2.189  0.00  0.00     0.210 C 
ENDBRANCH  31  32
ENDBRANCH  23  26
ENDBRANCH   1  22
TORSDOF 6
ENDMDL
MODEL 6
REMARK VINA RESULT:    -7.916      4.174      7.138
REMARK INTER + INTRA:         -13.472
REMARK INTER:                  -9.706
REMARK INTRA:                  -3.766
REMARK CONF_INDEPENDENT:        1.790
REMARK UNBOUND:                -3.766
REMARK  6 active torsions:
REMARK  status: ('A' for Active; 'I' for Inactive)
REMARK    1  A    between atoms: O_2  and  C_3 
REMARK    2  A    between atoms: C_8  and  N_9 
REMARK       I    between atoms: N_9  and  C_10 
REMARK    3  A    between atoms: C_10  and  C_12 
REMARK    4  A    between atoms: C_17  and  N_18 
REMARK    5  A    between atoms: N_18  and  S_19 
REMARK    6  A    between atoms: S_19  and  C_22 
ROOT
ATOM      1  C   UNL d   1      29.798 -15.147  -0.847  0.00  0.00     0.059 C 
ATOM      2  C   UNL d   1      29.981 -14.297  -1.968  0.00  0.00     0.019 C 
ATOM      3  C   UNL d   1      29.863 -14.736  -3.282  0.00  0.00     0.001 C 
ATOM      4  C   UNL d   1      29.590 -16.067  -3.527  0.00  0.00     0.002 C 
ATOM      5  C   UNL d   1      29.282 -16.916  -2.467  0.00  0.00     0.031 C 
ATOM      6  C   UNL d   1      29.343 -16.496  -1.120  0.00  0.00     0.058 C 
ENDROOT
BRANCH   6   7
ATOM      7  N   UNL d   1      28.798 -17.542  -0.248  0.00  0.00    -0.280 N 
ATOM      8  H   UNL d   1      29.386 -18.270   0.137  0.00  0.00     0.179 HD
BRANCH   7   9
ATOM      9  S   UNL d   1      27.352 -17.288   0.436  0.00  0.00     0.263 S 
ATOM     10  O   UNL d   1      26.851 -18.655   0.651  0.00  0.00    -0.200 OA
ATOM     11  O   UNL d   1      27.659 -16.315   1.437  0.00  0.00    -0.200 OA
BRANCH   9  12
ATOM     12  C   UNL d   1      26.085 -16.605  -0.474  0.00  0.00     0.082 C 
ATOM     13  C   UNL d   1      24.778 -17.024  -0.615  0.00  0.00     0.028 C 
ATOM     14  C   UNL d   1      23.968 -16.387  -1.645  0.00  0.00     0.041 C 
ATOM     15  C   UNL d   1      24.513 -15.282  -2.394  0.00  0.00     0.102 C 
ATOM     16  C   UNL d   1      25.750 -14.970  -1.962  0.00  0.00     0.103 C 
ATOM     17  O   UNL d   1      24.263 -14.447  -3.515  0.00  0.00    -0.346 OA
ATOM     18  C   UNL d   1      26.413 -15.363  -0.879  0.00  0.00     0.065 C 
ATOM     19  O   UNL d   1      26.698 -14.921  -2.955  0.00  0.00    -0.346 OA
ATOM     20  C   UNL d   1      26.771 -13.551  -3.130  0.00  0.00     0.202 C 
ATOM     21  C   UNL d   1      25.502 -13.400  -3.961  0.00  0.00     0.202 C 
ENDBRANCH   9  12
ENDBRANCH   7   9
ENDBRANCH   6   7
BRANCH   1  22
ATOM     22  C   UNL d   1      30.094 -14.321   0.440  0.00  0.00     0.258 C 
ATOM     23  N   UNL d   1      29.751 -14.823   1.666  0.00  0.00    -0.320 N 
ATOM     24  H   UNL d   1      29.771 -15.835   1.730  0.00  0.00     0.169 HD
ATOM     25  O   UNL d   1      30.668 -13.235   0.344  0.00  0.00    -0.267 OA
BRANCH  23  26
ATOM     26  C   UNL d   1      29.015 -14.178   2.715  0.00  0.00     0.068 C 
ATOM     27  C   UNL d   1      29.457 -14.405   4.061  0.00  0.00     0.032 C 
ATOM     28  C   UNL d   1      28.944 -13.699   5.146  0.00  0.00     0.002 C 
ATOM     29  C   UNL d   1      27.993 -12.732   4.889  0.00  0.00     0.003 C 
ATOM     30  C   UNL d   1      27.405 -12.660   3.615  0.00  0.00     0.039 C 
ATOM     31  C   UNL d   1      27.851 -13.435   2.528  0.00  0.00     0.095 C 
BRANCH  31  32
ATOM     32  O   UNL d   1      27.146 -13.255   1.370  0.00  0.00    -0.354 OA
ATOM     33  C   UNL d   1      27.396 -12.163   0.475  0.00  0.00     0.210 C 
ENDBRANCH  31  32
ENDBRANCH  23  26
ENDBRANCH   1  22
TORSDOF 6
ENDMDL
MODEL 7
REMARK VINA RESULT:    -7.850      4.712      7.515
REMARK INTER + INTRA:         -13.253
REMARK INTER:                  -9.639
REMARK INTRA:                  -3.614
REMARK CONF_INDEPENDENT:        1.790
REMARK UNBOUND:                -3.614
REMARK  6 active torsions:
REMARK  status: ('A' for Active; 'I' for Inactive)
REMARK    1  A    between atoms: O_2  and  C_3 
REMARK    2  A    between atoms: C_8  and  N_9 
REMARK       I    between atoms: N_9  and  C_10 
REMARK    3  A    between atoms: C_10  and  C_12 
REMARK    4  A    between atoms: C_17  and  N_18 
REMARK    5  A    between atoms: N_18  and  S_19 
REMARK    6  A    between atoms: S_19  and  C_22 
ROOT
ATOM      1  C   UNL d   1      25.492 -16.643  -1.423  0.00  0.00     0.059 C 
ATOM      2  C   UNL d   1      24.180 -17.112  -1.692  0.00  0.00     0.019 C 
ATOM      3  C   UNL d   1      23.518 -18.024  -0.879  0.00  0.00     0.001 C 
ATOM      4  C   UNL d   1      24.164 -18.536   0.227  0.00  0.00     0.002 C 
ATOM      5  C   UNL d   1      25.402 -18.021   0.605  0.00  0.00     0.031 C 
ATOM      6  C   UNL d   1      26.088 -17.057  -0.168  0.00  0.00     0.058 C 
ENDROOT
BRANCH   6   7
ATOM      7  N   UNL d   1      27.266 -16.580   0.563  0.00  0.00    -0.280 N 
ATOM      8  H   UNL d   1      28.040 -17.196   0.780  0.00  0.00     0.179 HD
BRANCH   7   9
ATOM      9  S   UNL d   1      27.516 -14.982   0.649  0.00  0.00     0.263 S 
ATOM     10  O   UNL d   1      28.809 -14.820  -0.032  0.00  0.00    -0.200 OA
ATOM     11  O   UNL d   1      26.252 -14.456   0.237  0.00  0.00    -0.200 OA
BRANCH   9  12
ATOM     12  C   UNL d   1      27.834 -14.247   2.152  0.00  0.00     0.082 C 
ATOM     13  C   UNL d   1      28.143 -14.825   3.366  0.00  0.00     0.028 C 
ATOM     14  C   UNL d   1      28.132 -13.971   4.547  0.00  0.00     0.041 C 
ATOM     15  C   UNL d   1      27.915 -12.554   4.396  0.00  0.00     0.102 C 
ATOM     16  C   UNL d   1      27.790 -12.221   3.097  0.00  0.00     0.103 C 
ATOM     17  O   UNL d   1      27.675 -11.365   5.134  0.00  0.00    -0.346 OA
ATOM     18  C   UNL d   1      28.034 -12.925   1.996  0.00  0.00     0.065 C 
ATOM     19  O   UNL d   1      26.658 -11.498   2.807  0.00  0.00    -0.346 OA
ATOM     20  C   UNL d   1      27.210 -10.231   2.738  0.00  0.00     0.202 C 
ATOM     21  C   UNL d   1      27.309  -9.987   4.239  0.00  0.00     0.202 C 
ENDBRANCH   9  12
ENDBRANCH   7   9
ENDBRANCH   6   7
BRANCH   1  22
ATOM     22  C   UNL d   1      25.921 -15.708  -2.592  0.00  0.00     0.258 C 
ATOM     23  N   UNL d   1      26.759 -14.653  -2.349  0.00  0.00    -0.320 N 
ATOM     24  H   UNL d   1      27.410 -14.797  -1.586  0.00  0.00     0.169 HD
ATOM     25  O   UNL d   1      25.530 -15.949  -3.736  0.00  0.00    -0.267 OA
BRANCH  23  26
ATOM     26  C   UNL d   1      26.594 -13.281  -2.738  0.00  0.00     0.068 C 
ATOM     27  C   UNL d   1      25.922 -13.029  -3.980  0.00  0.00     0.032 C 
ATOM     28  C   UNL d   1      25.543 -11.750  -4.379  0.00  0.00     0.002 C 
ATOM     29  C   UNL d   1      25.812 -10.705  -3.518  0.00  0.00     0.003 C 
ATOM     30  C   UNL d   1      26.655 -10.916  -2.415  0.00  0.00     0.039 C 
ATOM     31  C   UNL d   1      27.124 -12.192  -2.051  0.00  0.00     0.095 C 
BRANCH  31  32
ATOM     32  O   UNL d   1      27.956 -12.207  -0.965  0.00  0.00    -0.354 OA
ATOM     33  C   UNL d   1      29.209 -11.511  -0.941  0.00  0.00     0.210 C 
ENDBRANCH  31  32
ENDBRANCH  23  26
ENDBRANCH   1  22
TORSDOF 6
ENDMDL
MODEL 8
REMARK VINA RESULT:    -7.726      3.163      5.838
REMARK INTER + INTRA:         -13.493
REMARK INTER:                  -9.516
REMARK INTRA:                  -3.977
REMARK CONF_INDEPENDENT:        1.790
REMARK UNBOUND:                -3.977
REMARK  6 active torsions:
REMARK  status: ('A' for Active; 'I' for Inactive)
REMARK    1  A    between atoms: O_2  and  C_3 
REMARK    2  A    between atoms: C_8  and  N_9 
REMARK       I    between atoms: N_9  and  C_10 
REMARK    3  A    between atoms: C_10  and  C_12 
REMARK    4  A    between atoms: C_17  and  N_18 
REMARK    5  A    between atoms: N_18  and  S_19 
REMARK    6  A    between atoms: S_19  and  C_22 
ROOT
ATOM      1  C   UNL d   1      26.107 -14.083  -4.215  0.00  0.00     0.059 C 
ATOM      2  C   UNL d   1      26.953 -15.199  -4.445  0.00  0.00     0.019 C 
ATOM      3  C   UNL d   1      27.967 -15.200  -5.395  0.00  0.00     0.001 C 
ATOM      4  C   UNL d   1      28.153 -14.084  -6.185  0.00  0.00     0.002 C 
ATOM      5  C   UNL d   1      27.434 -12.921  -5.920  0.00  0.00     0.031 C 
ATOM      6  C   UNL d   1      26.427 -12.864  -4.931  0.00  0.00     0.058 C 
ENDROOT
BRANCH   6   7
ATOM      7  N   UNL d   1      25.976 -11.480  -4.760  0.00  0.00    -0.280 N 
ATOM      8  H   UNL d   1      25.097 -11.158  -5.144  0.00  0.00     0.179 HD
BRANCH   7   9
ATOM      9  S   UNL d   1      26.675 -10.586  -3.603  0.00  0.00     0.263 S 
ATOM     10  O   UNL d   1      27.521  -9.663  -4.374  0.00  0.00    -0.200 OA
ATOM     11  O   UNL d   1      25.563 -10.248  -2.771  0.00  0.00    -0.200 OA
BRANCH   9  12
ATOM     12  C   UNL d   1      27.817 -11.290  -2.554  0.00  0.00     0.082 C 
ATOM     13  C   UNL d   1      29.173 -11.476  -2.726  0.00  0.00     0.028 C 
ATOM     14  C   UNL d   1      29.870 -12.322  -1.766  0.00  0.00     0.041 C 
ATOM     15  C   UNL d   1      29.156 -12.836  -0.624  0.00  0.00     0.102 C 
ATOM     16  C   UNL d   1      27.887 -12.387  -0.606  0.00  0.00     0.103 C 
ATOM     17  O   UNL d   1      29.269 -13.746   0.461  0.00  0.00    -0.346 OA
ATOM     18  C   UNL d   1      27.296 -11.433  -1.320  0.00  0.00     0.065 C 
ATOM     19  O   UNL d   1      26.940 -13.376  -0.492  0.00  0.00    -0.346 OA
ATOM     20  C   UNL d   1      26.652 -13.259   0.856  0.00  0.00     0.202 C 
ATOM     21  C   UNL d   1      27.879 -13.998   1.376  0.00  0.00     0.202 C 
ENDBRANCH   9  12
ENDBRANCH   7   9
ENDBRANCH   6   7
BRANCH   1  22
ATOM     22  C   UNL d   1      25.050 -14.490  -3.145  0.00  0.00     0.258 C 
ATOM     23  N   UNL d   1      25.460 -14.946  -1.921  0.00  0.00    -0.320 N 
ATOM     24  H   UNL d   1      26.345 -14.568  -1.603  0.00  0.00     0.169 HD
ATOM     25  O   UNL d   1      23.851 -14.361  -3.398  0.00  0.00    -0.267 OA
BRANCH  23  26
ATOM     26  C   UNL d   1      25.039 -16.132  -1.231  0.00  0.00     0.068 C 
ATOM     27  C   UNL d   1      23.641 -16.451  -1.270  0.00  0.00     0.032 C 
ATOM     28  C   UNL d   1      23.135 -17.659  -0.796  0.00  0.00     0.002 C 
ATOM     29  C   UNL d   1      24.036 -18.578  -0.298  0.00  0.00     0.003 C 
ATOM     30  C   UNL d   1      25.364 -18.187  -0.058  0.00  0.00     0.039 C 
ATOM     31  C   UNL d   1      25.868 -16.932  -0.448  0.00  0.00     0.095 C 
BRANCH  31  32
ATOM     32  O   UNL d   1      27.175 -16.712  -0.111  0.00  0.00    -0.354 OA
ATOM     33  C   UNL d   1      28.231 -16.701  -1.081  0.00  0.00     0.210 C 
ENDBRANCH  31  32
ENDBRANCH  23  26
ENDBRANCH   1  22
TORSDOF 6
ENDMDL
MODEL 9
REMARK VINA RESULT:    -6.817      2.697      5.570
REMARK INTER + INTRA:         -13.239
REMARK INTER:                  -8.607
REMARK INTRA:                  -4.632
REMARK CONF_INDEPENDENT:        1.790
REMARK UNBOUND:                -4.632
REMARK  6 active torsions:
REMARK  status: ('A' for Active; 'I' for Inactive)
REMARK    1  A    between atoms: O_2  and  C_3 
REMARK    2  A    between atoms: C_8  and  N_9 
REMARK       I    between atoms: N_9  and  C_10 
REMARK    3  A    between atoms: C_10  and  C_12 
REMARK    4  A    between atoms: C_17  and  N_18 
REMARK    5  A    between atoms: N_18  and  S_19 
REMARK    6  A    between atoms: S_19  and  C_22 
ROOT
ATOM      1  C   UNL d   1      26.087 -12.421  -4.325  0.00  0.00     0.059 C 
ATOM      2  C   UNL d   1      25.705 -11.121  -3.904  0.00  0.00     0.019 C 
ATOM      3  C   UNL d   1      26.301  -9.961  -4.384  0.00  0.00     0.001 C 
ATOM      4  C   UNL d   1      27.340 -10.060  -5.288  0.00  0.00     0.002 C 
ATOM      5  C   UNL d   1      27.672 -11.301  -5.825  0.00  0.00     0.031 C 
ATOM      6  C   UNL d   1      27.057 -12.499  -5.399  0.00  0.00     0.058 C 
ENDROOT
BRANCH   6   7
ATOM      7  N   UNL d   1      27.479 -13.608  -6.260  0.00  0.00    -0.280 N 
ATOM      8  H   UNL d   1      27.811 -13.449  -7.203  0.00  0.00     0.179 HD
BRANCH   7   9
ATOM      9  S   UNL d   1      27.816 -15.031  -5.563  0.00  0.00     0.263 S 
ATOM     10  O   UNL d   1      26.480 -15.575  -5.277  0.00  0.00    -0.200 OA
ATOM     11  O   UNL d   1      28.799 -15.575  -6.447  0.00  0.00    -0.200 OA
BRANCH   9  12
ATOM     12  C   UNL d   1      28.535 -15.076  -4.020  0.00  0.00     0.082 C 
ATOM     13  C   UNL d   1      28.941 -16.161  -3.270  0.00  0.00     0.028 C 
ATOM     14  C   UNL d   1      29.307 -15.926  -1.880  0.00  0.00     0.041 C 
ATOM     15  C   UNL d   1      29.341 -14.576  -1.373  0.00  0.00     0.102 C 
ATOM     16  C   UNL d   1      29.050 -13.689  -2.342  0.00  0.00     0.103 C 
ATOM     17  O   UNL d   1      29.470 -13.825  -0.174  0.00  0.00    -0.346 OA
ATOM     18  C   UNL d   1      28.953 -13.848  -3.659  0.00  0.00     0.065 C 
ATOM     19  O   UNL d   1      28.044 -12.811  -2.020  0.00  0.00    -0.346 OA
ATOM     20  C   UNL d   1      28.806 -11.704  -1.692  0.00  0.00     0.202 C 
ATOM     21  C   UNL d   1      29.219 -12.165  -0.300  0.00  0.00     0.202 C 
ENDBRANCH   9  12
ENDBRANCH   7   9
ENDBRANCH   6   7
BRANCH   1  22
ATOM     22  C   UNL d   1      25.258 -13.457  -3.509  0.00  0.00     0.258 C 
ATOM     23  N   UNL d   1      25.520 -13.642  -2.178  0.00  0.00    -0.320 N 
ATOM     24  H   UNL d   1      25.871 -12.821  -1.697  0.00  0.00     0.169 HD
ATOM     25  O   UNL d   1      24.347 -14.075  -4.062  0.00  0.00    -0.267 OA
BRANCH  23  26
ATOM     26  C   UNL d   1      25.739 -14.877  -1.481  0.00  0.00     0.068 C 
ATOM     27  C   UNL d   1      25.229 -16.072  -2.089  0.00  0.00     0.032 C 
ATOM     28  C   UNL d   1      25.530 -17.344  -1.608  0.00  0.00     0.002 C 
ATOM     29  C   UNL d   1      26.373 -17.433  -0.520  0.00  0.00     0.003 C 
ATOM     30  C   UNL d   1      26.695 -16.273   0.205  0.00  0.00     0.039 C 
ATOM     31  C   UNL d   1      26.319 -14.985  -0.218  0.00  0.00     0.095 C 
BRANCH  31  32
ATOM     32  O   UNL d   1      26.694 -13.974   0.623  0.00  0.00    -0.354 OA
ATOM     33  C   UNL d   1      27.405 -14.210   1.845  0.00  0.00     0.210 C 
ENDBRANCH  31  32
ENDBRANCH  23  26
ENDBRANCH   1  22
TORSDOF 6
ENDMDL
