MODEL 1
REMARK VINA RESULT:   -31.515      0.000      0.000
REMARK INTER + INTRA:         -33.035
REMARK INTER:                 -32.708
REMARK INTRA:                  -0.326
REMARK CONF_INDEPENDENT:        1.193
REMARK UNBOUND:                -0.326
REMARK  4 active torsions:
REMARK  status: ('A' for Active; 'I' for Inactive)
REMARK       I    between atoms: C_2  and  N_3 
REMARK    1  A    between atoms: C_2  and  C_11 
REMARK    2  A    between atoms: N_3  and  C_4 
REMARK    3  A    between atoms: C_7  and  O_8 
REMARK    4  A    between atoms: C_13  and  C_14 
ROOT
ATOM      1  C   UNL d   1      24.507 -16.251  -1.513  0.00  0.00     0.047 A 
ATOM      2  C   UNL d   1      23.246 -16.807  -1.308  0.00  0.00     0.050 A 
ATOM      3  C   UNL d   1      23.142 -17.955  -0.532  0.00  0.00     0.070 A 
ATOM      4  N   UNL d   1      24.212 -18.547   0.046  0.00  0.00    -0.247 NA
ATOM      5  C   UNL d   1      25.437 -18.039  -0.172  0.00  0.00     0.068 A 
ATOM      6  C   UNL d   1      26.534 -18.677   0.406  0.00  0.00     0.032 A 
ATOM      7  C   UNL d   1      27.839 -18.215   0.230  0.00  0.00     0.002 A 
ATOM      8  C   UNL d   1      28.065 -17.092  -0.549  0.00  0.00     0.001 A 
ATOM      9  C   UNL d   1      26.985 -16.433  -1.132  0.00  0.00     0.015 A 
ATOM     10  C   UNL d   1      25.653 -16.884  -0.959  0.00  0.00     0.008 A 
ENDROOT
BRANCH   1  11
ATOM     11  C   UNL d   1      24.615 -15.047  -2.395  0.00  0.00     0.257 C 
ATOM     12  O   UNL d   1      23.579 -14.452  -2.695  0.00  0.00    -0.267 OA
ATOM     13  N   UNL d   1      25.882 -14.706  -2.868  0.00  0.00    -0.323 N 
ATOM     14  H   UNL d   1      26.630 -15.384  -2.782  0.00  0.00     0.169 HD
BRANCH  13  15
ATOM     15  C   UNL d   1      26.071 -13.647  -3.798  0.00  0.00     0.035 A 
ATOM     16  C   UNL d   1      26.816 -13.835  -4.970  0.00  0.00     0.032 A 
ATOM     17  C   UNL d   1      27.027 -12.783  -5.870  0.00  0.00     0.039 A 
ATOM     18  C   UNL d   1      26.505 -11.529  -5.587  0.00  0.00     0.065 A 
ATOM     19  C   UNL d   1      25.763 -11.322  -4.428  0.00  0.00     0.039 A 
ATOM     20  C   UNL d   1      25.520 -12.386  -3.546  0.00  0.00     0.032 A 
BRANCH  18  21
ATOM     21  O   UNL d   1      26.692 -10.464  -6.419  0.00  0.00    -0.361 OA
ATOM     22  H   UNL d   1      25.845 -10.229  -6.833  0.00  0.00     0.217 HD
ENDBRANCH  18  21
ENDBRANCH  13  15
ENDBRANCH   1  11
BRANCH   3  23
ATOM     23  C   UNL d   1      21.846 -18.593  -0.302  0.00  0.00     0.010 A 
ATOM     24  C   UNL d   1      21.405 -18.950   0.978  0.00  0.00     0.017 A 
ATOM     25  C   UNL d   1      20.123 -19.472   1.153  0.00  0.00     0.020 A 
ATOM     26  C   UNL d   1      19.319 -19.634   0.037  0.00  0.00     0.116 A 
ATOM     27  N   UNL d   1      19.709 -19.325  -1.217  0.00  0.00    -0.272 NA
ATOM     28  C   UNL d   1      20.960 -18.825  -1.354  0.00  0.00     0.130 A 
ENDBRANCH   3  23
TORSDOF 4
ENDMDL
MODEL 2
REMARK VINA RESULT:   -29.115      3.138      5.499
REMARK INTER + INTRA:         -30.928
REMARK INTER:                 -30.308
REMARK INTRA:                  -0.620
REMARK CONF_INDEPENDENT:        1.193
REMARK UNBOUND:                -0.620
REMARK  4 active torsions:
REMARK  status: ('A' for Active; 'I' for Inactive)
REMARK       I    between atoms: C_2  and  N_3 
REMARK    1  A    between atoms: C_2  and  C_11 
REMARK    2  A    between atoms: N_3  and  C_4 
REMARK    3  A    between atoms: C_7  and  O_8 
REMARK    4  A    between atoms: C_13  and  C_14 
ROOT
ATOM      1  C   UNL d   1      25.730 -17.018  -0.750  0.00  0.00     0.047 A 
ATOM      2  C   UNL d   1      24.617 -17.753  -0.351  0.00  0.00     0.050 A 
ATOM      3  C   UNL d   1      23.362 -17.357  -0.797  0.00  0.00     0.070 A 
ATOM      4  N   UNL d   1      23.176 -16.296  -1.615  0.00  0.00    -0.247 NA
ATOM      5  C   UNL d   1      24.240 -15.559  -1.979  0.00  0.00     0.068 A 
ATOM      6  C   UNL d   1      24.030 -14.451  -2.799  0.00  0.00     0.032 A 
ATOM      7  C   UNL d   1      25.078 -13.632  -3.223  0.00  0.00     0.002 A 
ATOM      8  C   UNL d   1      26.371 -13.916  -2.816  0.00  0.00     0.001 A 
ATOM      9  C   UNL d   1      26.608 -15.022  -2.002  0.00  0.00     0.015 A 
ATOM     10  C   UNL d   1      25.557 -15.867  -1.568  0.00  0.00     0.008 A 
ENDROOT
BRANCH   1  11
ATOM     11  C   UNL d   1      27.071 -17.419  -0.220  0.00  0.00     0.257 C 
ATOM     12  O   UNL d   1      27.126 -17.909   0.908  0.00  0.00    -0.267 OA
ATOM     13  N   UNL d   1      28.184 -17.160  -1.020  0.00  0.00    -0.323 N 
ATOM     14  H   UNL d   1      28.078 -16.534  -1.810  0.00  0.00     0.169 HD
BRANCH  13  15
ATOM     15  C   UNL d   1      29.507 -17.404  -0.560  0.00  0.00     0.035 A 
ATOM     16  C   UNL d   1      30.186 -16.465   0.229  0.00  0.00     0.032 A 
ATOM     17  C   UNL d   1      31.499 -16.693   0.657  0.00  0.00     0.039 A 
ATOM     18  C   UNL d   1      32.146 -17.861   0.278  0.00  0.00     0.065 A 
ATOM     19  C   UNL d   1      31.489 -18.805  -0.505  0.00  0.00     0.039 A 
ATOM     20  C   UNL d   1      30.160 -18.593  -0.901  0.00  0.00     0.032 A 
BRANCH  18  21
ATOM     21  O   UNL d   1      33.430 -18.130   0.652  0.00  0.00    -0.361 OA
ATOM     22  H   UNL d   1      33.495 -18.098   1.621  0.00  0.00     0.217 HD
ENDBRANCH  18  21
ENDBRANCH  13  15
ENDBRANCH   1  11
BRANCH   3  23
ATOM     23  C   UNL d   1      22.157 -18.081  -0.391  0.00  0.00     0.010 A 
ATOM     24  C   UNL d   1      21.990 -18.588   0.903  0.00  0.00     0.017 A 
ATOM     25  C   UNL d   1      20.785 -19.190   1.265  0.00  0.00     0.020 A 
ATOM     26  C   UNL d   1      19.781 -19.281   0.316  0.00  0.00     0.116 A 
ATOM     27  N   UNL d   1      19.904 -18.826  -0.949  0.00  0.00    -0.272 NA
ATOM     28  C   UNL d   1      21.088 -18.251  -1.270  0.00  0.00     0.130 A 
ENDBRANCH   3  23
TORSDOF 4
ENDMDL
