MODEL 1
REMARK VINA RESULT:   -11.063      0.000      0.000
REMARK INTER + INTRA:         -15.675
REMARK INTER:                 -13.449
REMARK INTRA:                  -2.225
REMARK CONF_INDEPENDENT:        2.386
REMARK UNBOUND:                -2.225
REMARK  8 active torsions:
REMARK  status: ('A' for Active; 'I' for Inactive)
REMARK    1  A    between atoms: C_2  and  O_3 
REMARK    2  A    between atoms: O_3  and  C_4 
REMARK    3  A    between atoms: C_7  and  N_8 
REMARK       I    between atoms: N_8  and  C_9 
REMARK       I    between atoms: C_9  and  N_23 
REMARK       I    between atoms: N_10  and  C_11 
REMARK    4  A    between atoms: C_11  and  C_13 
REMARK    5  A    between atoms: C_17  and  N_18 
REMARK       I    between atoms: N_18  and  C_19 
REMARK    6  A    between atoms: N_23  and  C_24 
REMARK    7  A    between atoms: C_24  and  C_25 
REMARK    8  A    between atoms: C_25  and  C_26 
ROOT
ATOM      1  N   UNL d   1      25.981 -17.649   0.127  0.00  0.00    -0.190 N 
ATOM      2  C   UNL d   1      27.051 -16.768  -0.157  0.00  0.00     0.704 C 
ATOM      3  N   UNL d   1      27.100 -15.717  -0.935  0.00  0.00    -0.023 NA
ATOM      4  C   UNL d   1      26.239 -15.695  -2.010  0.00  0.00     0.294 C 
ATOM      5  O   UNL d   1      26.133 -16.631  -2.770  0.00  0.00    -0.265 OA
ATOM      6  N   UNL d   1      28.263 -17.047   0.504  0.00  0.00    -0.224 N 
ATOM      7  H   UNL d   1      26.220 -18.547   0.522  0.00  0.00     0.184 HD
ATOM      8  H   UNL d   1      28.419 -17.966   0.904  0.00  0.00     0.177 HD
ENDROOT
BRANCH   1   9
ATOM      9  C   UNL d   1      24.629 -17.607  -0.363  0.00  0.00     0.049 C 
ATOM     10  C   UNL d   1      23.788 -16.499  -0.336  0.00  0.00     0.033 C 
ATOM     11  C   UNL d   1      22.374 -16.639  -0.538  0.00  0.00     0.039 C 
ATOM     12  C   UNL d   1      21.773 -17.890  -0.644  0.00  0.00     0.068 C 
ATOM     13  C   UNL d   1      22.622 -18.949  -0.720  0.00  0.00     0.039 C 
ATOM     14  C   UNL d   1      23.996 -18.718  -0.881  0.00  0.00     0.033 C 
BRANCH  12  15
ATOM     15  O   UNL d   1      20.436 -18.012  -0.895  0.00  0.00    -0.352 OA
BRANCH  15  16
ATOM     16  C   UNL d   1      19.872 -19.337  -0.886  0.00  0.00     0.171 C 
ATOM     17  C   UNL d   1      19.540 -19.705   0.552  0.00  0.00     0.034 C 
ENDBRANCH  15  16
ENDBRANCH  12  15
ENDBRANCH   1   9
BRANCH   6  18
ATOM     18  C   UNL d   1      29.478 -16.258   0.171  0.00  0.00     0.142 C 
BRANCH  18  19
ATOM     19  C   UNL d   1      29.415 -14.779   0.550  0.00  0.00     0.057 C 
BRANCH  19  20
ATOM     20  C   UNL d   1      30.058 -14.361   1.856  0.00  0.00    -0.048 A 
ATOM     21  C   UNL d   1      29.324 -14.242   2.966  0.00  0.00    -0.006 A 
ATOM     22  C   UNL d   1      27.938 -14.450   3.185  0.00  0.00     0.014 A 
ATOM     23  C   UNL d   1      30.219 -13.764   4.027  0.00  0.00     0.038 A 
ATOM     24  C   UNL d   1      27.421 -14.095   4.366  0.00  0.00     0.001 A 
ATOM     25  C   UNL d   1      28.272 -13.637   5.454  0.00  0.00     0.002 A 
ATOM     26  C   UNL d   1      29.606 -13.468   5.343  0.00  0.00     0.030 A 
ATOM     27  N   UNL d   1      31.425 -13.669   3.612  0.00  0.00    -0.385 N 
ATOM     28  C   UNL d   1      31.492 -13.994   2.148  0.00  0.00     0.155 A 
ATOM     29  H   UNL d   1      32.197 -13.409   4.228  0.00  0.00     0.160 HD
ENDBRANCH  19  20
ENDBRANCH  18  19
ENDBRANCH   6  18
BRANCH   4  30
ATOM     30  C   UNL d   1      25.737 -14.345  -2.493  0.00  0.00     0.036 C 
ATOM     31  C   UNL d   1      25.251 -13.853  -3.706  0.00  0.00     0.017 C 
ATOM     32  C   UNL d   1      25.530 -12.522  -4.070  0.00  0.00     0.003 C 
ATOM     33  C   UNL d   1      26.280 -11.695  -3.214  0.00  0.00     0.029 C 
ATOM     34  C   UNL d   1      26.713 -12.204  -1.992  0.00  0.00     0.035 C 
ATOM     35  C   UNL d   1      26.279 -13.446  -1.633  0.00  0.00     0.046 C 
BRANCH  34  36
ATOM     36  N   UNL d   1      27.563 -11.535  -1.105  0.00  0.00    -0.327 N 
ATOM     37  C   UNL d   1      27.578 -11.517   0.272  0.00  0.00     0.218 C 
ATOM     38  C   UNL d   1      26.659 -12.319   1.203  0.00  0.00     0.117 C 
ATOM     39  O   UNL d   1      28.392 -10.757   0.813  0.00  0.00    -0.274 OA
ATOM     40  H   UNL d   1      28.325 -11.005  -1.512  0.00  0.00     0.169 HD
ENDBRANCH  34  36
ENDBRANCH   4  30
TORSDOF 8
ENDMDL
MODEL 2
REMARK VINA RESULT:   -10.506      1.197      1.672
REMARK INTER + INTRA:         -15.265
REMARK INTER:                 -12.893
REMARK INTRA:                  -2.372
REMARK CONF_INDEPENDENT:        2.386
REMARK UNBOUND:                -2.372
REMARK  8 active torsions:
REMARK  status: ('A' for Active; 'I' for Inactive)
REMARK    1  A    between atoms: C_2  and  O_3 
REMARK    2  A    between atoms: O_3  and  C_4 
REMARK    3  A    between atoms: C_7  and  N_8 
REMARK       I    between atoms: N_8  and  C_9 
REMARK       I    between atoms: C_9  and  N_23 
REMARK       I    between atoms: N_10  and  C_11 
REMARK    4  A    between atoms: C_11  and  C_13 
REMARK    5  A    between atoms: C_17  and  N_18 
REMARK       I    between atoms: N_18  and  C_19 
REMARK    6  A    between atoms: N_23  and  C_24 
REMARK    7  A    between atoms: C_24  and  C_25 
REMARK    8  A    between atoms: C_25  and  C_26 
ROOT
ATOM      1  N   UNL d   1      26.530 -17.106   0.203  0.00  0.00    -0.190 N 
ATOM      2  C   UNL d   1      27.496 -16.140  -0.162  0.00  0.00     0.704 C 
ATOM      3  N   UNL d   1      27.432 -15.164  -1.032  0.00  0.00    -0.023 NA
ATOM      4  C   UNL d   1      26.582 -15.336  -2.102  0.00  0.00     0.294 C 
ATOM      5  O   UNL d   1      26.587 -16.343  -2.774  0.00  0.00    -0.265 OA
ATOM      6  N   UNL d   1      28.727 -16.220   0.517  0.00  0.00    -0.224 N 
ATOM      7  H   UNL d   1      26.867 -17.933   0.676  0.00  0.00     0.184 HD
ATOM      8  H   UNL d   1      28.983 -17.076   0.998  0.00  0.00     0.177 HD
ENDROOT
BRANCH   1   9
ATOM      9  C   UNL d   1      25.186 -17.262  -0.284  0.00  0.00     0.049 C 
ATOM     10  C   UNL d   1      24.284 -16.230  -0.525  0.00  0.00     0.033 C 
ATOM     11  C   UNL d   1      22.883 -16.496  -0.689  0.00  0.00     0.039 C 
ATOM     12  C   UNL d   1      22.354 -17.769  -0.493  0.00  0.00     0.068 C 
ATOM     13  C   UNL d   1      23.262 -18.765  -0.312  0.00  0.00     0.039 C 
ATOM     14  C   UNL d   1      24.624 -18.499  -0.522  0.00  0.00     0.033 C 
BRANCH  12  15
ATOM     15  O   UNL d   1      21.031 -18.025  -0.709  0.00  0.00    -0.352 OA
BRANCH  15  16
ATOM     16  C   UNL d   1      20.627 -19.401  -0.836  0.00  0.00     0.171 C 
ATOM     17  C   UNL d   1      19.663 -19.723   0.295  0.00  0.00     0.034 C 
ENDBRANCH  15  16
ENDBRANCH  12  15
ENDBRANCH   1   9
BRANCH   6  18
ATOM     18  C   UNL d   1      29.848 -15.332   0.110  0.00  0.00     0.142 C 
BRANCH  18  19
ATOM     19  C   UNL d   1      29.963 -14.029   0.901  0.00  0.00     0.057 C 
BRANCH  19  20
ATOM     20  C   UNL d   1      28.808 -13.655   1.807  0.00  0.00    -0.048 A 
ATOM     21  C   UNL d   1      28.877 -13.881   3.122  0.00  0.00    -0.006 A 
ATOM     22  C   UNL d   1      29.911 -14.449   3.910  0.00  0.00     0.014 A 
ATOM     23  C   UNL d   1      27.590 -13.474   3.699  0.00  0.00     0.038 A 
ATOM     24  C   UNL d   1      29.656 -14.717   5.195  0.00  0.00     0.001 A 
ATOM     25  C   UNL d   1      28.404 -14.313   5.815  0.00  0.00     0.002 A 
ATOM     26  C   UNL d   1      27.394 -13.716   5.148  0.00  0.00     0.030 A 
ATOM     27  N   UNL d   1      26.819 -12.970   2.811  0.00  0.00    -0.385 N 
ATOM     28  C   UNL d   1      27.469 -13.053   1.460  0.00  0.00     0.155 A 
ATOM     29  H   UNL d   1      25.905 -12.576   3.039  0.00  0.00     0.160 HD
ENDBRANCH  19  20
ENDBRANCH  18  19
ENDBRANCH   6  18
BRANCH   4  30
ATOM     30  C   UNL d   1      25.934 -14.101  -2.703  0.00  0.00     0.036 C 
ATOM     31  C   UNL d   1      25.399 -13.779  -3.952  0.00  0.00     0.017 C 
ATOM     32  C   UNL d   1      25.530 -12.465  -4.439  0.00  0.00     0.003 C 
ATOM     33  C   UNL d   1      26.182 -11.484  -3.669  0.00  0.00     0.029 C 
ATOM     34  C   UNL d   1      26.666 -11.827  -2.409  0.00  0.00     0.035 C 
ATOM     35  C   UNL d   1      26.372 -13.071  -1.934  0.00  0.00     0.046 C 
BRANCH  34  36
ATOM     36  N   UNL d   1      27.434 -10.990  -1.594  0.00  0.00    -0.327 N 
ATOM     37  C   UNL d   1      28.763 -11.066  -1.240  0.00  0.00     0.218 C 
ATOM     38  C   UNL d   1      29.779 -12.105  -1.733  0.00  0.00     0.117 C 
ATOM     39  O   UNL d   1      29.172 -10.233  -0.419  0.00  0.00    -0.274 OA
ATOM     40  H   UNL d   1      26.978 -10.163  -1.226  0.00  0.00     0.169 HD
ENDBRANCH  34  36
ENDBRANCH   4  30
TORSDOF 8
ENDMDL
MODEL 3
REMARK VINA RESULT:    -9.743      3.049      7.946
REMARK INTER + INTRA:         -15.202
REMARK INTER:                 -12.130
REMARK INTRA:                  -3.072
REMARK CONF_INDEPENDENT:        2.386
REMARK UNBOUND:                -3.072
REMARK  8 active torsions:
REMARK  status: ('A' for Active; 'I' for Inactive)
REMARK    1  A    between atoms: C_2  and  O_3 
REMARK    2  A    between atoms: O_3  and  C_4 
REMARK    3  A    between atoms: C_7  and  N_8 
REMARK       I    between atoms: N_8  and  C_9 
REMARK       I    between atoms: C_9  and  N_23 
REMARK       I    between atoms: N_10  and  C_11 
REMARK    4  A    between atoms: C_11  and  C_13 
REMARK    5  A    between atoms: C_17  and  N_18 
REMARK       I    between atoms: N_18  and  C_19 
REMARK    6  A    between atoms: N_23  and  C_24 
REMARK    7  A    between atoms: C_24  and  C_25 
REMARK    8  A    between atoms: C_25  and  C_26 
ROOT
ATOM      1  N   UNL d   1      29.451 -14.623   3.350  0.00  0.00    -0.190 N 
ATOM      2  C   UNL d   1      29.023 -14.279   2.047  0.00  0.00     0.704 C 
ATOM      3  N   UNL d   1      28.297 -13.273   1.631  0.00  0.00    -0.023 NA
ATOM      4  C   UNL d   1      27.393 -12.743   2.525  0.00  0.00     0.294 C 
ATOM      5  O   UNL d   1      26.622 -13.437   3.150  0.00  0.00    -0.265 OA
ATOM      6  N   UNL d   1      29.445 -15.142   1.017  0.00  0.00    -0.224 N 
ATOM      7  H   UNL d   1      29.756 -15.575   3.495  0.00  0.00     0.184 HD
ATOM      8  H   UNL d   1      29.769 -16.076   1.245  0.00  0.00     0.177 HD
ENDROOT
BRANCH   1   9
ATOM      9  C   UNL d   1      29.210 -13.929   4.587  0.00  0.00     0.049 C 
ATOM     10  C   UNL d   1      28.081 -14.066   5.389  0.00  0.00     0.033 C 
ATOM     11  C   UNL d   1      27.782 -13.106   6.414  0.00  0.00     0.039 C 
ATOM     12  C   UNL d   1      28.532 -11.943   6.565  0.00  0.00     0.068 C 
ATOM     13  C   UNL d   1      29.657 -11.862   5.805  0.00  0.00     0.039 C 
ATOM     14  C   UNL d   1      30.086 -12.991   5.091  0.00  0.00     0.033 C 
BRANCH  12  15
ATOM     15  O   UNL d   1      28.277 -11.065   7.579  0.00  0.00    -0.352 OA
BRANCH  15  16
ATOM     16  C   UNL d   1      29.081 -11.164   8.769  0.00  0.00     0.171 C 
ATOM     17  C   UNL d   1      28.465 -12.217   9.676  0.00  0.00     0.034 C 
ENDBRANCH  15  16
ENDBRANCH  12  15
ENDBRANCH   1   9
BRANCH   6  18
ATOM     18  C   UNL d   1      28.939 -14.938  -0.365  0.00  0.00     0.142 C 
BRANCH  18  19
ATOM     19  C   UNL d   1      27.435 -15.141  -0.542  0.00  0.00     0.057 C 
BRANCH  19  20
ATOM     20  C   UNL d   1      26.880 -16.528  -0.288  0.00  0.00    -0.048 A 
ATOM     21  C   UNL d   1      25.585 -16.789  -0.491  0.00  0.00    -0.006 A 
ATOM     22  C   UNL d   1      24.532 -15.950  -0.941  0.00  0.00     0.014 A 
ATOM     23  C   UNL d   1      25.356 -18.183  -0.095  0.00  0.00     0.038 A 
ATOM     24  C   UNL d   1      23.282 -16.421  -0.898  0.00  0.00     0.001 A 
ATOM     25  C   UNL d   1      23.010 -17.802  -0.533  0.00  0.00     0.002 A 
ATOM     26  C   UNL d   1      23.961 -18.680  -0.149  0.00  0.00     0.030 A 
ATOM     27  N   UNL d   1      26.447 -18.753   0.255  0.00  0.00    -0.385 N 
ATOM     28  C   UNL d   1      27.576 -17.764   0.227  0.00  0.00     0.155 A 
ATOM     29  H   UNL d   1      26.492 -19.742   0.505  0.00  0.00     0.160 HD
ENDBRANCH  19  20
ENDBRANCH  18  19
ENDBRANCH   6  18
BRANCH   4  30
ATOM     30  C   UNL d   1      27.068 -11.263   2.417  0.00  0.00     0.036 C 
ATOM     31  C   UNL d   1      27.054 -10.333   1.376  0.00  0.00     0.017 C 
ATOM     32  C   UNL d   1      27.410  -8.997   1.642  0.00  0.00     0.003 C 
ATOM     33  C   UNL d   1      27.764  -8.603   2.946  0.00  0.00     0.029 C 
ATOM     34  C   UNL d   1      27.726  -9.547   3.970  0.00  0.00     0.035 C 
ATOM     35  C   UNL d   1      27.225 -10.781   3.676  0.00  0.00     0.046 C 
BRANCH  34  36
ATOM     36  N   UNL d   1      28.165  -9.322   5.278  0.00  0.00    -0.327 N 
ATOM     37  C   UNL d   1      29.237  -8.595   5.746  0.00  0.00     0.218 C 
ATOM     38  C   UNL d   1      30.212  -7.765   4.901  0.00  0.00     0.117 C 
ATOM     39  O   UNL d   1      29.454  -8.639   6.964  0.00  0.00    -0.274 OA
ATOM     40  H   UNL d   1      27.599  -9.709   6.025  0.00  0.00     0.169 HD
ENDBRANCH  34  36
ENDBRANCH   4  30
TORSDOF 8
ENDMDL
MODEL 4
REMARK VINA RESULT:    -9.257      2.819      4.792
REMARK INTER + INTRA:         -15.240
REMARK INTER:                 -11.643
REMARK INTRA:                  -3.597
REMARK CONF_INDEPENDENT:        2.386
REMARK UNBOUND:                -3.597
REMARK  8 active torsions:
REMARK  status: ('A' for Active; 'I' for Inactive)
REMARK    1  A    between atoms: C_2  and  O_3 
REMARK    2  A    between atoms: O_3  and  C_4 
REMARK    3  A    between atoms: C_7  and  N_8 
REMARK       I    between atoms: N_8  and  C_9 
REMARK       I    between atoms: C_9  and  N_23 
REMARK       I    between atoms: N_10  and  C_11 
REMARK    4  A    between atoms: C_11  and  C_13 
REMARK    5  A    between atoms: C_17  and  N_18 
REMARK       I    between atoms: N_18  and  C_19 
REMARK    6  A    between atoms: N_23  and  C_24 
REMARK    7  A    between atoms: C_24  and  C_25 
REMARK    8  A    between atoms: C_25  and  C_26 
ROOT
ATOM      1  N   UNL d   1      26.245 -17.149   0.371  0.00  0.00    -0.190 N 
ATOM      2  C   UNL d   1      27.253 -16.225   0.008  0.00  0.00     0.704 C 
ATOM      3  N   UNL d   1      27.274 -15.323  -0.941  0.00  0.00    -0.023 NA
ATOM      4  C   UNL d   1      26.509 -15.575  -2.058  0.00  0.00     0.294 C 
ATOM      5  O   UNL d   1      26.552 -16.633  -2.644  0.00  0.00    -0.265 OA
ATOM      6  N   UNL d   1      28.425 -16.261   0.788  0.00  0.00    -0.224 N 
ATOM      7  H   UNL d   1      26.529 -17.937   0.935  0.00  0.00     0.184 HD
ATOM      8  H   UNL d   1      28.627 -17.077   1.356  0.00  0.00     0.177 HD
ENDROOT
BRANCH   1   9
ATOM      9  C   UNL d   1      24.942 -17.331  -0.209  0.00  0.00     0.049 C 
ATOM     10  C   UNL d   1      24.034 -16.318  -0.502  0.00  0.00     0.033 C 
ATOM     11  C   UNL d   1      22.654 -16.614  -0.765  0.00  0.00     0.039 C 
ATOM     12  C   UNL d   1      22.144 -17.902  -0.618  0.00  0.00     0.068 C 
ATOM     13  C   UNL d   1      23.061 -18.878  -0.383  0.00  0.00     0.039 C 
ATOM     14  C   UNL d   1      24.427 -18.578  -0.496  0.00  0.00     0.033 C 
BRANCH  12  15
ATOM     15  O   UNL d   1      20.845 -18.186  -0.926  0.00  0.00    -0.352 OA
BRANCH  15  16
ATOM     16  C   UNL d   1      20.436 -19.566  -0.890  0.00  0.00     0.171 C 
ATOM     17  C   UNL d   1      19.535 -19.766   0.319  0.00  0.00     0.034 C 
ENDBRANCH  15  16
ENDBRANCH  12  15
ENDBRANCH   1   9
BRANCH   6  18
ATOM     18  C   UNL d   1      29.589 -15.420   0.403  0.00  0.00     0.142 C 
BRANCH  18  19
ATOM     19  C   UNL d   1      30.476 -16.005  -0.696  0.00  0.00     0.057 C 
BRANCH  19  20
ATOM     20  C   UNL d   1      30.558 -15.249  -2.006  0.00  0.00    -0.048 A 
ATOM     21  C   UNL d   1      30.346 -15.877  -3.166  0.00  0.00    -0.006 A 
ATOM     22  C   UNL d   1      30.027 -17.233  -3.439  0.00  0.00     0.014 A 
ATOM     23  C   UNL d   1      30.563 -14.896  -4.236  0.00  0.00     0.038 A 
ATOM     24  C   UNL d   1      30.032 -17.642  -4.712  0.00  0.00     0.001 A 
ATOM     25  C   UNL d   1      30.221 -16.702  -5.805  0.00  0.00     0.002 A 
ATOM     26  C   UNL d   1      30.471 -15.388  -5.631  0.00  0.00     0.030 A 
ATOM     27  N   UNL d   1      30.818 -13.736  -3.761  0.00  0.00    -0.385 N 
ATOM     28  C   UNL d   1      30.897 -13.801  -2.263  0.00  0.00     0.155 A 
ATOM     29  H   UNL d   1      30.937 -12.915  -4.355  0.00  0.00     0.160 HD
ENDBRANCH  19  20
ENDBRANCH  18  19
ENDBRANCH   6  18
BRANCH   4  30
ATOM     30  C   UNL d   1      25.932 -14.386  -2.808  0.00  0.00     0.036 C 
ATOM     31  C   UNL d   1      24.751 -14.147  -3.513  0.00  0.00     0.017 C 
ATOM     32  C   UNL d   1      24.780 -13.300  -4.637  0.00  0.00     0.003 C 
ATOM     33  C   UNL d   1      25.984 -12.692  -5.037  0.00  0.00     0.029 C 
ATOM     34  C   UNL d   1      27.135 -12.917  -4.285  0.00  0.00     0.035 C 
ATOM     35  C   UNL d   1      27.007 -13.620  -3.124  0.00  0.00     0.046 C 
BRANCH  34  36
ATOM     36  N   UNL d   1      28.415 -12.476  -4.635  0.00  0.00    -0.327 N 
ATOM     37  C   UNL d   1      29.010 -12.357  -5.872  0.00  0.00     0.218 C 
ATOM     38  C   UNL d   1      28.350 -12.634  -7.230  0.00  0.00     0.117 C 
ATOM     39  O   UNL d   1      30.202 -12.023  -5.890  0.00  0.00    -0.274 OA
ATOM     40  H   UNL d   1      29.008 -12.143  -3.883  0.00  0.00     0.169 HD
ENDBRANCH  34  36
ENDBRANCH   4  30
TORSDOF 8
ENDMDL
MODEL 5
REMARK VINA RESULT:    -9.182      2.527      4.198
REMARK INTER + INTRA:         -15.511
REMARK INTER:                 -11.568
REMARK INTRA:                  -3.943
REMARK CONF_INDEPENDENT:        2.386
REMARK UNBOUND:                -3.943
REMARK  8 active torsions:
REMARK  status: ('A' for Active; 'I' for Inactive)
REMARK    1  A    between atoms: C_2  and  O_3 
REMARK    2  A    between atoms: O_3  and  C_4 
REMARK    3  A    between atoms: C_7  and  N_8 
REMARK       I    between atoms: N_8  and  C_9 
REMARK       I    between atoms: C_9  and  N_23 
REMARK       I    between atoms: N_10  and  C_11 
REMARK    4  A    between atoms: C_11  and  C_13 
REMARK    5  A    between atoms: C_17  and  N_18 
REMARK       I    between atoms: N_18  and  C_19 
REMARK    6  A    between atoms: N_23  and  C_24 
REMARK    7  A    between atoms: C_24  and  C_25 
REMARK    8  A    between atoms: C_25  and  C_26 
ROOT
ATOM      1  N   UNL d   1      25.878 -17.611   0.162  0.00  0.00    -0.190 N 
ATOM      2  C   UNL d   1      26.944 -16.733  -0.142  0.00  0.00     0.704 C 
ATOM      3  N   UNL d   1      26.994 -15.711  -0.957  0.00  0.00    -0.023 NA
ATOM      4  C   UNL d   1      26.145 -15.736  -2.042  0.00  0.00     0.294 C 
ATOM      5  O   UNL d   1      26.055 -16.700  -2.768  0.00  0.00    -0.265 OA
ATOM      6  N   UNL d   1      28.151 -16.978   0.542  0.00  0.00    -0.224 N 
ATOM      7  H   UNL d   1      26.120 -18.493   0.592  0.00  0.00     0.184 HD
ATOM      8  H   UNL d   1      28.309 -17.880   0.977  0.00  0.00     0.177 HD
ENDROOT
BRANCH   1   9
ATOM      9  C   UNL d   1      24.532 -17.599  -0.343  0.00  0.00     0.049 C 
ATOM     10  C   UNL d   1      23.661 -16.514  -0.311  0.00  0.00     0.033 C 
ATOM     11  C   UNL d   1      22.254 -16.688  -0.533  0.00  0.00     0.039 C 
ATOM     12  C   UNL d   1      21.687 -17.953  -0.664  0.00  0.00     0.068 C 
ATOM     13  C   UNL d   1      22.565 -18.989  -0.744  0.00  0.00     0.039 C 
ATOM     14  C   UNL d   1      23.934 -18.718  -0.884  0.00  0.00     0.033 C 
BRANCH  12  15
ATOM     15  O   UNL d   1      20.357 -18.107  -0.932  0.00  0.00    -0.352 OA
BRANCH  15  16
ATOM     16  C   UNL d   1      19.815 -19.440  -0.883  0.00  0.00     0.171 C 
ATOM     17  C   UNL d   1      19.514 -19.781   0.568  0.00  0.00     0.034 C 
ENDBRANCH  15  16
ENDBRANCH  12  15
ENDBRANCH   1   9
BRANCH   6  18
ATOM     18  C   UNL d   1      29.364 -16.192   0.193  0.00  0.00     0.142 C 
BRANCH  18  19
ATOM     19  C   UNL d   1      29.812 -16.301  -1.263  0.00  0.00     0.057 C 
BRANCH  19  20
ATOM     20  C   UNL d   1      29.984 -15.014  -2.043  0.00  0.00    -0.048 A 
ATOM     21  C   UNL d   1      29.495 -14.899  -3.281  0.00  0.00    -0.006 A 
ATOM     22  C   UNL d   1      28.778 -15.825  -4.081  0.00  0.00     0.014 A 
ATOM     23  C   UNL d   1      29.883 -13.574  -3.779  0.00  0.00     0.038 A 
ATOM     24  C   UNL d   1      28.548 -15.514  -5.361  0.00  0.00     0.001 A 
ATOM     25  C   UNL d   1      28.894 -14.205  -5.892  0.00  0.00     0.002 A 
ATOM     26  C   UNL d   1      29.525 -13.248  -5.179  0.00  0.00     0.030 A 
ATOM     27  N   UNL d   1      30.501 -12.902  -2.883  0.00  0.00    -0.385 N 
ATOM     28  C   UNL d   1      30.697 -13.742  -1.654  0.00  0.00     0.155 A 
ATOM     29  H   UNL d   1      30.795 -11.935  -3.029  0.00  0.00     0.160 HD
ENDBRANCH  19  20
ENDBRANCH  18  19
ENDBRANCH   6  18
BRANCH   4  30
ATOM     30  C   UNL d   1      25.638 -14.408  -2.579  0.00  0.00     0.036 C 
ATOM     31  C   UNL d   1      24.879 -14.020  -3.686  0.00  0.00     0.017 C 
ATOM     32  C   UNL d   1      25.152 -12.788  -4.309  0.00  0.00     0.003 C 
ATOM     33  C   UNL d   1      26.170 -11.953  -3.815  0.00  0.00     0.029 C 
ATOM     34  C   UNL d   1      26.879 -12.350  -2.683  0.00  0.00     0.035 C 
ATOM     35  C   UNL d   1      26.463 -13.477  -2.038  0.00  0.00     0.046 C 
BRANCH  34  36
ATOM     36  N   UNL d   1      27.988 -11.678  -2.160  0.00  0.00    -0.327 N 
ATOM     37  C   UNL d   1      28.720 -10.631  -2.675  0.00  0.00     0.218 C 
ATOM     38  C   UNL d   1      28.435  -9.875  -3.980  0.00  0.00     0.117 C 
ATOM     39  O   UNL d   1      29.724 -10.284  -2.039  0.00  0.00    -0.274 OA
ATOM     40  H   UNL d   1      28.300 -11.957  -1.237  0.00  0.00     0.169 HD
ENDBRANCH  34  36
ENDBRANCH   4  30
TORSDOF 8
ENDMDL
MODEL 6
REMARK VINA RESULT:    -8.891      2.197      3.739
REMARK INTER + INTRA:         -14.775
REMARK INTER:                 -11.278
REMARK INTRA:                  -3.497
REMARK CONF_INDEPENDENT:        2.386
REMARK UNBOUND:                -3.497
REMARK  8 active torsions:
REMARK  status: ('A' for Active; 'I' for Inactive)
REMARK    1  A    between atoms: C_2  and  O_3 
REMARK    2  A    between atoms: O_3  and  C_4 
REMARK    3  A    between atoms: C_7  and  N_8 
REMARK       I    between atoms: N_8  and  C_9 
REMARK       I    between atoms: C_9  and  N_23 
REMARK       I    between atoms: N_10  and  C_11 
REMARK    4  A    between atoms: C_11  and  C_13 
REMARK    5  A    between atoms: C_17  and  N_18 
REMARK       I    between atoms: N_18  and  C_19 
REMARK    6  A    between atoms: N_23  and  C_24 
REMARK    7  A    between atoms: C_24  and  C_25 
REMARK    8  A    between atoms: C_25  and  C_26 
ROOT
ATOM      1  N   UNL d   1      27.441 -17.449  -0.932  0.00  0.00    -0.190 N 
ATOM      2  C   UNL d   1      28.461 -16.507  -0.662  0.00  0.00     0.704 C 
ATOM      3  N   UNL d   1      28.409 -15.355  -0.043  0.00  0.00    -0.023 NA
ATOM      4  C   UNL d   1      27.209 -14.680  -0.081  0.00  0.00     0.294 C 
ATOM      5  O   UNL d   1      26.605 -14.497  -1.114  0.00  0.00    -0.265 OA
ATOM      6  N   UNL d   1      29.748 -16.852  -1.119  0.00  0.00    -0.224 N 
ATOM      7  H   UNL d   1      27.625 -18.127  -1.659  0.00  0.00     0.184 HD
ATOM      8  H   UNL d   1      29.855 -17.567  -1.831  0.00  0.00     0.177 HD
ENDROOT
BRANCH   1   9
ATOM      9  C   UNL d   1      26.051 -17.396  -0.570  0.00  0.00     0.049 C 
ATOM     10  C   UNL d   1      25.467 -18.042   0.516  0.00  0.00     0.033 C 
ATOM     11  C   UNL d   1      24.044 -18.200   0.605  0.00  0.00     0.039 C 
ATOM     12  C   UNL d   1      23.202 -17.827  -0.440  0.00  0.00     0.068 C 
ATOM     13  C   UNL d   1      23.791 -17.152  -1.462  0.00  0.00     0.039 C 
ATOM     14  C   UNL d   1      25.116 -16.714  -1.321  0.00  0.00     0.033 C 
BRANCH  12  15
ATOM     15  O   UNL d   1      21.845 -17.926  -0.323  0.00  0.00    -0.352 OA
BRANCH  15  16
ATOM     16  C   UNL d   1      21.220 -19.136  -0.789  0.00  0.00     0.171 C 
ATOM     17  C   UNL d   1      20.287 -19.643   0.299  0.00  0.00     0.034 C 
ENDBRANCH  15  16
ENDBRANCH  12  15
ENDBRANCH   1   9
BRANCH   6  18
ATOM     18  C   UNL d   1      30.857 -15.869  -0.999  0.00  0.00     0.142 C 
BRANCH  18  19
ATOM     19  C   UNL d   1      31.822 -16.119   0.159  0.00  0.00     0.057 C 
BRANCH  19  20
ATOM     20  C   UNL d   1      31.644 -15.287   1.413  0.00  0.00    -0.048 A 
ATOM     21  C   UNL d   1      31.236 -14.017   1.332  0.00  0.00    -0.006 A 
ATOM     22  C   UNL d   1      30.903 -13.223   0.204  0.00  0.00     0.014 A 
ATOM     23  C   UNL d   1      31.229 -13.476   2.696  0.00  0.00     0.038 A 
ATOM     24  C   UNL d   1      30.682 -11.917   0.390  0.00  0.00     0.001 A 
ATOM     25  C   UNL d   1      30.643 -11.342   1.725  0.00  0.00     0.002 A 
ATOM     26  C   UNL d   1      30.892 -12.042   2.852  0.00  0.00     0.030 A 
ATOM     27  N   UNL d   1      31.540 -14.373   3.554  0.00  0.00    -0.385 N 
ATOM     28  C   UNL d   1      31.897 -15.652   2.854  0.00  0.00     0.155 A 
ATOM     29  H   UNL d   1      31.530 -14.196   4.560  0.00  0.00     0.160 HD
ENDBRANCH  19  20
ENDBRANCH  18  19
ENDBRANCH   6  18
BRANCH   4  30
ATOM     30  C   UNL d   1      26.852 -13.795   1.101  0.00  0.00     0.036 C 
ATOM     31  C   UNL d   1      26.489 -12.455   1.253  0.00  0.00     0.017 C 
ATOM     32  C   UNL d   1      26.899 -11.757   2.404  0.00  0.00     0.003 C 
ATOM     33  C   UNL d   1      27.657 -12.406   3.396  0.00  0.00     0.029 C 
ATOM     34  C   UNL d   1      27.965 -13.755   3.234  0.00  0.00     0.035 C 
ATOM     35  C   UNL d   1      27.409 -14.410   2.175  0.00  0.00     0.046 C 
BRANCH  34  36
ATOM     36  N   UNL d   1      28.807 -14.488   4.077  0.00  0.00    -0.327 N 
ATOM     37  C   UNL d   1      29.137 -14.289   5.399  0.00  0.00     0.218 C 
ATOM     38  C   UNL d   1      28.579 -13.197   6.322  0.00  0.00     0.117 C 
ATOM     39  O   UNL d   1      29.989 -15.045   5.883  0.00  0.00    -0.274 OA
ATOM     40  H   UNL d   1      29.221 -15.330   3.693  0.00  0.00     0.169 HD
ENDBRANCH  34  36
ENDBRANCH   4  30
TORSDOF 8
ENDMDL
MODEL 7
REMARK VINA RESULT:    -8.855      3.332      5.162
REMARK INTER + INTRA:         -15.134
REMARK INTER:                 -11.242
REMARK INTRA:                  -3.892
REMARK CONF_INDEPENDENT:        2.386
REMARK UNBOUND:                -3.892
REMARK  8 active torsions:
REMARK  status: ('A' for Active; 'I' for Inactive)
REMARK    1  A    between atoms: C_2  and  O_3 
REMARK    2  A    between atoms: O_3  and  C_4 
REMARK    3  A    between atoms: C_7  and  N_8 
REMARK       I    between atoms: N_8  and  C_9 
REMARK       I    between atoms: C_9  and  N_23 
REMARK       I    between atoms: N_10  and  C_11 
REMARK    4  A    between atoms: C_11  and  C_13 
REMARK    5  A    between atoms: C_17  and  N_18 
REMARK       I    between atoms: N_18  and  C_19 
REMARK    6  A    between atoms: N_23  and  C_24 
REMARK    7  A    between atoms: C_24  and  C_25 
REMARK    8  A    between atoms: C_25  and  C_26 
ROOT
ATOM      1  N   UNL d   1      27.336 -16.300   0.745  0.00  0.00    -0.190 N 
ATOM      2  C   UNL d   1      28.396 -15.498   0.262  0.00  0.00     0.704 C 
ATOM      3  N   UNL d   1      28.634 -15.042  -0.942  0.00  0.00    -0.023 NA
ATOM      4  C   UNL d   1      28.152 -15.785  -1.997  0.00  0.00     0.294 C 
ATOM      5  O   UNL d   1      28.336 -16.979  -2.082  0.00  0.00    -0.265 OA
ATOM      6  N   UNL d   1      29.354 -15.109   1.218  0.00  0.00    -0.224 N 
ATOM      7  H   UNL d   1      27.485 -16.772   1.625  0.00  0.00     0.184 HD
ATOM      8  H   UNL d   1      29.422 -15.613   2.096  0.00  0.00     0.177 HD
ENDROOT
BRANCH   1   9
ATOM      9  C   UNL d   1      26.205 -16.822   0.026  0.00  0.00     0.049 C 
ATOM     10  C   UNL d   1      25.320 -16.078  -0.748  0.00  0.00     0.033 C 
ATOM     11  C   UNL d   1      24.053 -16.620  -1.149  0.00  0.00     0.039 C 
ATOM     12  C   UNL d   1      23.607 -17.854  -0.682  0.00  0.00     0.068 C 
ATOM     13  C   UNL d   1      24.511 -18.579   0.027  0.00  0.00     0.039 C 
ATOM     14  C   UNL d   1      25.847 -18.153   0.077  0.00  0.00     0.033 C 
BRANCH  12  15
ATOM     15  O   UNL d   1      22.427 -18.388  -1.115  0.00  0.00    -0.352 OA
BRANCH  15  16
ATOM     16  C   UNL d   1      21.564 -18.988  -0.131  0.00  0.00     0.171 C 
ATOM     17  C   UNL d   1      20.221 -19.276  -0.784  0.00  0.00     0.034 C 
ENDBRANCH  15  16
ENDBRANCH  12  15
ENDBRANCH   1   9
BRANCH   6  18
ATOM     18  C   UNL d   1      30.571 -14.376   0.782  0.00  0.00     0.142 C 
BRANCH  18  19
ATOM     19  C   UNL d   1      31.745 -15.260   0.361  0.00  0.00     0.057 C 
BRANCH  19  20
ATOM     20  C   UNL d   1      31.790 -15.727  -1.080  0.00  0.00    -0.048 A 
ATOM     21  C   UNL d   1      31.500 -16.993  -1.392  0.00  0.00    -0.006 A 
ATOM     22  C   UNL d   1      31.121 -18.085  -0.569  0.00  0.00     0.014 A 
ATOM     23  C   UNL d   1      31.698 -17.139  -2.839  0.00  0.00     0.038 A 
ATOM     24  C   UNL d   1      31.049 -19.301  -1.120  0.00  0.00     0.001 A 
ATOM     25  C   UNL d   1      31.217 -19.490  -2.553  0.00  0.00     0.002 A 
ATOM     26  C   UNL d   1      31.522 -18.493  -3.411  0.00  0.00     0.030 A 
ATOM     27  N   UNL d   1      32.016 -16.024  -3.380  0.00  0.00    -0.385 N 
ATOM     28  C   UNL d   1      32.166 -14.965  -2.326  0.00  0.00     0.155 A 
ATOM     29  H   UNL d   1      32.135 -15.919  -4.388  0.00  0.00     0.160 HD
ENDBRANCH  19  20
ENDBRANCH  18  19
ENDBRANCH   6  18
BRANCH   4  30
ATOM     30  C   UNL d   1      27.760 -15.048  -3.266  0.00  0.00     0.036 C 
ATOM     31  C   UNL d   1      26.576 -14.899  -3.991  0.00  0.00     0.017 C 
ATOM     32  C   UNL d   1      26.636 -14.796  -5.394  0.00  0.00     0.003 C 
ATOM     33  C   UNL d   1      27.877 -14.831  -6.056  0.00  0.00     0.029 C 
ATOM     34  C   UNL d   1      29.042 -14.937  -5.299  0.00  0.00     0.035 C 
ATOM     35  C   UNL d   1      28.924 -14.877  -3.942  0.00  0.00     0.046 C 
BRANCH  34  36
ATOM     36  N   UNL d   1      30.325 -15.103  -5.830  0.00  0.00    -0.327 N 
ATOM     37  C   UNL d   1      30.982 -16.244  -6.235  0.00  0.00     0.218 C 
ATOM     38  C   UNL d   1      30.405 -17.665  -6.260  0.00  0.00     0.117 C 
ATOM     39  O   UNL d   1      32.163 -16.116  -6.585  0.00  0.00    -0.274 OA
ATOM     40  H   UNL d   1      30.866 -14.261  -5.994  0.00  0.00     0.169 HD
ENDBRANCH  34  36
ENDBRANCH   4  30
TORSDOF 8
ENDMDL
MODEL 8
REMARK VINA RESULT:    -8.768      2.605      4.266
REMARK INTER + INTRA:         -15.134
REMARK INTER:                 -11.154
REMARK INTRA:                  -3.980
REMARK CONF_INDEPENDENT:        2.386
REMARK UNBOUND:                -3.980
REMARK  8 active torsions:
REMARK  status: ('A' for Active; 'I' for Inactive)
REMARK    1  A    between atoms: C_2  and  O_3 
REMARK    2  A    between atoms: O_3  and  C_4 
REMARK    3  A    between atoms: C_7  and  N_8 
REMARK       I    between atoms: N_8  and  C_9 
REMARK       I    between atoms: C_9  and  N_23 
REMARK       I    between atoms: N_10  and  C_11 
REMARK    4  A    between atoms: C_11  and  C_13 
REMARK    5  A    between atoms: C_17  and  N_18 
REMARK       I    between atoms: N_18  and  C_19 
REMARK    6  A    between atoms: N_23  and  C_24 
REMARK    7  A    between atoms: C_24  and  C_25 
REMARK    8  A    between atoms: C_25  and  C_26 
ROOT
ATOM      1  N   UNL d   1      28.152 -16.048   0.975  0.00  0.00    -0.190 N 
ATOM      2  C   UNL d   1      29.396 -15.561   0.512  0.00  0.00     0.704 C 
ATOM      3  N   UNL d   1      29.871 -15.466  -0.704  0.00  0.00    -0.023 NA
ATOM      4  C   UNL d   1      29.403 -16.373  -1.629  0.00  0.00     0.294 C 
ATOM      5  O   UNL d   1      29.371 -17.562  -1.407  0.00  0.00    -0.265 OA
ATOM      6  N   UNL d   1      30.275 -15.088   1.506  0.00  0.00    -0.224 N 
ATOM      7  H   UNL d   1      28.093 -16.298   1.952  0.00  0.00     0.184 HD
ATOM      8  H   UNL d   1      30.133 -15.357   2.474  0.00  0.00     0.177 HD
ENDROOT
BRANCH   1   9
ATOM      9  C   UNL d   1      27.048 -16.563   0.210  0.00  0.00     0.049 C 
ATOM     10  C   UNL d   1      26.240 -15.824  -0.650  0.00  0.00     0.033 C 
ATOM     11  C   UNL d   1      24.981 -16.339  -1.106  0.00  0.00     0.039 C 
ATOM     12  C   UNL d   1      24.461 -17.534  -0.615  0.00  0.00     0.068 C 
ATOM     13  C   UNL d   1      25.293 -18.259   0.180  0.00  0.00     0.039 C 
ATOM     14  C   UNL d   1      26.638 -17.877   0.295  0.00  0.00     0.033 C 
BRANCH  12  15
ATOM     15  O   UNL d   1      23.291 -18.046  -1.098  0.00  0.00    -0.352 OA
BRANCH  15  16
ATOM     16  C   UNL d   1      22.332 -18.539  -0.144  0.00  0.00     0.171 C 
ATOM     17  C   UNL d   1      21.076 -18.949  -0.895  0.00  0.00     0.034 C 
ENDBRANCH  15  16
ENDBRANCH  12  15
ENDBRANCH   1   9
BRANCH   6  18
ATOM     18  C   UNL d   1      31.654 -14.678   1.132  0.00  0.00     0.142 C 
BRANCH  18  19
ATOM     19  C   UNL d   1      31.811 -13.207   0.747  0.00  0.00     0.057 C 
BRANCH  19  20
ATOM     20  C   UNL d   1      31.190 -12.754  -0.559  0.00  0.00    -0.048 A 
ATOM     21  C   UNL d   1      29.888 -12.459  -0.624  0.00  0.00    -0.006 A 
ATOM     22  C   UNL d   1      28.883 -12.483   0.377  0.00  0.00     0.014 A 
ATOM     23  C   UNL d   1      29.590 -12.124  -2.022  0.00  0.00     0.038 A 
ATOM     24  C   UNL d   1      27.612 -12.300   0.005  0.00  0.00     0.001 A 
ATOM     25  C   UNL d   1      27.271 -11.945  -1.364  0.00  0.00     0.002 A 
ATOM     26  C   UNL d   1      28.175 -11.844  -2.361  0.00  0.00     0.030 A 
ATOM     27  N   UNL d   1      30.647 -12.143  -2.742  0.00  0.00    -0.385 N 
ATOM     28  C   UNL d   1      31.820 -12.595  -1.920  0.00  0.00     0.155 A 
ATOM     29  H   UNL d   1      30.643 -11.878  -3.727  0.00  0.00     0.160 HD
ENDBRANCH  19  20
ENDBRANCH  18  19
ENDBRANCH   6  18
BRANCH   4  30
ATOM     30  C   UNL d   1      29.324 -15.932  -3.081  0.00  0.00     0.036 C 
ATOM     31  C   UNL d   1      30.158 -15.208  -3.936  0.00  0.00     0.017 C 
ATOM     32  C   UNL d   1      29.584 -14.374  -4.914  0.00  0.00     0.003 C 
ATOM     33  C   UNL d   1      28.186 -14.282  -5.036  0.00  0.00     0.029 C 
ATOM     34  C   UNL d   1      27.383 -15.051  -4.196  0.00  0.00     0.035 C 
ATOM     35  C   UNL d   1      28.000 -15.950  -3.378  0.00  0.00     0.046 C 
BRANCH  34  36
ATOM     36  N   UNL d   1      25.989 -14.966  -4.128  0.00  0.00    -0.327 N 
ATOM     37  C   UNL d   1      25.162 -13.865  -4.107  0.00  0.00     0.218 C 
ATOM     38  C   UNL d   1      25.598 -12.398  -4.225  0.00  0.00     0.117 C 
ATOM     39  O   UNL d   1      23.953 -14.075  -3.948  0.00  0.00    -0.274 OA
ATOM     40  H   UNL d   1      25.475 -15.840  -4.137  0.00  0.00     0.169 HD
ENDBRANCH  34  36
ENDBRANCH   4  30
TORSDOF 8
ENDMDL
MODEL 9
REMARK VINA RESULT:    -8.557      2.567      7.193
REMARK INTER + INTRA:         -14.659
REMARK INTER:                 -10.944
REMARK INTRA:                  -3.715
REMARK CONF_INDEPENDENT:        2.386
REMARK UNBOUND:                -3.715
REMARK  8 active torsions:
REMARK  status: ('A' for Active; 'I' for Inactive)
REMARK    1  A    between atoms: C_2  and  O_3 
REMARK    2  A    between atoms: O_3  and  C_4 
REMARK    3  A    between atoms: C_7  and  N_8 
REMARK       I    between atoms: N_8  and  C_9 
REMARK       I    between atoms: C_9  and  N_23 
REMARK       I    between atoms: N_10  and  C_11 
REMARK    4  A    between atoms: C_11  and  C_13 
REMARK    5  A    between atoms: C_17  and  N_18 
REMARK       I    between atoms: N_18  and  C_19 
REMARK    6  A    between atoms: N_23  and  C_24 
REMARK    7  A    between atoms: C_24  and  C_25 
REMARK    8  A    between atoms: C_25  and  C_26 
ROOT
ATOM      1  N   UNL d   1      29.883 -14.821   2.423  0.00  0.00    -0.190 N 
ATOM      2  C   UNL d   1      29.443 -15.150   1.120  0.00  0.00     0.704 C 
ATOM      3  N   UNL d   1      28.630 -14.515   0.315  0.00  0.00    -0.023 NA
ATOM      4  C   UNL d   1      27.667 -13.722   0.898  0.00  0.00     0.294 C 
ATOM      5  O   UNL d   1      26.957 -14.122   1.793  0.00  0.00    -0.265 OA
ATOM      6  N   UNL d   1      29.960 -16.345   0.583  0.00  0.00    -0.224 N 
ATOM      7  H   UNL d   1      30.276 -15.570   2.976  0.00  0.00     0.184 HD
ATOM      8  H   UNL d   1      30.369 -17.039   1.200  0.00  0.00     0.177 HD
ENDROOT
BRANCH   1   9
ATOM      9  C   UNL d   1      29.560 -13.666   3.216  0.00  0.00     0.049 C 
ATOM     10  C   UNL d   1      28.649 -13.631   4.268  0.00  0.00     0.033 C 
ATOM     11  C   UNL d   1      28.154 -12.383   4.776  0.00  0.00     0.039 C 
ATOM     12  C   UNL d   1      28.464 -11.172   4.163  0.00  0.00     0.068 C 
ATOM     13  C   UNL d   1      29.394 -11.231   3.173  0.00  0.00     0.039 C 
ATOM     14  C   UNL d   1      30.104 -12.423   2.969  0.00  0.00     0.033 C 
BRANCH  12  15
ATOM     15  O   UNL d   1      28.036  -9.986   4.687  0.00  0.00    -0.352 OA
BRANCH  15  16
ATOM     16  C   UNL d   1      28.994  -9.190   5.410  0.00  0.00     0.171 C 
ATOM     17  C   UNL d   1      29.038  -9.683   6.847  0.00  0.00     0.034 C 
ENDBRANCH  15  16
ENDBRANCH  12  15
ENDBRANCH   1   9
BRANCH   6  18
ATOM     18  C   UNL d   1      29.457 -16.840  -0.725  0.00  0.00     0.142 C 
BRANCH  18  19
ATOM     19  C   UNL d   1      28.085 -17.513  -0.679  0.00  0.00     0.057 C 
BRANCH  19  20
ATOM     20  C   UNL d   1      26.888 -16.695  -1.116  0.00  0.00    -0.048 A 
ATOM     21  C   UNL d   1      25.656 -17.032  -0.724  0.00  0.00    -0.006 A 
ATOM     22  C   UNL d   1      25.206 -18.097   0.098  0.00  0.00     0.014 A 
ATOM     23  C   UNL d   1      24.725 -16.094  -1.364  0.00  0.00     0.038 A 
ATOM     24  C   UNL d   1      23.890 -18.309   0.199  0.00  0.00     0.001 A 
ATOM     25  C   UNL d   1      22.931 -17.394  -0.399  0.00  0.00     0.002 A 
ATOM     26  C   UNL d   1      23.278 -16.325  -1.147  0.00  0.00     0.030 A 
ATOM     27  N   UNL d   1      25.351 -15.205  -2.039  0.00  0.00    -0.385 N 
ATOM     28  C   UNL d   1      26.825 -15.486  -2.017  0.00  0.00     0.155 A 
ATOM     29  H   UNL d   1      24.872 -14.433  -2.504  0.00  0.00     0.160 HD
ENDBRANCH  19  20
ENDBRANCH  18  19
ENDBRANCH   6  18
BRANCH   4  30
ATOM     30  C   UNL d   1      27.203 -12.490   0.139  0.00  0.00     0.036 C 
ATOM     31  C   UNL d   1      27.456 -11.963  -1.129  0.00  0.00     0.017 C 
ATOM     32  C   UNL d   1      27.493 -10.567  -1.300  0.00  0.00     0.003 C 
ATOM     33  C   UNL d   1      27.265  -9.712  -0.206  0.00  0.00     0.029 C 
ATOM     34  C   UNL d   1      26.973 -10.270   1.037  0.00  0.00     0.035 C 
ATOM     35  C   UNL d   1      26.801 -11.621   1.100  0.00  0.00     0.046 C 
BRANCH  34  36
ATOM     36  N   UNL d   1      26.845  -9.546   2.226  0.00  0.00    -0.327 N 
ATOM     37  C   UNL d   1      26.636  -8.200   2.432  0.00  0.00     0.218 C 
ATOM     38  C   UNL d   1      26.418  -7.136   1.348  0.00  0.00     0.117 C 
ATOM     39  O   UNL d   1      26.655  -7.804   3.605  0.00  0.00    -0.274 OA
ATOM     40  H   UNL d   1      26.863 -10.076   3.090  0.00  0.00     0.169 HD
ENDBRANCH  34  36
ENDBRANCH   4  30
TORSDOF 8
ENDMDL
