MODEL 1
REMARK VINA RESULT:   -10.642      0.000      0.000
REMARK INTER + INTRA:         -14.545
REMARK INTER:                 -13.326
REMARK INTRA:                  -1.219
REMARK CONF_INDEPENDENT:        2.685
REMARK UNBOUND:                -1.219
REMARK  9 active torsions:
REMARK  status: ('A' for Active; 'I' for Inactive)
REMARK    1  A    between atoms: O_2  and  C_3 
REMARK    2  A    between atoms: C_9  and  C_10 
REMARK    3  A    between atoms: C_10  and  C_11 
REMARK    4  A    between atoms: C_11  and  N_12 
REMARK       I    between atoms: N_12  and  C_13 
REMARK    5  A    between atoms: C_13  and  C_15 
REMARK    6  A    between atoms: C_15  and  C_16 
REMARK    7  A    between atoms: C_17  and  C_16 
REMARK    8  A    between atoms: C_20  and  C_21 
REMARK       I    between atoms: C_21  and  N_23 
REMARK    9  A    between atoms: N_23  and  C_24 
ROOT
ATOM      1  C   UNL d   1      25.367 -15.554  -2.668  0.00  0.00     0.105 C 
ENDROOT
BRANCH   1   2
ATOM      2  C   UNL d   1      26.024 -15.276  -3.979  0.00  0.00     0.217 C 
ATOM      3  N   UNL d   1      27.393 -15.441  -3.938  0.00  0.00    -0.361 N 
ATOM      4  H   UNL d   1      27.857 -15.718  -3.079  0.00  0.00     0.162 HD
ATOM      5  O   UNL d   1      25.425 -14.902  -4.988  0.00  0.00    -0.274 OA
BRANCH   3   6
ATOM      6  C   UNL d   1      28.140 -15.157  -5.126  0.00  0.00     0.127 C 
BRANCH   6   7
ATOM      7  C   UNL d   1      29.648 -15.221  -4.933  0.00  0.00     0.056 C 
BRANCH   7   8
ATOM      8  C   UNL d   1      30.337 -15.992  -6.016  0.00  0.00    -0.048 A 
ATOM      9  C   UNL d   1      30.504 -17.319  -6.054  0.00  0.00    -0.003 A 
ATOM     10  C   UNL d   1      31.228 -17.577  -7.311  0.00  0.00     0.039 A 
ATOM     11  C   UNL d   1      30.131 -18.383  -5.182  0.00  0.00     0.050 A 
ATOM     12  C   UNL d   1      31.552 -18.976  -7.639  0.00  0.00     0.033 A 
ATOM     13  N   UNL d   1      31.473 -16.502  -7.960  0.00  0.00    -0.385 N 
ATOM     14  C   UNL d   1      31.169 -19.928  -6.763  0.00  0.00     0.039 A 
ATOM     15  C   UNL d   1      30.469 -19.641  -5.510  0.00  0.00     0.069 A 
ATOM     16  C   UNL d   1      30.945 -15.337  -7.228  0.00  0.00     0.155 A 
ATOM     17  H   UNL d   1      31.963 -16.473  -8.851  0.00  0.00     0.160 HD
BRANCH  15  18
ATOM     18  O   UNL d   1      30.027 -20.685  -4.727  0.00  0.00    -0.356 OA
ATOM     19  C   UNL d   1      30.997 -21.664  -4.357  0.00  0.00     0.210 C 
ENDBRANCH  15  18
ENDBRANCH   7   8
ENDBRANCH   6   7
ENDBRANCH   3   6
ENDBRANCH   1   2
BRANCH   1  20
ATOM     20  C   UNL d   1      25.898 -16.809  -1.973  0.00  0.00     0.041 C 
BRANCH  20  21
ATOM     21  C   UNL d   1      25.232 -17.128  -0.621  0.00  0.00     0.135 C 
ATOM     22  N   UNL d   1      24.386 -16.042  -0.118  0.00  0.00    -0.245 NA
ATOM     23  N   UNL d   1      22.951 -16.258  -0.424  0.00  0.00    -0.237 NA
ATOM     24  H   UNL d   1      24.758 -15.123  -0.366  0.00  0.00     0.142 HD
ATOM     25  C   UNL d   1      22.759 -17.538  -1.133  0.00  0.00     0.226 C 
ATOM     26  H   UNL d   1      22.549 -15.486  -0.956  0.00  0.00     0.142 HD
ATOM     27  S   UNL d   1      24.198 -18.573  -0.819  0.00  0.00    -0.117 SA
BRANCH  25  28
ATOM     28  C   UNL d   1      21.464 -18.274  -0.796  0.00  0.00     0.251 C 
ATOM     29  O   UNL d   1      20.369 -17.865  -1.183  0.00  0.00    -0.270 OA
ATOM     30  N   UNL d   1      21.615 -19.334   0.121  0.00  0.00    -0.325 N 
ATOM     31  H   UNL d   1      22.488 -19.445   0.617  0.00  0.00     0.169 HD
BRANCH  30  32
ATOM     32  C   UNL d   1      20.464 -19.931   0.690  0.00  0.00     0.034 C 
ATOM     33  C   UNL d   1      19.473 -20.443  -0.148  0.00  0.00     0.029 C 
ATOM     34  C   UNL d   1      18.240 -20.831   0.357  0.00  0.00     0.002 C 
ATOM     35  C   UNL d   1      18.030 -20.825   1.729  0.00  0.00     0.000 C 
ATOM     36  C   UNL d   1      19.063 -20.447   2.590  0.00  0.00     0.002 C 
ATOM     37  C   UNL d   1      20.275 -19.965   2.074  0.00  0.00     0.029 C 
ENDBRANCH  30  32
ENDBRANCH  25  28
ENDBRANCH  20  21
ENDBRANCH   1  20
TORSDOF 9
ENDMDL
MODEL 2
REMARK VINA RESULT:   -10.470      1.641      2.266
REMARK INTER + INTRA:         -14.896
REMARK INTER:                 -13.155
REMARK INTRA:                  -1.741
REMARK CONF_INDEPENDENT:        2.685
REMARK UNBOUND:                -1.741
REMARK  9 active torsions:
REMARK  status: ('A' for Active; 'I' for Inactive)
REMARK    1  A    between atoms: O_2  and  C_3 
REMARK    2  A    between atoms: C_9  and  C_10 
REMARK    3  A    between atoms: C_10  and  C_11 
REMARK    4  A    between atoms: C_11  and  N_12 
REMARK       I    between atoms: N_12  and  C_13 
REMARK    5  A    between atoms: C_13  and  C_15 
REMARK    6  A    between atoms: C_15  and  C_16 
REMARK    7  A    between atoms: C_17  and  C_16 
REMARK    8  A    between atoms: C_20  and  C_21 
REMARK       I    between atoms: C_21  and  N_23 
REMARK    9  A    between atoms: N_23  and  C_24 
ROOT
ATOM      1  C   UNL d   1      25.627 -14.937  -1.888  0.00  0.00     0.105 C 
ENDROOT
BRANCH   1   2
ATOM      2  C   UNL d   1      25.909 -14.881  -3.353  0.00  0.00     0.217 C 
ATOM      3  N   UNL d   1      27.200 -15.254  -3.664  0.00  0.00    -0.361 N 
ATOM      4  H   UNL d   1      27.853 -15.522  -2.935  0.00  0.00     0.162 HD
ATOM      5  O   UNL d   1      25.097 -14.509  -4.200  0.00  0.00    -0.274 OA
BRANCH   3   6
ATOM      6  C   UNL d   1      27.603 -15.195  -5.037  0.00  0.00     0.127 C 
BRANCH   6   7
ATOM      7  C   UNL d   1      29.112 -15.201  -5.234  0.00  0.00     0.056 C 
BRANCH   7   8
ATOM      8  C   UNL d   1      29.761 -16.436  -4.691  0.00  0.00    -0.048 A 
ATOM      9  C   UNL d   1      30.280 -17.435  -5.414  0.00  0.00    -0.003 A 
ATOM     10  C   UNL d   1      30.793 -18.397  -4.423  0.00  0.00     0.039 A 
ATOM     11  C   UNL d   1      30.405 -17.676  -6.814  0.00  0.00     0.050 A 
ATOM     12  C   UNL d   1      31.443 -19.619  -4.928  0.00  0.00     0.033 A 
ATOM     13  N   UNL d   1      30.592 -18.009  -3.220  0.00  0.00    -0.385 N 
ATOM     14  C   UNL d   1      31.520 -19.777  -6.266  0.00  0.00     0.039 A 
ATOM     15  C   UNL d   1      30.983 -18.815  -7.228  0.00  0.00     0.069 A 
ATOM     16  C   UNL d   1      29.903 -16.707  -3.217  0.00  0.00     0.155 A 
ATOM     17  H   UNL d   1      30.875 -18.535  -2.397  0.00  0.00     0.160 HD
BRANCH  15  18
ATOM     18  O   UNL d   1      31.199 -19.012  -8.574  0.00  0.00    -0.356 OA
ATOM     19  C   UNL d   1      31.878 -20.209  -8.947  0.00  0.00     0.210 C 
ENDBRANCH  15  18
ENDBRANCH   7   8
ENDBRANCH   6   7
ENDBRANCH   3   6
ENDBRANCH   1   2
BRANCH   1  20
ATOM     20  C   UNL d   1      26.461 -15.983  -1.145  0.00  0.00     0.041 C 
BRANCH  20  21
ATOM     21  C   UNL d   1      25.937 -17.426  -1.262  0.00  0.00     0.135 C 
ATOM     22  N   UNL d   1      25.827 -18.112   0.029  0.00  0.00    -0.245 NA
ATOM     23  N   UNL d   1      24.446 -18.078   0.568  0.00  0.00    -0.237 NA
ATOM     24  H   UNL d   1      26.562 -17.825   0.677  0.00  0.00     0.142 HD
ATOM     25  C   UNL d   1      23.540 -17.381  -0.366  0.00  0.00     0.226 C 
ATOM     26  H   UNL d   1      24.404 -17.655   1.495  0.00  0.00     0.142 HD
ATOM     27  S   UNL d   1      24.307 -17.387  -1.995  0.00  0.00    -0.117 SA
BRANCH  25  28
ATOM     28  C   UNL d   1      22.119 -17.936  -0.422  0.00  0.00     0.251 C 
ATOM     29  O   UNL d   1      21.202 -17.312  -0.957  0.00  0.00    -0.270 OA
ATOM     30  N   UNL d   1      21.920 -19.113   0.329  0.00  0.00    -0.325 N 
ATOM     31  H   UNL d   1      22.635 -19.423   0.970  0.00  0.00     0.169 HD
BRANCH  30  32
ATOM     32  C   UNL d   1      20.603 -19.584   0.548  0.00  0.00     0.034 C 
ATOM     33  C   UNL d   1      20.172 -19.831   1.852  0.00  0.00     0.029 C 
ATOM     34  C   UNL d   1      18.980 -20.498   2.098  0.00  0.00     0.002 C 
ATOM     35  C   UNL d   1      18.144 -20.816   1.037  0.00  0.00     0.000 C 
ATOM     36  C   UNL d   1      18.498 -20.450  -0.264  0.00  0.00     0.002 C 
ATOM     37  C   UNL d   1      19.745 -19.863  -0.520  0.00  0.00     0.029 C 
ENDBRANCH  30  32
ENDBRANCH  25  28
ENDBRANCH  20  21
ENDBRANCH   1  20
TORSDOF 9
ENDMDL
MODEL 3
REMARK VINA RESULT:    -9.992      1.648      2.248
REMARK INTER + INTRA:         -14.746
REMARK INTER:                 -12.676
REMARK INTRA:                  -2.070
REMARK CONF_INDEPENDENT:        2.685
REMARK UNBOUND:                -2.070
REMARK  9 active torsions:
REMARK  status: ('A' for Active; 'I' for Inactive)
REMARK    1  A    between atoms: O_2  and  C_3 
REMARK    2  A    between atoms: C_9  and  C_10 
REMARK    3  A    between atoms: C_10  and  C_11 
REMARK    4  A    between atoms: C_11  and  N_12 
REMARK       I    between atoms: N_12  and  C_13 
REMARK    5  A    between atoms: C_13  and  C_15 
REMARK    6  A    between atoms: C_15  and  C_16 
REMARK    7  A    between atoms: C_17  and  C_16 
REMARK    8  A    between atoms: C_20  and  C_21 
REMARK       I    between atoms: C_21  and  N_23 
REMARK    9  A    between atoms: N_23  and  C_24 
ROOT
ATOM      1  C   UNL d   1      25.509 -14.947  -1.797  0.00  0.00     0.105 C 
ENDROOT
BRANCH   1   2
ATOM      2  C   UNL d   1      25.722 -14.821  -3.269  0.00  0.00     0.217 C 
ATOM      3  N   UNL d   1      27.054 -14.866  -3.623  0.00  0.00    -0.361 N 
ATOM      4  H   UNL d   1      27.776 -14.968  -2.917  0.00  0.00     0.162 HD
ATOM      5  O   UNL d   1      24.817 -14.657  -4.087  0.00  0.00    -0.274 OA
BRANCH   3   6
ATOM      6  C   UNL d   1      27.386 -14.708  -5.007  0.00  0.00     0.127 C 
BRANCH   6   7
ATOM      7  C   UNL d   1      28.859 -14.416  -5.255  0.00  0.00     0.056 C 
BRANCH   7   8
ATOM      8  C   UNL d   1      29.653 -15.652  -5.544  0.00  0.00    -0.048 A 
ATOM      9  C   UNL d   1      30.041 -16.565  -4.646  0.00  0.00    -0.003 A 
ATOM     10  C   UNL d   1      30.780 -17.575  -5.424  0.00  0.00     0.039 A 
ATOM     11  C   UNL d   1      29.865 -16.699  -3.238  0.00  0.00     0.050 A 
ATOM     12  C   UNL d   1      31.331 -18.732  -4.697  0.00  0.00     0.033 A 
ATOM     13  N   UNL d   1      30.832 -17.287  -6.670  0.00  0.00    -0.385 N 
ATOM     14  C   UNL d   1      31.126 -18.786  -3.364  0.00  0.00     0.039 A 
ATOM     15  C   UNL d   1      30.405 -17.758  -2.612  0.00  0.00     0.069 A 
ATOM     16  C   UNL d   1      30.125 -16.019  -6.925  0.00  0.00     0.155 A 
ATOM     17  H   UNL d   1      31.297 -17.861  -7.369  0.00  0.00     0.160 HD
BRANCH  15  18
ATOM     18  O   UNL d   1      30.157 -17.949  -1.271  0.00  0.00    -0.356 OA
ATOM     19  C   UNL d   1      29.583 -16.852  -0.562  0.00  0.00     0.210 C 
ENDBRANCH  15  18
ENDBRANCH   7   8
ENDBRANCH   6   7
ENDBRANCH   3   6
ENDBRANCH   1   2
BRANCH   1  20
ATOM     20  C   UNL d   1      26.392 -16.011  -1.141  0.00  0.00     0.041 C 
BRANCH  20  21
ATOM     21  C   UNL d   1      25.867 -17.453  -1.270  0.00  0.00     0.135 C 
ATOM     22  N   UNL d   1      25.757 -18.151   0.014  0.00  0.00    -0.245 NA
ATOM     23  N   UNL d   1      24.377 -18.120   0.556  0.00  0.00    -0.237 NA
ATOM     24  H   UNL d   1      26.494 -17.870   0.664  0.00  0.00     0.142 HD
ATOM     25  C   UNL d   1      23.471 -17.414  -0.371  0.00  0.00     0.226 C 
ATOM     26  H   UNL d   1      24.337 -17.705   1.487  0.00  0.00     0.142 HD
ATOM     27  S   UNL d   1      24.235 -17.405  -2.000  0.00  0.00    -0.117 SA
BRANCH  25  28
ATOM     28  C   UNL d   1      22.049 -17.967  -0.429  0.00  0.00     0.251 C 
ATOM     29  O   UNL d   1      21.136 -17.346  -0.976  0.00  0.00    -0.270 OA
ATOM     30  N   UNL d   1      21.843 -19.136   0.331  0.00  0.00    -0.325 N 
ATOM     31  H   UNL d   1      22.555 -19.441   0.980  0.00  0.00     0.169 HD
BRANCH  30  32
ATOM     32  C   UNL d   1      20.524 -19.603   0.548  0.00  0.00     0.034 C 
ATOM     33  C   UNL d   1      20.094 -19.860   1.850  0.00  0.00     0.029 C 
ATOM     34  C   UNL d   1      18.899 -20.524   2.090  0.00  0.00     0.002 C 
ATOM     35  C   UNL d   1      18.060 -20.828   1.028  0.00  0.00     0.000 C 
ATOM     36  C   UNL d   1      18.415 -20.450  -0.270  0.00  0.00     0.002 C 
ATOM     37  C   UNL d   1      19.664 -19.866  -0.522  0.00  0.00     0.029 C 
ENDBRANCH  30  32
ENDBRANCH  25  28
ENDBRANCH  20  21
ENDBRANCH   1  20
TORSDOF 9
ENDMDL
MODEL 4
REMARK VINA RESULT:    -9.617      3.065      4.437
REMARK INTER + INTRA:         -14.703
REMARK INTER:                 -12.302
REMARK INTRA:                  -2.401
REMARK CONF_INDEPENDENT:        2.685
REMARK UNBOUND:                -2.401
REMARK  9 active torsions:
REMARK  status: ('A' for Active; 'I' for Inactive)
REMARK    1  A    between atoms: O_2  and  C_3 
REMARK    2  A    between atoms: C_9  and  C_10 
REMARK    3  A    between atoms: C_10  and  C_11 
REMARK    4  A    between atoms: C_11  and  N_12 
REMARK       I    between atoms: N_12  and  C_13 
REMARK    5  A    between atoms: C_13  and  C_15 
REMARK    6  A    between atoms: C_15  and  C_16 
REMARK    7  A    between atoms: C_17  and  C_16 
REMARK    8  A    between atoms: C_20  and  C_21 
REMARK       I    between atoms: C_21  and  N_23 
REMARK    9  A    between atoms: N_23  and  C_24 
ROOT
ATOM      1  C   UNL d   1      27.359 -15.077  -1.736  0.00  0.00     0.105 C 
ENDROOT
BRANCH   1   2
ATOM      2  C   UNL d   1      26.219 -14.528  -2.527  0.00  0.00     0.217 C 
ATOM      3  N   UNL d   1      26.383 -13.197  -2.850  0.00  0.00    -0.361 N 
ATOM      4  H   UNL d   1      27.208 -12.688  -2.550  0.00  0.00     0.162 HD
ATOM      5  O   UNL d   1      25.216 -15.172  -2.834  0.00  0.00    -0.274 OA
BRANCH   3   6
ATOM      6  C   UNL d   1      25.329 -12.546  -3.569  0.00  0.00     0.127 C 
BRANCH   6   7
ATOM      7  C   UNL d   1      25.641 -11.103  -3.941  0.00  0.00     0.056 C 
BRANCH   7   8
ATOM      8  C   UNL d   1      26.279 -10.980  -5.290  0.00  0.00    -0.048 A 
ATOM      9  C   UNL d   1      27.001 -11.922  -5.908  0.00  0.00    -0.003 A 
ATOM     10  C   UNL d   1      27.395 -11.319  -7.193  0.00  0.00     0.039 A 
ATOM     11  C   UNL d   1      27.390 -13.249  -5.563  0.00  0.00     0.050 A 
ATOM     12  C   UNL d   1      28.204 -12.136  -8.114  0.00  0.00     0.033 A 
ATOM     13  N   UNL d   1      26.952 -10.125  -7.326  0.00  0.00    -0.385 N 
ATOM     14  C   UNL d   1      28.536 -13.382  -7.715  0.00  0.00     0.039 A 
ATOM     15  C   UNL d   1      28.149 -13.949  -6.422  0.00  0.00     0.069 A 
ATOM     16  C   UNL d   1      26.182  -9.736  -6.132  0.00  0.00     0.155 A 
ATOM     17  H   UNL d   1      27.116  -9.544  -8.144  0.00  0.00     0.160 HD
BRANCH  15  18
ATOM     18  O   UNL d   1      28.446 -15.265  -6.144  0.00  0.00    -0.356 OA
ATOM     19  C   UNL d   1      28.812 -15.569  -4.800  0.00  0.00     0.210 C 
ENDBRANCH  15  18
ENDBRANCH   7   8
ENDBRANCH   6   7
ENDBRANCH   3   6
ENDBRANCH   1   2
BRANCH   1  20
ATOM     20  C   UNL d   1      27.130 -16.508  -1.245  0.00  0.00     0.041 C 
BRANCH  20  21
ATOM     21  C   UNL d   1      26.105 -16.641  -0.103  0.00  0.00     0.135 C 
ATOM     22  N   UNL d   1      24.997 -15.686  -0.201  0.00  0.00    -0.245 NA
ATOM     23  N   UNL d   1      23.790 -16.287  -0.819  0.00  0.00    -0.237 NA
ATOM     24  H   UNL d   1      25.297 -14.792  -0.594  0.00  0.00     0.142 HD
ATOM     25  C   UNL d   1      24.024 -17.707  -1.144  0.00  0.00     0.226 C 
ATOM     26  H   UNL d   1      23.483 -15.773  -1.645  0.00  0.00     0.142 HD
ATOM     27  S   UNL d   1      25.407 -18.287  -0.149  0.00  0.00    -0.117 SA
BRANCH  25  28
ATOM     28  C   UNL d   1      22.807 -18.616  -0.983  0.00  0.00     0.251 C 
ATOM     29  O   UNL d   1      22.404 -19.325  -1.905  0.00  0.00    -0.270 OA
ATOM     30  N   UNL d   1      22.102 -18.440   0.225  0.00  0.00    -0.325 N 
ATOM     31  H   UNL d   1      22.316 -17.651   0.818  0.00  0.00     0.169 HD
BRANCH  30  32
ATOM     32  C   UNL d   1      20.833 -19.047   0.384  0.00  0.00     0.034 C 
ATOM     33  C   UNL d   1      20.461 -19.539   1.636  0.00  0.00     0.029 C 
ATOM     34  C   UNL d   1      19.332 -20.332   1.786  0.00  0.00     0.002 C 
ATOM     35  C   UNL d   1      18.492 -20.539   0.700  0.00  0.00     0.000 C 
ATOM     36  C   UNL d   1      18.779 -19.937  -0.527  0.00  0.00     0.002 C 
ATOM     37  C   UNL d   1      19.969 -19.215  -0.701  0.00  0.00     0.029 C 
ENDBRANCH  30  32
ENDBRANCH  25  28
ENDBRANCH  20  21
ENDBRANCH   1  20
TORSDOF 9
ENDMDL
MODEL 5
REMARK VINA RESULT:    -9.581      4.139      6.505
REMARK INTER + INTRA:         -14.604
REMARK INTER:                 -12.265
REMARK INTRA:                  -2.339
REMARK CONF_INDEPENDENT:        2.685
REMARK UNBOUND:                -2.339
REMARK  9 active torsions:
REMARK  status: ('A' for Active; 'I' for Inactive)
REMARK    1  A    between atoms: O_2  and  C_3 
REMARK    2  A    between atoms: C_9  and  C_10 
REMARK    3  A    between atoms: C_10  and  C_11 
REMARK    4  A    between atoms: C_11  and  N_12 
REMARK       I    between atoms: N_12  and  C_13 
REMARK    5  A    between atoms: C_13  and  C_15 
REMARK    6  A    between atoms: C_15  and  C_16 
REMARK    7  A    between atoms: C_17  and  C_16 
REMARK    8  A    between atoms: C_20  and  C_21 
REMARK       I    between atoms: C_21  and  N_23 
REMARK    9  A    between atoms: N_23  and  C_24 
ROOT
ATOM      1  C   UNL d   1      25.493 -16.347  -2.749  0.00  0.00     0.105 C 
ENDROOT
BRANCH   1   2
ATOM      2  C   UNL d   1      26.161 -15.059  -3.103  0.00  0.00     0.217 C 
ATOM      3  N   UNL d   1      26.037 -14.103  -2.117  0.00  0.00    -0.361 N 
ATOM      4  H   UNL d   1      25.529 -14.302  -1.261  0.00  0.00     0.162 HD
ATOM      5  O   UNL d   1      26.732 -14.847  -4.173  0.00  0.00    -0.274 OA
BRANCH   3   6
ATOM      6  C   UNL d   1      26.598 -12.809  -2.362  0.00  0.00     0.127 C 
BRANCH   6   7
ATOM      7  C   UNL d   1      27.941 -12.583  -1.682  0.00  0.00     0.056 C 
BRANCH   7   8
ATOM      8  C   UNL d   1      28.108 -13.410  -0.445  0.00  0.00    -0.048 A 
ATOM      9  C   UNL d   1      27.811 -13.029   0.802  0.00  0.00    -0.003 A 
ATOM     10  C   UNL d   1      28.148 -14.189   1.646  0.00  0.00     0.039 A 
ATOM     11  C   UNL d   1      27.279 -11.832   1.366  0.00  0.00     0.050 A 
ATOM     12  C   UNL d   1      27.914 -14.071   3.096  0.00  0.00     0.033 A 
ATOM     13  N   UNL d   1      28.608 -15.169   0.964  0.00  0.00    -0.385 N 
ATOM     14  C   UNL d   1      27.412 -12.906   3.555  0.00  0.00     0.039 A 
ATOM     15  C   UNL d   1      27.105 -11.761   2.696  0.00  0.00     0.069 A 
ATOM     16  C   UNL d   1      28.653 -14.813  -0.465  0.00  0.00     0.155 A 
ATOM     17  H   UNL d   1      28.896 -16.058   1.366  0.00  0.00     0.160 HD
BRANCH  15  18
ATOM     18  O   UNL d   1      26.500 -10.650   3.240  0.00  0.00    -0.356 OA
ATOM     19  C   UNL d   1      26.521  -9.459   2.454  0.00  0.00     0.210 C 
ENDBRANCH  15  18
ENDBRANCH   7   8
ENDBRANCH   6   7
ENDBRANCH   3   6
ENDBRANCH   1   2
BRANCH   1  20
ATOM     20  C   UNL d   1      26.148 -17.071  -1.571  0.00  0.00     0.041 C 
BRANCH  20  21
ATOM     21  C   UNL d   1      25.305 -17.098  -0.283  0.00  0.00     0.135 C 
ATOM     22  N   UNL d   1      24.412 -15.945  -0.146  0.00  0.00    -0.245 NA
ATOM     23  N   UNL d   1      23.028 -16.250  -0.584  0.00  0.00    -0.237 NA
ATOM     24  H   UNL d   1      24.823 -15.096  -0.539  0.00  0.00     0.142 HD
ATOM     25  C   UNL d   1      22.917 -17.657  -1.014  0.00  0.00     0.226 C 
ATOM     26  H   UNL d   1      22.708 -15.620  -1.320  0.00  0.00     0.142 HD
ATOM     27  S   UNL d   1      24.290 -18.571  -0.293  0.00  0.00    -0.117 SA
BRANCH  25  28
ATOM     28  C   UNL d   1      21.582 -18.326  -0.697  0.00  0.00     0.251 C 
ATOM     29  O   UNL d   1      20.511 -17.826  -1.043  0.00  0.00    -0.270 OA
ATOM     30  N   UNL d   1      21.674 -19.444   0.157  0.00  0.00    -0.325 N 
ATOM     31  H   UNL d   1      22.544 -19.638   0.632  0.00  0.00     0.169 HD
BRANCH  30  32
ATOM     32  C   UNL d   1      20.494 -19.996   0.711  0.00  0.00     0.034 C 
ATOM     33  C   UNL d   1      19.499 -20.479  -0.141  0.00  0.00     0.029 C 
ATOM     34  C   UNL d   1      18.245 -20.820   0.346  0.00  0.00     0.002 C 
ATOM     35  C   UNL d   1      18.013 -20.798   1.714  0.00  0.00     0.000 C 
ATOM     36  C   UNL d   1      19.044 -20.449   2.590  0.00  0.00     0.002 C 
ATOM     37  C   UNL d   1      20.280 -20.013   2.092  0.00  0.00     0.029 C 
ENDBRANCH  30  32
ENDBRANCH  25  28
ENDBRANCH  20  21
ENDBRANCH   1  20
TORSDOF 9
ENDMDL
MODEL 6
REMARK VINA RESULT:    -9.355      1.442      2.211
REMARK INTER + INTRA:         -14.707
REMARK INTER:                 -12.039
REMARK INTRA:                  -2.668
REMARK CONF_INDEPENDENT:        2.685
REMARK UNBOUND:                -2.668
REMARK  9 active torsions:
REMARK  status: ('A' for Active; 'I' for Inactive)
REMARK    1  A    between atoms: O_2  and  C_3 
REMARK    2  A    between atoms: C_9  and  C_10 
REMARK    3  A    between atoms: C_10  and  C_11 
REMARK    4  A    between atoms: C_11  and  N_12 
REMARK       I    between atoms: N_12  and  C_13 
REMARK    5  A    between atoms: C_13  and  C_15 
REMARK    6  A    between atoms: C_15  and  C_16 
REMARK    7  A    between atoms: C_17  and  C_16 
REMARK    8  A    between atoms: C_20  and  C_21 
REMARK       I    between atoms: C_21  and  N_23 
REMARK    9  A    between atoms: N_23  and  C_24 
ROOT
ATOM      1  C   UNL d   1      27.360 -16.230  -1.668  0.00  0.00     0.105 C 
ENDROOT
BRANCH   1   2
ATOM      2  C   UNL d   1      26.595 -15.752  -2.858  0.00  0.00     0.217 C 
ATOM      3  N   UNL d   1      27.407 -15.460  -3.934  0.00  0.00    -0.361 N 
ATOM      4  H   UNL d   1      28.414 -15.568  -3.869  0.00  0.00     0.162 HD
ATOM      5  O   UNL d   1      25.374 -15.596  -2.878  0.00  0.00    -0.274 OA
BRANCH   3   6
ATOM      6  C   UNL d   1      26.790 -14.947  -5.120  0.00  0.00     0.127 C 
BRANCH   6   7
ATOM      7  C   UNL d   1      27.780 -14.398  -6.138  0.00  0.00     0.056 C 
BRANCH   7   8
ATOM      8  C   UNL d   1      29.182 -14.356  -5.614  0.00  0.00    -0.048 A 
ATOM      9  C   UNL d   1      30.067 -15.359  -5.654  0.00  0.00    -0.003 A 
ATOM     10  C   UNL d   1      31.284 -14.819  -5.023  0.00  0.00     0.039 A 
ATOM     11  C   UNL d   1      30.022 -16.693  -6.155  0.00  0.00     0.050 A 
ATOM     12  C   UNL d   1      32.458 -15.705  -4.930  0.00  0.00     0.033 A 
ATOM     13  N   UNL d   1      31.136 -13.608  -4.639  0.00  0.00    -0.385 N 
ATOM     14  C   UNL d   1      32.337 -16.955  -5.424  0.00  0.00     0.039 A 
ATOM     15  C   UNL d   1      31.108 -17.473  -6.027  0.00  0.00     0.069 A 
ATOM     16  C   UNL d   1      29.775 -13.140  -4.955  0.00  0.00     0.155 A 
ATOM     17  H   UNL d   1      31.863 -13.061  -4.183  0.00  0.00     0.160 HD
BRANCH  15  18
ATOM     18  O   UNL d   1      31.110 -18.727  -6.595  0.00  0.00    -0.356 OA
ATOM     19  C   UNL d   1      30.570 -19.789  -5.809  0.00  0.00     0.210 C 
ENDBRANCH  15  18
ENDBRANCH   7   8
ENDBRANCH   6   7
ENDBRANCH   3   6
ENDBRANCH   1   2
BRANCH   1  20
ATOM     20  C   UNL d   1      26.718 -17.431  -0.971  0.00  0.00     0.041 C 
BRANCH  20  21
ATOM     21  C   UNL d   1      25.649 -17.073   0.078  0.00  0.00     0.135 C 
ATOM     22  N   UNL d   1      24.879 -15.872  -0.261  0.00  0.00    -0.245 NA
ATOM     23  N   UNL d   1      23.578 -16.199  -0.894  0.00  0.00    -0.237 NA
ATOM     24  H   UNL d   1      25.449 -15.181  -0.752  0.00  0.00     0.142 HD
ATOM     25  C   UNL d   1      23.395 -17.661  -0.983  0.00  0.00     0.226 C 
ATOM     26  H   UNL d   1      23.475 -15.765  -1.811  0.00  0.00     0.142 HD
ATOM     27  S   UNL d   1      24.497 -18.435   0.211  0.00  0.00    -0.117 SA
BRANCH  25  28
ATOM     28  C   UNL d   1      21.958 -18.144  -0.803  0.00  0.00     0.251 C 
ATOM     29  O   UNL d   1      20.998 -17.469  -1.177  0.00  0.00    -0.270 OA
ATOM     30  N   UNL d   1      21.827 -19.317  -0.031  0.00  0.00    -0.325 N 
ATOM     31  H   UNL d   1      22.623 -19.668   0.482  0.00  0.00     0.169 HD
BRANCH  30  32
ATOM     32  C   UNL d   1      20.543 -19.724   0.403  0.00  0.00     0.034 C 
ATOM     33  C   UNL d   1      20.286 -19.837   1.771  0.00  0.00     0.029 C 
ATOM     34  C   UNL d   1      19.125 -20.441   2.233  0.00  0.00     0.002 C 
ATOM     35  C   UNL d   1      18.148 -20.828   1.327  0.00  0.00     0.000 C 
ATOM     36  C   UNL d   1      18.332 -20.593  -0.038  0.00  0.00     0.002 C 
ATOM     37  C   UNL d   1      19.544 -20.071  -0.511  0.00  0.00     0.029 C 
ENDBRANCH  30  32
ENDBRANCH  25  28
ENDBRANCH  20  21
ENDBRANCH   1  20
TORSDOF 9
ENDMDL
MODEL 7
REMARK VINA RESULT:    -9.147      3.825      5.412
REMARK INTER + INTRA:         -14.914
REMARK INTER:                 -11.831
REMARK INTRA:                  -3.082
REMARK CONF_INDEPENDENT:        2.685
REMARK UNBOUND:                -3.082
REMARK  9 active torsions:
REMARK  status: ('A' for Active; 'I' for Inactive)
REMARK    1  A    between atoms: O_2  and  C_3 
REMARK    2  A    between atoms: C_9  and  C_10 
REMARK    3  A    between atoms: C_10  and  C_11 
REMARK    4  A    between atoms: C_11  and  N_12 
REMARK       I    between atoms: N_12  and  C_13 
REMARK    5  A    between atoms: C_13  and  C_15 
REMARK    6  A    between atoms: C_15  and  C_16 
REMARK    7  A    between atoms: C_17  and  C_16 
REMARK    8  A    between atoms: C_20  and  C_21 
REMARK       I    between atoms: C_21  and  N_23 
REMARK    9  A    between atoms: N_23  and  C_24 
ROOT
ATOM      1  C   UNL d   1      27.048 -16.090  -1.809  0.00  0.00     0.105 C 
ENDROOT
BRANCH   1   2
ATOM      2  C   UNL d   1      26.176 -15.567  -2.901  0.00  0.00     0.217 C 
ATOM      3  N   UNL d   1      26.893 -14.998  -3.933  0.00  0.00    -0.361 N 
ATOM      4  H   UNL d   1      27.907 -14.958  -3.901  0.00  0.00     0.162 HD
ATOM      5  O   UNL d   1      24.946 -15.599  -2.880  0.00  0.00    -0.274 OA
BRANCH   3   6
ATOM      6  C   UNL d   1      26.162 -14.418  -5.019  0.00  0.00     0.127 C 
BRANCH   6   7
ATOM      7  C   UNL d   1      25.211 -13.308  -4.595  0.00  0.00     0.056 C 
BRANCH   7   8
ATOM      8  C   UNL d   1      25.923 -12.133  -4.001  0.00  0.00    -0.048 A 
ATOM      9  C   UNL d   1      26.382 -12.042  -2.747  0.00  0.00    -0.003 A 
ATOM     10  C   UNL d   1      26.999 -10.707  -2.662  0.00  0.00     0.039 A 
ATOM     11  C   UNL d   1      26.374 -12.927  -1.630  0.00  0.00     0.050 A 
ATOM     12  C   UNL d   1      27.612 -10.316  -1.381  0.00  0.00     0.033 A 
ATOM     13  N   UNL d   1      26.911 -10.060  -3.763  0.00  0.00    -0.385 N 
ATOM     14  C   UNL d   1      27.561 -11.207  -0.368  0.00  0.00     0.039 A 
ATOM     15  C   UNL d   1      26.923 -12.519  -0.473  0.00  0.00     0.069 A 
ATOM     16  C   UNL d   1      26.210 -10.872  -4.772  0.00  0.00     0.155 A 
ATOM     17  H   UNL d   1      27.278  -9.122  -3.904  0.00  0.00     0.160 HD
BRANCH  15  18
ATOM     18  O   UNL d   1      27.010 -13.401   0.581  0.00  0.00    -0.356 OA
ATOM     19  C   UNL d   1      28.229 -14.133   0.706  0.00  0.00     0.210 C 
ENDBRANCH  15  18
ENDBRANCH   7   8
ENDBRANCH   6   7
ENDBRANCH   3   6
ENDBRANCH   1   2
BRANCH   1  20
ATOM     20  C   UNL d   1      26.512 -17.366  -1.157  0.00  0.00     0.041 C 
BRANCH  20  21
ATOM     21  C   UNL d   1      25.482 -17.133  -0.036  0.00  0.00     0.135 C 
ATOM     22  N   UNL d   1      24.613 -15.977  -0.273  0.00  0.00    -0.245 NA
ATOM     23  N   UNL d   1      23.304 -16.366  -0.851  0.00  0.00    -0.237 NA
ATOM     24  H   UNL d   1      25.105 -15.224  -0.760  0.00  0.00     0.142 HD
ATOM     25  C   UNL d   1      23.218 -17.832  -1.002  0.00  0.00     0.226 C 
ATOM     26  H   UNL d   1      23.119 -15.899  -1.739  0.00  0.00     0.142 HD
ATOM     27  S   UNL d   1      24.437 -18.578   0.092  0.00  0.00    -0.117 SA
BRANCH  25  28
ATOM     28  C   UNL d   1      21.830 -18.424  -0.769  0.00  0.00     0.251 C 
ATOM     29  O   UNL d   1      20.811 -17.860  -1.170  0.00  0.00    -0.270 OA
ATOM     30  N   UNL d   1      21.809 -19.552   0.077  0.00  0.00    -0.325 N 
ATOM     31  H   UNL d   1      22.638 -19.800   0.599  0.00  0.00     0.169 HD
BRANCH  30  32
ATOM     32  C   UNL d   1      20.569 -20.039   0.557  0.00  0.00     0.034 C 
ATOM     33  C   UNL d   1      19.593 -20.441  -0.355  0.00  0.00     0.029 C 
ATOM     34  C   UNL d   1      18.296 -20.711   0.059  0.00  0.00     0.002 C 
ATOM     35  C   UNL d   1      17.994 -20.701   1.413  0.00  0.00     0.000 C 
ATOM     36  C   UNL d   1      18.997 -20.436   2.348  0.00  0.00     0.002 C 
ATOM     37  C   UNL d   1      20.283 -20.070   1.924  0.00  0.00     0.029 C 
ENDBRANCH  30  32
ENDBRANCH  25  28
ENDBRANCH  20  21
ENDBRANCH   1  20
TORSDOF 9
ENDMDL
MODEL 8
REMARK VINA RESULT:    -8.706      3.533      4.694
REMARK INTER + INTRA:         -14.450
REMARK INTER:                 -11.390
REMARK INTRA:                  -3.060
REMARK CONF_INDEPENDENT:        2.685
REMARK UNBOUND:                -3.060
REMARK  9 active torsions:
REMARK  status: ('A' for Active; 'I' for Inactive)
REMARK    1  A    between atoms: O_2  and  C_3 
REMARK    2  A    between atoms: C_9  and  C_10 
REMARK    3  A    between atoms: C_10  and  C_11 
REMARK    4  A    between atoms: C_11  and  N_12 
REMARK       I    between atoms: N_12  and  C_13 
REMARK    5  A    between atoms: C_13  and  C_15 
REMARK    6  A    between atoms: C_15  and  C_16 
REMARK    7  A    between atoms: C_17  and  C_16 
REMARK    8  A    between atoms: C_20  and  C_21 
REMARK       I    between atoms: C_21  and  N_23 
REMARK    9  A    between atoms: N_23  and  C_24 
ROOT
ATOM      1  C   UNL d   1      25.259 -16.723  -2.869  0.00  0.00     0.105 C 
ENDROOT
BRANCH   1   2
ATOM      2  C   UNL d   1      25.530 -15.375  -3.449  0.00  0.00     0.217 C 
ATOM      3  N   UNL d   1      25.132 -14.346  -2.621  0.00  0.00    -0.361 N 
ATOM      4  H   UNL d   1      24.698 -14.539  -1.724  0.00  0.00     0.162 HD
ATOM      5  O   UNL d   1      26.022 -15.186  -4.561  0.00  0.00    -0.274 OA
BRANCH   3   6
ATOM      6  C   UNL d   1      25.298 -13.003  -3.090  0.00  0.00     0.127 C 
BRANCH   6   7
ATOM      7  C   UNL d   1      26.647 -12.393  -2.737  0.00  0.00     0.056 C 
BRANCH   7   8
ATOM      8  C   UNL d   1      27.713 -13.425  -2.536  0.00  0.00    -0.048 A 
ATOM      9  C   UNL d   1      27.996 -14.050  -1.387  0.00  0.00    -0.003 A 
ATOM     10  C   UNL d   1      29.108 -14.961  -1.712  0.00  0.00     0.039 A 
ATOM     11  C   UNL d   1      27.453 -13.985  -0.071  0.00  0.00     0.050 A 
ATOM     12  C   UNL d   1      29.639 -15.807  -0.630  0.00  0.00     0.033 A 
ATOM     13  N   UNL d   1      29.457 -14.882  -2.941  0.00  0.00    -0.385 N 
ATOM     14  C   UNL d   1      29.075 -15.686   0.590  0.00  0.00     0.039 A 
ATOM     15  C   UNL d   1      27.985 -14.757   0.891  0.00  0.00     0.069 A 
ATOM     16  C   UNL d   1      28.623 -13.890  -3.641  0.00  0.00     0.155 A 
ATOM     17  H   UNL d   1      30.204 -15.432  -3.358  0.00  0.00     0.160 HD
BRANCH  15  18
ATOM     18  O   UNL d   1      27.405 -14.776   2.140  0.00  0.00    -0.356 OA
ATOM     19  C   UNL d   1      28.169 -14.223   3.211  0.00  0.00     0.210 C 
ENDBRANCH  15  18
ENDBRANCH   7   8
ENDBRANCH   6   7
ENDBRANCH   3   6
ENDBRANCH   1   2
BRANCH   1  20
ATOM     20  C   UNL d   1      26.059 -17.014  -1.598  0.00  0.00     0.041 C 
BRANCH  20  21
ATOM     21  C   UNL d   1      25.215 -17.113  -0.314  0.00  0.00     0.135 C 
ATOM     22  N   UNL d   1      24.353 -15.947  -0.091  0.00  0.00    -0.245 NA
ATOM     23  N   UNL d   1      22.962 -16.181  -0.549  0.00  0.00    -0.237 NA
ATOM     24  H   UNL d   1      24.788 -15.084  -0.421  0.00  0.00     0.142 HD
ATOM     25  C   UNL d   1      22.812 -17.550  -1.081  0.00  0.00     0.226 C 
ATOM     26  H   UNL d   1      22.661 -15.491  -1.236  0.00  0.00     0.142 HD
ATOM     27  S   UNL d   1      24.159 -18.551  -0.431  0.00  0.00    -0.117 SA
BRANCH  25  28
ATOM     28  C   UNL d   1      21.458 -18.202  -0.812  0.00  0.00     0.251 C 
ATOM     29  O   UNL d   1      20.414 -17.736  -1.269  0.00  0.00    -0.270 OA
ATOM     30  N   UNL d   1      21.491 -19.254   0.126  0.00  0.00    -0.325 N 
ATOM     31  H   UNL d   1      22.325 -19.408   0.675  0.00  0.00     0.169 HD
BRANCH  30  32
ATOM     32  C   UNL d   1      20.275 -19.773   0.633  0.00  0.00     0.034 C 
ATOM     33  C   UNL d   1      20.045 -19.757   2.009  0.00  0.00     0.029 C 
ATOM     34  C   UNL d   1      18.978 -20.450   2.564  0.00  0.00     0.002 C 
ATOM     35  C   UNL d   1      18.055 -21.066   1.730  0.00  0.00     0.000 C 
ATOM     36  C   UNL d   1      18.197 -20.971   0.344  0.00  0.00     0.002 C 
ATOM     37  C   UNL d   1      19.327 -20.354  -0.213  0.00  0.00     0.029 C 
ENDBRANCH  30  32
ENDBRANCH  25  28
ENDBRANCH  20  21
ENDBRANCH   1  20
TORSDOF 9
ENDMDL
MODEL 9
REMARK VINA RESULT:    -8.560      2.238      4.318
REMARK INTER + INTRA:         -14.589
REMARK INTER:                 -11.245
REMARK INTRA:                  -3.344
REMARK CONF_INDEPENDENT:        2.685
REMARK UNBOUND:                -3.344
REMARK  9 active torsions:
REMARK  status: ('A' for Active; 'I' for Inactive)
REMARK    1  A    between atoms: O_2  and  C_3 
REMARK    2  A    between atoms: C_9  and  C_10 
REMARK    3  A    between atoms: C_10  and  C_11 
REMARK    4  A    between atoms: C_11  and  N_12 
REMARK       I    between atoms: N_12  and  C_13 
REMARK    5  A    between atoms: C_13  and  C_15 
REMARK    6  A    between atoms: C_15  and  C_16 
REMARK    7  A    between atoms: C_17  and  C_16 
REMARK    8  A    between atoms: C_20  and  C_21 
REMARK       I    between atoms: C_21  and  N_23 
REMARK    9  A    between atoms: N_23  and  C_24 
ROOT
ATOM      1  C   UNL d   1      29.133 -16.846  -0.934  0.00  0.00     0.105 C 
ENDROOT
BRANCH   1   2
ATOM      2  C   UNL d   1      30.135 -17.161  -1.995  0.00  0.00     0.217 C 
ATOM      3  N   UNL d   1      29.761 -16.699  -3.240  0.00  0.00    -0.361 N 
ATOM      4  H   UNL d   1      28.882 -16.207  -3.368  0.00  0.00     0.162 HD
ATOM      5  O   UNL d   1      31.171 -17.798  -1.802  0.00  0.00    -0.274 OA
BRANCH   3   6
ATOM      6  C   UNL d   1      30.622 -16.982  -4.348  0.00  0.00     0.127 C 
BRANCH   6   7
ATOM      7  C   UNL d   1      29.952 -16.813  -5.704  0.00  0.00     0.056 C 
BRANCH   7   8
ATOM      8  C   UNL d   1      29.479 -15.413  -5.944  0.00  0.00    -0.048 A 
ATOM      9  C   UNL d   1      28.322 -14.890  -5.521  0.00  0.00    -0.003 A 
ATOM     10  C   UNL d   1      28.333 -13.498  -6.005  0.00  0.00     0.039 A 
ATOM     11  C   UNL d   1      27.227 -15.402  -4.766  0.00  0.00     0.050 A 
ATOM     12  C   UNL d   1      27.173 -12.651  -5.680  0.00  0.00     0.033 A 
ATOM     13  N   UNL d   1      29.397 -13.220  -6.660  0.00  0.00    -0.385 N 
ATOM     14  C   UNL d   1      26.174 -13.209  -4.964  0.00  0.00     0.039 A 
ATOM     15  C   UNL d   1      26.179 -14.601  -4.514  0.00  0.00     0.069 A 
ATOM     16  C   UNL d   1      30.277 -14.399  -6.719  0.00  0.00     0.155 A 
ATOM     17  H   UNL d   1      29.591 -12.311  -7.073  0.00  0.00     0.160 HD
BRANCH  15  18
ATOM     18  O   UNL d   1      25.163 -15.054  -3.701  0.00  0.00    -0.356 OA
ATOM     19  C   UNL d   1      24.253 -14.073  -3.207  0.00  0.00     0.210 C 
ENDBRANCH  15  18
ENDBRANCH   7   8
ENDBRANCH   6   7
ENDBRANCH   3   6
ENDBRANCH   1   2
BRANCH   1  20
ATOM     20  C   UNL d   1      27.773 -16.414  -1.488  0.00  0.00     0.041 C 
BRANCH  20  21
ATOM     21  C   UNL d   1      26.686 -16.186  -0.421  0.00  0.00     0.135 C 
ATOM     22  N   UNL d   1      25.502 -15.492  -0.934  0.00  0.00    -0.245 NA
ATOM     23  N   UNL d   1      24.406 -16.429  -1.279  0.00  0.00    -0.237 NA
ATOM     24  H   UNL d   1      25.744 -14.809  -1.655  0.00  0.00     0.142 HD
ATOM     25  C   UNL d   1      24.797 -17.821  -0.979  0.00  0.00     0.226 C 
ATOM     26  H   UNL d   1      24.112 -16.339  -2.252  0.00  0.00     0.142 HD
ATOM     27  S   UNL d   1      26.154 -17.775   0.203  0.00  0.00    -0.117 SA
BRANCH  25  28
ATOM     28  C   UNL d   1      23.665 -18.718  -0.487  0.00  0.00     0.251 C 
ATOM     29  O   UNL d   1      23.823 -19.929  -0.326  0.00  0.00    -0.270 OA
ATOM     30  N   UNL d   1      22.408 -18.084  -0.406  0.00  0.00    -0.325 N 
ATOM     31  H   UNL d   1      22.283 -17.169  -0.815  0.00  0.00     0.169 HD
BRANCH  30  32
ATOM     32  C   UNL d   1      21.246 -18.865  -0.195  0.00  0.00     0.034 C 
ATOM     33  C   UNL d   1      20.396 -19.131  -1.270  0.00  0.00     0.029 C 
ATOM     34  C   UNL d   1      19.145 -19.697  -1.068  0.00  0.00     0.002 C 
ATOM     35  C   UNL d   1      18.781 -20.117   0.203  0.00  0.00     0.000 C 
ATOM     36  C   UNL d   1      19.679 -19.983   1.265  0.00  0.00     0.002 C 
ATOM     37  C   UNL d   1      20.903 -19.326   1.079  0.00  0.00     0.029 C 
ENDBRANCH  30  32
ENDBRANCH  25  28
ENDBRANCH  20  21
ENDBRANCH   1  20
TORSDOF 9
ENDMDL
