MODEL 1
REMARK VINA RESULT:    -8.272      0.000      0.000
REMARK INTER + INTRA:         -11.252
REMARK INTER:                  -9.465
REMARK INTRA:                  -1.786
REMARK CONF_INDEPENDENT:        1.193
REMARK UNBOUND:                -1.786
REMARK  4 active torsions:
REMARK  status: ('A' for Active; 'I' for Inactive)
REMARK    1  A    between atoms: C_7  and  C_8 
REMARK    2  A    between atoms: C_9  and  C_10 
REMARK       I    between atoms: C_10  and  N_12 
REMARK    3  A    between atoms: N_12  and  N_13 
REMARK       I    between atoms: N_13  and  C_14 
REMARK    4  A    between atoms: C_14  and  C_16 
ROOT
ATOM      1  C   UNL d   1      23.873 -18.013  -0.600  0.00  0.00     0.259 C 
ATOM      2  O   UNL d   1      24.146 -18.019   0.598  0.00  0.00    -0.267 OA
ATOM      3  N   UNL d   1      22.687 -18.521  -1.128  0.00  0.00    -0.264 N 
ATOM      4  H   UNL d   1      22.438 -18.522  -2.117  0.00  0.00     0.190 HD
ENDROOT
BRANCH   1   5
ATOM      5  C   UNL d   1      24.789 -17.450  -1.629  0.00  0.00     0.076 C 
ATOM      6  C   UNL d   1      25.165 -16.163  -1.798  0.00  0.00     0.017 C 
BRANCH   6   7
ATOM      7  C   UNL d   1      26.094 -15.605  -2.847  0.00  0.00    -0.030 A 
ATOM      8  C   UNL d   1      25.530 -14.936  -3.961  0.00  0.00     0.012 A 
ATOM      9  C   UNL d   1      26.330 -14.381  -4.980  0.00  0.00     0.001 A 
ATOM     10  C   UNL d   1      27.712 -14.485  -4.919  0.00  0.00     0.001 A 
ATOM     11  C   UNL d   1      28.293 -15.136  -3.842  0.00  0.00     0.007 A 
ATOM     12  C   UNL d   1      27.507 -15.690  -2.811  0.00  0.00    -0.052 A 
ATOM     13  C   UNL d   1      28.267 -16.349  -1.700  0.00  0.00     0.049 C 
ENDBRANCH   6   7
ENDBRANCH   1   5
BRANCH   3  14
ATOM     14  N   UNL d   1      21.725 -19.055  -0.239  0.00  0.00    -0.261 N 
ATOM     15  C   UNL d   1      20.544 -19.636  -0.700  0.00  0.00     0.293 C 
ATOM     16  O   UNL d   1      20.289 -19.700  -1.908  0.00  0.00    -0.264 OA
ATOM     17  H   UNL d   1      22.002 -19.086   0.740  0.00  0.00     0.190 HD
BRANCH  15  18
ATOM     18  C   UNL d   1      19.657 -20.116   0.353  0.00  0.00     0.144 A 
ATOM     19  C   UNL d   1      18.467 -20.824   0.288  0.00  0.00     0.045 A 
ATOM     20  C   UNL d   1      18.030 -21.040   1.618  0.00  0.00     0.027 A 
ATOM     21  C   UNL d   1      18.970 -20.450   2.427  0.00  0.00     0.143 A 
ATOM     22  O   UNL d   1      19.969 -19.906   1.677  0.00  0.00    -0.317 OA
ENDBRANCH  15  18
ENDBRANCH   3  14
TORSDOF 4
ENDMDL
MODEL 2
REMARK VINA RESULT:    -8.218      0.405      1.556
REMARK INTER + INTRA:         -11.190
REMARK INTER:                  -9.411
REMARK INTRA:                  -1.780
REMARK CONF_INDEPENDENT:        1.193
REMARK UNBOUND:                -1.780
REMARK  4 active torsions:
REMARK  status: ('A' for Active; 'I' for Inactive)
REMARK    1  A    between atoms: C_7  and  C_8 
REMARK    2  A    between atoms: C_9  and  C_10 
REMARK       I    between atoms: C_10  and  N_12 
REMARK    3  A    between atoms: N_12  and  N_13 
REMARK       I    between atoms: N_13  and  C_14 
REMARK    4  A    between atoms: C_14  and  C_16 
ROOT
ATOM      1  C   UNL d   1      23.869 -17.885  -0.603  0.00  0.00     0.259 C 
ATOM      2  O   UNL d   1      24.112 -17.826   0.599  0.00  0.00    -0.267 OA
ATOM      3  N   UNL d   1      22.723 -18.476  -1.135  0.00  0.00    -0.264 N 
ATOM      4  H   UNL d   1      22.498 -18.532  -2.129  0.00  0.00     0.190 HD
ENDROOT
BRANCH   1   5
ATOM      5  C   UNL d   1      24.780 -17.321  -1.636  0.00  0.00     0.076 C 
ATOM      6  C   UNL d   1      25.223 -16.050  -1.753  0.00  0.00     0.017 C 
BRANCH   6   7
ATOM      7  C   UNL d   1      26.146 -15.490  -2.806  0.00  0.00    -0.030 A 
ATOM      8  C   UNL d   1      27.486 -15.950  -2.843  0.00  0.00     0.012 A 
ATOM      9  C   UNL d   1      28.408 -15.482  -3.801  0.00  0.00     0.001 A 
ATOM     10  C   UNL d   1      28.022 -14.537  -4.741  0.00  0.00     0.001 A 
ATOM     11  C   UNL d   1      26.718 -14.067  -4.728  0.00  0.00     0.007 A 
ATOM     12  C   UNL d   1      25.782 -14.531  -3.782  0.00  0.00    -0.052 A 
ATOM     13  C   UNL d   1      24.405 -13.951  -3.895  0.00  0.00     0.049 C 
ENDBRANCH   6   7
ENDBRANCH   1   5
BRANCH   3  14
ATOM     14  N   UNL d   1      21.767 -19.019  -0.245  0.00  0.00    -0.261 N 
ATOM     15  C   UNL d   1      20.595 -19.620  -0.705  0.00  0.00     0.293 C 
ATOM     16  O   UNL d   1      20.343 -19.693  -1.913  0.00  0.00    -0.264 OA
ATOM     17  H   UNL d   1      22.043 -19.042   0.734  0.00  0.00     0.190 HD
BRANCH  15  18
ATOM     18  C   UNL d   1      19.714 -20.108   0.349  0.00  0.00     0.144 A 
ATOM     19  C   UNL d   1      18.530 -20.825   0.285  0.00  0.00     0.045 A 
ATOM     20  C   UNL d   1      18.096 -21.046   1.615  0.00  0.00     0.027 A 
ATOM     21  C   UNL d   1      19.033 -20.450   2.423  0.00  0.00     0.143 A 
ATOM     22  O   UNL d   1      20.027 -19.898   1.672  0.00  0.00    -0.317 OA
ENDBRANCH  15  18
ENDBRANCH   3  14
TORSDOF 4
ENDMDL
MODEL 3
REMARK VINA RESULT:    -8.150      1.502      2.174
REMARK INTER + INTRA:         -10.066
REMARK INTER:                  -9.343
REMARK INTRA:                  -0.724
REMARK CONF_INDEPENDENT:        1.193
REMARK UNBOUND:                -0.724
REMARK  4 active torsions:
REMARK  status: ('A' for Active; 'I' for Inactive)
REMARK    1  A    between atoms: C_7  and  C_8 
REMARK    2  A    between atoms: C_9  and  C_10 
REMARK       I    between atoms: C_10  and  N_12 
REMARK    3  A    between atoms: N_12  and  N_13 
REMARK       I    between atoms: N_13  and  C_14 
REMARK    4  A    between atoms: C_14  and  C_16 
ROOT
ATOM      1  C   UNL d   1      23.398 -18.384  -1.230  0.00  0.00     0.259 C 
ATOM      2  O   UNL d   1      23.077 -19.240  -2.050  0.00  0.00    -0.267 OA
ATOM      3  N   UNL d   1      22.743 -18.187  -0.016  0.00  0.00    -0.264 N 
ATOM      4  H   UNL d   1      22.994 -17.486   0.681  0.00  0.00     0.190 HD
ENDROOT
BRANCH   1   5
ATOM      5  C   UNL d   1      24.541 -17.455  -1.445  0.00  0.00     0.076 C 
ATOM      6  C   UNL d   1      24.501 -16.152  -1.800  0.00  0.00     0.017 C 
BRANCH   6   7
ATOM      7  C   UNL d   1      25.669 -15.221  -2.015  0.00  0.00    -0.030 A 
ATOM      8  C   UNL d   1      26.364 -14.734  -0.881  0.00  0.00     0.012 A 
ATOM      9  C   UNL d   1      27.468 -13.867  -0.999  0.00  0.00     0.001 A 
ATOM     10  C   UNL d   1      27.905 -13.456  -2.250  0.00  0.00     0.001 A 
ATOM     11  C   UNL d   1      27.244 -13.914  -3.379  0.00  0.00     0.007 A 
ATOM     12  C   UNL d   1      26.142 -14.788  -3.279  0.00  0.00    -0.052 A 
ATOM     13  C   UNL d   1      25.535 -15.217  -4.579  0.00  0.00     0.049 C 
ENDBRANCH   6   7
ENDBRANCH   1   5
BRANCH   3  14
ATOM     14  N   UNL d   1      21.658 -19.035   0.312  0.00  0.00    -0.261 N 
ATOM     15  C   UNL d   1      20.436 -18.951  -0.355  0.00  0.00     0.293 C 
ATOM     16  O   UNL d   1      20.250 -18.124  -1.255  0.00  0.00    -0.264 OA
ATOM     17  H   UNL d   1      21.866 -19.775   0.979  0.00  0.00     0.190 HD
BRANCH  15  18
ATOM     18  C   UNL d   1      19.423 -19.886   0.123  0.00  0.00     0.144 A 
ATOM     19  C   UNL d   1      19.214 -20.439   1.376  0.00  0.00     0.045 A 
ATOM     20  C   UNL d   1      18.076 -21.277   1.285  0.00  0.00     0.027 A 
ATOM     21  C   UNL d   1      17.650 -21.198  -0.018  0.00  0.00     0.143 A 
ATOM     22  O   UNL d   1      18.442 -20.344  -0.727  0.00  0.00    -0.317 OA
ENDBRANCH  15  18
ENDBRANCH   3  14
TORSDOF 4
ENDMDL
MODEL 4
REMARK VINA RESULT:    -7.088      1.936      2.560
REMARK INTER + INTRA:          -8.981
REMARK INTER:                  -8.281
REMARK INTRA:                  -0.700
REMARK CONF_INDEPENDENT:        1.193
REMARK UNBOUND:                -0.700
REMARK  4 active torsions:
REMARK  status: ('A' for Active; 'I' for Inactive)
REMARK    1  A    between atoms: C_7  and  C_8 
REMARK    2  A    between atoms: C_9  and  C_10 
REMARK       I    between atoms: C_10  and  N_12 
REMARK    3  A    between atoms: N_12  and  N_13 
REMARK       I    between atoms: N_13  and  C_14 
REMARK    4  A    between atoms: C_14  and  C_16 
ROOT
ATOM      1  C   UNL d   1      24.525 -17.762  -0.513  0.00  0.00     0.259 C 
ATOM      2  O   UNL d   1      24.696 -18.921  -0.145  0.00  0.00    -0.267 OA
ATOM      3  N   UNL d   1      23.284 -17.125  -0.520  0.00  0.00    -0.264 N 
ATOM      4  H   UNL d   1      23.119 -16.164  -0.817  0.00  0.00     0.190 HD
ENDROOT
BRANCH   1   5
ATOM      5  C   UNL d   1      25.638 -16.898  -0.992  0.00  0.00     0.076 C 
ATOM      6  C   UNL d   1      26.387 -16.030  -0.278  0.00  0.00     0.017 C 
BRANCH   6   7
ATOM      7  C   UNL d   1      27.513 -15.159  -0.777  0.00  0.00    -0.030 A 
ATOM      8  C   UNL d   1      28.426 -15.705  -1.714  0.00  0.00     0.012 A 
ATOM      9  C   UNL d   1      29.499 -14.954  -2.233  0.00  0.00     0.001 A 
ATOM     10  C   UNL d   1      29.697 -13.642  -1.827  0.00  0.00     0.001 A 
ATOM     11  C   UNL d   1      28.821 -13.081  -0.910  0.00  0.00     0.007 A 
ATOM     12  C   UNL d   1      27.738 -13.815  -0.387  0.00  0.00    -0.052 A 
ATOM     13  C   UNL d   1      26.862 -13.079   0.580  0.00  0.00     0.049 C 
ENDBRANCH   6   7
ENDBRANCH   1   5
BRANCH   3  14
ATOM     14  N   UNL d   1      22.155 -17.840  -0.055  0.00  0.00    -0.261 N 
ATOM     15  C   UNL d   1      21.642 -18.933  -0.753  0.00  0.00     0.293 C 
ATOM     16  O   UNL d   1      22.151 -19.316  -1.813  0.00  0.00    -0.264 OA
ATOM     17  H   UNL d   1      21.819 -17.576   0.868  0.00  0.00     0.190 HD
BRANCH  15  18
ATOM     18  C   UNL d   1      20.465 -19.540  -0.142  0.00  0.00     0.144 A 
ATOM     19  C   UNL d   1      20.173 -19.830   1.181  0.00  0.00     0.045 A 
ATOM     20  C   UNL d   1      18.880 -20.407   1.213  0.00  0.00     0.027 A 
ATOM     21  C   UNL d   1      18.449 -20.444  -0.090  0.00  0.00     0.143 A 
ATOM     22  O   UNL d   1      19.388 -19.905  -0.918  0.00  0.00    -0.317 OA
ENDBRANCH  15  18
ENDBRANCH   3  14
TORSDOF 4
ENDMDL
MODEL 5
REMARK VINA RESULT:    -6.679      3.044      8.878
REMARK INTER + INTRA:          -9.549
REMARK INTER:                  -7.873
REMARK INTRA:                  -1.676
REMARK CONF_INDEPENDENT:        1.193
REMARK UNBOUND:                -1.676
REMARK  4 active torsions:
REMARK  status: ('A' for Active; 'I' for Inactive)
REMARK    1  A    between atoms: C_7  and  C_8 
REMARK    2  A    between atoms: C_9  and  C_10 
REMARK       I    between atoms: C_10  and  N_12 
REMARK    3  A    between atoms: N_12  and  N_13 
REMARK       I    between atoms: N_13  and  C_14 
REMARK    4  A    between atoms: C_14  and  C_16 
ROOT
ATOM      1  C   UNL d   1      23.467 -17.160  -0.788  0.00  0.00     0.259 C 
ATOM      2  O   UNL d   1      23.421 -16.029  -1.265  0.00  0.00    -0.267 OA
ATOM      3  N   UNL d   1      24.650 -17.799  -0.419  0.00  0.00    -0.264 N 
ATOM      4  H   UNL d   1      24.711 -18.734  -0.018  0.00  0.00     0.190 HD
ENDROOT
BRANCH   1   5
ATOM      5  C   UNL d   1      22.248 -17.979  -0.544  0.00  0.00     0.076 C 
ATOM      6  C   UNL d   1      21.860 -18.575   0.604  0.00  0.00     0.017 C 
BRANCH   6   7
ATOM      7  C   UNL d   1      20.622 -19.404   0.837  0.00  0.00    -0.030 A 
ATOM      8  C   UNL d   1      20.245 -19.695   2.172  0.00  0.00     0.012 A 
ATOM      9  C   UNL d   1      19.098 -20.456   2.473  0.00  0.00     0.001 A 
ATOM     10  C   UNL d   1      18.300 -20.955   1.453  0.00  0.00     0.001 A 
ATOM     11  C   UNL d   1      18.645 -20.688   0.137  0.00  0.00     0.007 A 
ATOM     12  C   UNL d   1      19.784 -19.922  -0.181  0.00  0.00    -0.052 A 
ATOM     13  C   UNL d   1      20.027 -19.697  -1.643  0.00  0.00     0.049 C 
ENDBRANCH   6   7
ENDBRANCH   1   5
BRANCH   3  14
ATOM     14  N   UNL d   1      25.872 -17.103  -0.576  0.00  0.00    -0.261 N 
ATOM     15  C   UNL d   1      27.093 -17.678  -0.225  0.00  0.00     0.293 C 
ATOM     16  O   UNL d   1      27.154 -18.820   0.245  0.00  0.00    -0.264 OA
ATOM     17  H   UNL d   1      25.809 -16.210  -1.061  0.00  0.00     0.190 HD
BRANCH  15  18
ATOM     18  C   UNL d   1      28.249 -16.814  -0.435  0.00  0.00     0.144 A 
ATOM     19  C   UNL d   1      29.605 -17.056  -0.284  0.00  0.00     0.045 A 
ATOM     20  C   UNL d   1      30.289 -15.866  -0.634  0.00  0.00     0.027 A 
ATOM     21  C   UNL d   1      29.318 -14.957  -0.976  0.00  0.00     0.143 A 
ATOM     22  O   UNL d   1      28.082 -15.523  -0.880  0.00  0.00    -0.317 OA
ENDBRANCH  15  18
ENDBRANCH   3  14
TORSDOF 4
ENDMDL
MODEL 6
REMARK VINA RESULT:    -6.601      2.294      8.907
REMARK INTER + INTRA:          -9.390
REMARK INTER:                  -7.794
REMARK INTRA:                  -1.595
REMARK CONF_INDEPENDENT:        1.193
REMARK UNBOUND:                -1.595
REMARK  4 active torsions:
REMARK  status: ('A' for Active; 'I' for Inactive)
REMARK    1  A    between atoms: C_7  and  C_8 
REMARK    2  A    between atoms: C_9  and  C_10 
REMARK       I    between atoms: C_10  and  N_12 
REMARK    3  A    between atoms: N_12  and  N_13 
REMARK       I    between atoms: N_13  and  C_14 
REMARK    4  A    between atoms: C_14  and  C_16 
ROOT
ATOM      1  C   UNL d   1      24.084 -17.805  -0.768  0.00  0.00     0.259 C 
ATOM      2  O   UNL d   1      25.095 -18.117  -0.145  0.00  0.00    -0.267 OA
ATOM      3  N   UNL d   1      24.047 -16.801  -1.735  0.00  0.00    -0.264 N 
ATOM      4  H   UNL d   1      23.221 -16.529  -2.268  0.00  0.00     0.190 HD
ENDROOT
BRANCH   1   5
ATOM      5  C   UNL d   1      22.773 -18.479  -0.561  0.00  0.00     0.076 C 
ATOM      6  C   UNL d   1      22.098 -18.652   0.596  0.00  0.00     0.017 C 
BRANCH   6   7
ATOM      7  C   UNL d   1      20.769 -19.338   0.793  0.00  0.00    -0.030 A 
ATOM      8  C   UNL d   1      20.291 -19.520   2.114  0.00  0.00     0.012 A 
ATOM      9  C   UNL d   1      19.056 -20.144   2.380  0.00  0.00     0.001 A 
ATOM     10  C   UNL d   1      18.269 -20.612   1.338  0.00  0.00     0.001 A 
ATOM     11  C   UNL d   1      18.712 -20.451   0.034  0.00  0.00     0.007 A 
ATOM     12  C   UNL d   1      19.940 -19.821  -0.250  0.00  0.00    -0.052 A 
ATOM     13  C   UNL d   1      20.285 -19.699  -1.703  0.00  0.00     0.049 C 
ENDBRANCH   6   7
ENDBRANCH   1   5
BRANCH   3  14
ATOM     14  N   UNL d   1      25.245 -16.112  -2.040  0.00  0.00    -0.261 N 
ATOM     15  C   UNL d   1      25.250 -14.972  -2.844  0.00  0.00     0.293 C 
ATOM     16  O   UNL d   1      24.204 -14.523  -3.328  0.00  0.00    -0.264 OA
ATOM     17  H   UNL d   1      26.074 -16.435  -1.547  0.00  0.00     0.190 HD
BRANCH  15  18
ATOM     18  C   UNL d   1      26.571 -14.400  -3.071  0.00  0.00     0.144 A 
ATOM     19  C   UNL d   1      27.026 -13.513  -4.034  0.00  0.00     0.045 A 
ATOM     20  C   UNL d   1      28.400 -13.283  -3.784  0.00  0.00     0.027 A 
ATOM     21  C   UNL d   1      28.718 -14.044  -2.685  0.00  0.00     0.143 A 
ATOM     22  O   UNL d   1      27.618 -14.708  -2.232  0.00  0.00    -0.317 OA
ENDBRANCH  15  18
ENDBRANCH   3  14
TORSDOF 4
ENDMDL
MODEL 7
REMARK VINA RESULT:    -6.409      5.510      9.585
REMARK INTER + INTRA:          -9.385
REMARK INTER:                  -7.602
REMARK INTRA:                  -1.783
REMARK CONF_INDEPENDENT:        1.193
REMARK UNBOUND:                -1.783
REMARK  4 active torsions:
REMARK  status: ('A' for Active; 'I' for Inactive)
REMARK    1  A    between atoms: C_7  and  C_8 
REMARK    2  A    between atoms: C_9  and  C_10 
REMARK       I    between atoms: C_10  and  N_12 
REMARK    3  A    between atoms: N_12  and  N_13 
REMARK       I    between atoms: N_13  and  C_14 
REMARK    4  A    between atoms: C_14  and  C_16 
ROOT
ATOM      1  C   UNL d   1      25.240 -13.572  -3.667  0.00  0.00     0.259 C 
ATOM      2  O   UNL d   1      24.520 -13.755  -4.645  0.00  0.00    -0.267 OA
ATOM      3  N   UNL d   1      25.677 -12.316  -3.249  0.00  0.00    -0.264 N 
ATOM      4  H   UNL d   1      26.270 -12.140  -2.439  0.00  0.00     0.190 HD
ENDROOT
BRANCH   1   5
ATOM      5  C   UNL d   1      25.724 -14.686  -2.806  0.00  0.00     0.076 C 
ATOM      6  C   UNL d   1      25.037 -15.379  -1.873  0.00  0.00     0.017 C 
BRANCH   6   7
ATOM      7  C   UNL d   1      25.541 -16.506  -1.006  0.00  0.00    -0.030 A 
ATOM      8  C   UNL d   1      26.913 -16.525  -0.654  0.00  0.00     0.012 A 
ATOM      9  C   UNL d   1      27.460 -17.539   0.158  0.00  0.00     0.001 A 
ATOM     10  C   UNL d   1      26.656 -18.565   0.633  0.00  0.00     0.001 A 
ATOM     11  C   UNL d   1      25.309 -18.574   0.303  0.00  0.00     0.007 A 
ATOM     12  C   UNL d   1      24.745 -17.563  -0.501  0.00  0.00    -0.052 A 
ATOM     13  C   UNL d   1      23.275 -17.688  -0.763  0.00  0.00     0.049 C 
ENDBRANCH   6   7
ENDBRANCH   1   5
BRANCH   3  14
ATOM     14  N   UNL d   1      25.252 -11.177  -3.974  0.00  0.00    -0.261 N 
ATOM     15  C   UNL d   1      25.597  -9.886  -3.576  0.00  0.00     0.293 C 
ATOM     16  O   UNL d   1      26.282  -9.686  -2.566  0.00  0.00    -0.264 OA
ATOM     17  H   UNL d   1      24.781 -11.369  -4.855  0.00  0.00     0.190 HD
BRANCH  15  18
ATOM     18  C   UNL d   1      25.059  -8.829  -4.425  0.00  0.00     0.144 A 
ATOM     19  C   UNL d   1      25.160  -7.450  -4.336  0.00  0.00     0.045 A 
ATOM     20  C   UNL d   1      24.453  -6.902  -5.435  0.00  0.00     0.027 A 
ATOM     21  C   UNL d   1      23.953  -7.971  -6.136  0.00  0.00     0.143 A 
ATOM     22  O   UNL d   1      24.329  -9.143  -5.549  0.00  0.00    -0.317 OA
ENDBRANCH  15  18
ENDBRANCH   3  14
TORSDOF 4
ENDMDL
MODEL 8
REMARK VINA RESULT:    -5.913      5.032      9.672
REMARK INTER + INTRA:          -8.911
REMARK INTER:                  -7.107
REMARK INTRA:                  -1.805
REMARK CONF_INDEPENDENT:        1.193
REMARK UNBOUND:                -1.805
REMARK  4 active torsions:
REMARK  status: ('A' for Active; 'I' for Inactive)
REMARK    1  A    between atoms: C_7  and  C_8 
REMARK    2  A    between atoms: C_9  and  C_10 
REMARK       I    between atoms: C_10  and  N_12 
REMARK    3  A    between atoms: N_12  and  N_13 
REMARK       I    between atoms: N_13  and  C_14 
REMARK    4  A    between atoms: C_14  and  C_16 
ROOT
ATOM      1  C   UNL d   1      26.192 -14.871  -4.661  0.00  0.00     0.259 C 
ATOM      2  O   UNL d   1      26.791 -15.200  -5.681  0.00  0.00    -0.267 OA
ATOM      3  N   UNL d   1      25.797 -13.564  -4.380  0.00  0.00    -0.264 N 
ATOM      4  H   UNL d   1      25.296 -13.269  -3.542  0.00  0.00     0.190 HD
ENDROOT
BRANCH   1   5
ATOM      5  C   UNL d   1      25.812 -15.846  -3.602  0.00  0.00     0.076 C 
ATOM      6  C   UNL d   1      25.155 -15.609  -2.446  0.00  0.00     0.017 C 
BRANCH   6   7
ATOM      7  C   UNL d   1      24.777 -16.608  -1.381  0.00  0.00    -0.030 A 
ATOM      8  C   UNL d   1      23.406 -16.917  -1.200  0.00  0.00     0.012 A 
ATOM      9  C   UNL d   1      22.973 -17.844  -0.231  0.00  0.00     0.001 A 
ATOM     10  C   UNL d   1      23.893 -18.483   0.588  0.00  0.00     0.001 A 
ATOM     11  C   UNL d   1      25.242 -18.199   0.436  0.00  0.00     0.007 A 
ATOM     12  C   UNL d   1      25.692 -17.280  -0.533  0.00  0.00    -0.052 A 
ATOM     13  C   UNL d   1      27.176 -17.083  -0.600  0.00  0.00     0.049 C 
ENDBRANCH   6   7
ENDBRANCH   1   5
BRANCH   3  14
ATOM     14  N   UNL d   1      26.077 -12.554  -5.331  0.00  0.00    -0.261 N 
ATOM     15  C   UNL d   1      25.919 -11.201  -5.031  0.00  0.00     0.293 C 
ATOM     16  O   UNL d   1      25.519 -10.831  -3.921  0.00  0.00    -0.264 OA
ATOM     17  H   UNL d   1      26.502 -12.874  -6.198  0.00  0.00     0.190 HD
BRANCH  15  18
ATOM     18  C   UNL d   1      26.232 -10.299  -6.132  0.00  0.00     0.144 A 
ATOM     19  C   UNL d   1      26.152  -8.919  -6.229  0.00  0.00     0.045 A 
ATOM     20  C   UNL d   1      26.592  -8.558  -7.526  0.00  0.00     0.027 A 
ATOM     21  C   UNL d   1      26.914  -9.734  -8.158  0.00  0.00     0.143 A 
ATOM     22  O   UNL d   1      26.722 -10.793  -7.320  0.00  0.00    -0.317 OA
ENDBRANCH  15  18
ENDBRANCH   3  14
TORSDOF 4
ENDMDL
