MODEL 1
REMARK VINA RESULT:   -19.911      0.000      0.000
REMARK INTER + INTRA:         -23.749
REMARK INTER:                 -22.595
REMARK INTRA:                  -1.154
REMARK CONF_INDEPENDENT:        2.685
REMARK UNBOUND:                -1.154
REMARK  9 active torsions:
REMARK  status: ('A' for Active; 'I' for Inactive)
REMARK    1  A    between atoms: C_2  and  N_3 
REMARK    2  A    between atoms: C_2  and  C_31 
REMARK       I    between atoms: N_3  and  C_4 
REMARK    3  A    between atoms: C_4  and  C_6 
REMARK    4  A    between atoms: C_11  and  N_12 
REMARK       I    between atoms: N_12  and  C_13 
REMARK    5  A    between atoms: C_13  and  C_15 
REMARK    6  A    between atoms: C_15  and  O_16 
REMARK    7  A    between atoms: O_16  and  C_17 
REMARK    8  A    between atoms: C_17  and  C_19 
REMARK    9  A    between atoms: C_19  and  C_20 
ROOT
ATOM      1  N   UNL d   1      29.469 -17.373  -0.247  0.00  0.00    -0.324 N 
ATOM      2  C   UNL d   1      28.387 -17.073  -1.124  0.00  0.00     0.246 C 
ATOM      3  O   UNL d   1      28.573 -17.090  -2.340  0.00  0.00    -0.271 OA
ATOM      4  H   UNL d   1      29.306 -18.106   0.436  0.00  0.00     0.169 HD
ENDROOT
BRANCH   1   5
ATOM      5  C   UNL d   1      30.886 -17.238  -0.614  0.00  0.00     0.050 A 
ATOM      6  C   UNL d   1      31.537 -18.315  -1.285  0.00  0.00     0.030 A 
ATOM      7  C   UNL d   1      32.904 -18.265  -1.644  0.00  0.00     0.002 A 
ATOM      8  C   UNL d   1      33.654 -17.133  -1.359  0.00  0.00     0.001 A 
ATOM      9  C   UNL d   1      33.061 -16.089  -0.649  0.00  0.00     0.019 A 
ATOM     10  C   UNL d   1      31.685 -16.115  -0.306  0.00  0.00     0.058 A 
BRANCH  10  11
ATOM     11  C   UNL d   1      31.146 -14.836   0.223  0.00  0.00     0.254 C 
ATOM     12  N   UNL d   1      30.494 -14.858   1.452  0.00  0.00    -0.349 N 
ATOM     13  H   UNL d   1      30.326 -15.757   1.876  0.00  0.00     0.163 HD
ATOM     14  O   UNL d   1      31.263 -13.838  -0.481  0.00  0.00    -0.268 OA
BRANCH  12  15
ATOM     15  C   UNL d   1      29.579 -13.759   1.818  0.00  0.00     0.114 C 
ATOM     16  C   UNL d   1      30.396 -12.499   1.869  0.00  0.00     0.037 C 
BRANCH  15  17
ATOM     17  C   UNL d   1      28.995 -13.950   3.214  0.00  0.00    -0.036 C 
ATOM     18  C   UNL d   1      27.741 -13.451   3.560  0.00  0.00     0.009 C 
ATOM     19  C   UNL d   1      27.200 -13.476   4.864  0.00  0.00     0.001 C 
ATOM     20  C   UNL d   1      27.871 -14.023   5.892  0.00  0.00     0.000 C 
ATOM     21  C   UNL d   1      29.114 -14.381   5.545  0.00  0.00     0.001 C 
ATOM     22  C   UNL d   1      29.639 -14.588   4.233  0.00  0.00     0.009 C 
ENDBRANCH  15  17
ENDBRANCH  12  15
ENDBRANCH  10  11
ENDBRANCH   1   5
BRANCH   2  23
ATOM     23  C   UNL d   1      26.844 -16.874  -0.576  0.00  0.00     0.281 C 
BRANCH  23  24
ATOM     24  O   UNL d   1      25.501 -17.610  -1.150  0.00  0.00    -0.312 OA
BRANCH  24  25
ATOM     25  C   UNL d   1      24.192 -17.002  -1.564  0.00  0.00     0.262 C 
ATOM     26  O   UNL d   1      24.318 -15.869  -2.075  0.00  0.00    -0.265 OA
BRANCH  25  27
ATOM     27  C   UNL d   1      22.507 -17.846  -1.507  0.00  0.00     0.153 C 
BRANCH  27  28
ATOM     28  C   UNL d   1      21.810 -19.422  -0.421  0.00  0.00     0.137 C 
ATOM     29  N   UNL d   1      21.024 -18.374  -0.206  0.00  0.00    -0.216 NA
ATOM     30  N   UNL d   1      19.905 -18.590  -0.895  0.00  0.00    -0.150 NA
ATOM     31  C   UNL d   1      19.075 -18.839   0.128  0.00  0.00     0.251 C 
ATOM     32  H   UNL d   1      20.068 -19.401  -1.534  0.00  0.00     0.158 HD
ATOM     33  O   UNL d   1      18.784 -18.197   1.125  0.00  0.00    -0.272 OA
ATOM     34  C   UNL d   1      19.099 -20.236   0.217  0.00  0.00     0.037 C 
ATOM     35  C   UNL d   1      17.673 -20.688   0.421  0.00  0.00     0.017 C 
ATOM     36  C   UNL d   1      20.461 -20.719   0.121  0.00  0.00    -0.008 C 
ATOM     37  C   UNL d   1      17.260 -21.936   0.755  0.00  0.00     0.001 C 
ATOM     38  C   UNL d   1      18.384 -22.715   0.863  0.00  0.00     0.001 C 
ATOM     39  C   UNL d   1      19.943 -22.153   0.604  0.00  0.00     0.011 C 
ENDBRANCH  27  28
ENDBRANCH  25  27
ENDBRANCH  24  25
ENDBRANCH  23  24
ENDBRANCH   2  23
TORSDOF 9
ENDMDL
MODEL 2
REMARK VINA RESULT:   -19.766      2.302      3.114
REMARK INTER + INTRA:         -23.560
REMARK INTER:                 -22.451
REMARK INTRA:                  -1.109
REMARK CONF_INDEPENDENT:        2.685
REMARK UNBOUND:                -1.109
REMARK  9 active torsions:
REMARK  status: ('A' for Active; 'I' for Inactive)
REMARK    1  A    between atoms: C_2  and  N_3 
REMARK    2  A    between atoms: C_2  and  C_31 
REMARK       I    between atoms: N_3  and  C_4 
REMARK    3  A    between atoms: C_4  and  C_6 
REMARK    4  A    between atoms: C_11  and  N_12 
REMARK       I    between atoms: N_12  and  C_13 
REMARK    5  A    between atoms: C_13  and  C_15 
REMARK    6  A    between atoms: C_15  and  O_16 
REMARK    7  A    between atoms: O_16  and  C_17 
REMARK    8  A    between atoms: C_17  and  C_19 
REMARK    9  A    between atoms: C_19  and  C_20 
ROOT
ATOM      1  N   UNL d   1      27.676 -15.006   1.003  0.00  0.00    -0.324 N 
ATOM      2  C   UNL d   1      27.689 -16.303   0.415  0.00  0.00     0.246 C 
ATOM      3  O   UNL d   1      28.768 -16.839   0.160  0.00  0.00    -0.271 OA
ATOM      4  H   UNL d   1      27.141 -14.904   1.860  0.00  0.00     0.169 HD
ENDROOT
BRANCH   1   5
ATOM      5  C   UNL d   1      28.786 -14.047   0.905  0.00  0.00     0.050 A 
ATOM      6  C   UNL d   1      29.269 -13.669  -0.383  0.00  0.00     0.030 A 
ATOM      7  C   UNL d   1      30.350 -12.774  -0.551  0.00  0.00     0.002 A 
ATOM      8  C   UNL d   1      30.968 -12.217   0.560  0.00  0.00     0.001 A 
ATOM      9  C   UNL d   1      30.559 -12.615   1.833  0.00  0.00     0.019 A 
ATOM     10  C   UNL d   1      29.459 -13.492   2.016  0.00  0.00     0.058 A 
BRANCH  10  11
ATOM     11  C   UNL d   1      28.990 -13.625   3.419  0.00  0.00     0.254 C 
ATOM     12  N   UNL d   1      29.772 -14.359   4.305  0.00  0.00    -0.349 N 
ATOM     13  H   UNL d   1      30.567 -14.852   3.929  0.00  0.00     0.163 HD
ATOM     14  O   UNL d   1      27.907 -13.121   3.704  0.00  0.00    -0.268 OA
BRANCH  12  15
ATOM     15  C   UNL d   1      29.176 -14.890   5.547  0.00  0.00     0.114 C 
ATOM     16  C   UNL d   1      27.807 -15.404   5.198  0.00  0.00     0.037 C 
BRANCH  15  17
ATOM     17  C   UNL d   1      28.972 -13.797   6.590  0.00  0.00    -0.036 C 
ATOM     18  C   UNL d   1      28.662 -12.487   6.229  0.00  0.00     0.009 C 
ATOM     19  C   UNL d   1      28.591 -11.403   7.132  0.00  0.00     0.001 C 
ATOM     20  C   UNL d   1      28.802 -11.570   8.448  0.00  0.00     0.000 C 
ATOM     21  C   UNL d   1      29.213 -12.812   8.736  0.00  0.00     0.001 C 
ATOM     22  C   UNL d   1      29.095 -13.988   7.935  0.00  0.00     0.009 C 
ENDBRANCH  15  17
ENDBRANCH  12  15
ENDBRANCH  10  11
ENDBRANCH   1   5
BRANCH   2  23
ATOM     23  C   UNL d   1      26.314 -17.192   0.222  0.00  0.00     0.281 C 
BRANCH  23  24
ATOM     24  O   UNL d   1      25.434 -17.345  -1.148  0.00  0.00    -0.312 OA
BRANCH  24  25
ATOM     25  C   UNL d   1      24.050 -16.847  -1.445  0.00  0.00     0.262 C 
ATOM     26  O   UNL d   1      24.016 -15.627  -1.712  0.00  0.00    -0.265 OA
BRANCH  25  27
ATOM     27  C   UNL d   1      22.494 -17.902  -1.584  0.00  0.00     0.153 C 
BRANCH  27  28
ATOM     28  C   UNL d   1      21.807 -19.468  -0.477  0.00  0.00     0.137 C 
ATOM     29  N   UNL d   1      21.042 -18.410  -0.242  0.00  0.00    -0.216 NA
ATOM     30  N   UNL d   1      19.901 -18.612  -0.898  0.00  0.00    -0.150 NA
ATOM     31  C   UNL d   1      19.097 -18.849   0.148  0.00  0.00     0.251 C 
ATOM     32  H   UNL d   1      20.035 -19.426  -1.540  0.00  0.00     0.158 HD
ATOM     33  O   UNL d   1      18.842 -18.203   1.152  0.00  0.00    -0.272 OA
ATOM     34  C   UNL d   1      19.106 -20.246   0.239  0.00  0.00     0.037 C 
ATOM     35  C   UNL d   1      17.680 -20.680   0.484  0.00  0.00     0.017 C 
ATOM     36  C   UNL d   1      20.458 -20.746   0.105  0.00  0.00    -0.008 C 
ATOM     37  C   UNL d   1      17.262 -21.922   0.831  0.00  0.00     0.001 C 
ATOM     38  C   UNL d   1      18.378 -22.715   0.909  0.00  0.00     0.001 C 
ATOM     39  C   UNL d   1      19.936 -22.173   0.605  0.00  0.00     0.011 C 
ENDBRANCH  27  28
ENDBRANCH  25  27
ENDBRANCH  24  25
ENDBRANCH  23  24
ENDBRANCH   2  23
TORSDOF 9
ENDMDL
MODEL 3
REMARK VINA RESULT:   -19.745      2.795      4.434
REMARK INTER + INTRA:         -23.933
REMARK INTER:                 -22.430
REMARK INTRA:                  -1.503
REMARK CONF_INDEPENDENT:        2.685
REMARK UNBOUND:                -1.503
REMARK  9 active torsions:
REMARK  status: ('A' for Active; 'I' for Inactive)
REMARK    1  A    between atoms: C_2  and  N_3 
REMARK    2  A    between atoms: C_2  and  C_31 
REMARK       I    between atoms: N_3  and  C_4 
REMARK    3  A    between atoms: C_4  and  C_6 
REMARK    4  A    between atoms: C_11  and  N_12 
REMARK       I    between atoms: N_12  and  C_13 
REMARK    5  A    between atoms: C_13  and  C_15 
REMARK    6  A    between atoms: C_15  and  O_16 
REMARK    7  A    between atoms: O_16  and  C_17 
REMARK    8  A    between atoms: C_17  and  C_19 
REMARK    9  A    between atoms: C_19  and  C_20 
ROOT
ATOM      1  N   UNL d   1      29.136 -17.266  -0.276  0.00  0.00    -0.324 N 
ATOM      2  C   UNL d   1      27.860 -16.761  -0.657  0.00  0.00     0.246 C 
ATOM      3  O   UNL d   1      27.773 -16.009  -1.628  0.00  0.00    -0.271 OA
ATOM      4  H   UNL d   1      29.215 -18.275  -0.188  0.00  0.00     0.169 HD
ENDROOT
BRANCH   1   5
ATOM      5  C   UNL d   1      30.412 -16.622  -0.621  0.00  0.00     0.050 A 
ATOM      6  C   UNL d   1      31.420 -16.493   0.379  0.00  0.00     0.030 A 
ATOM      7  C   UNL d   1      32.659 -15.861   0.125  0.00  0.00     0.002 A 
ATOM      8  C   UNL d   1      32.934 -15.357  -1.138  0.00  0.00     0.001 A 
ATOM      9  C   UNL d   1      31.944 -15.412  -2.119  0.00  0.00     0.019 A 
ATOM     10  C   UNL d   1      30.707 -16.067  -1.886  0.00  0.00     0.058 A 
BRANCH  10  11
ATOM     11  C   UNL d   1      29.863 -16.260  -3.092  0.00  0.00     0.254 C 
ATOM     12  N   UNL d   1      29.313 -15.133  -3.696  0.00  0.00    -0.349 N 
ATOM     13  H   UNL d   1      29.429 -14.249  -3.227  0.00  0.00     0.163 HD
ATOM     14  O   UNL d   1      29.655 -17.413  -3.459  0.00  0.00    -0.268 OA
BRANCH  12  15
ATOM     15  C   UNL d   1      28.150 -15.273  -4.593  0.00  0.00     0.114 C 
ATOM     16  C   UNL d   1      28.646 -15.079  -5.998  0.00  0.00     0.037 C 
BRANCH  15  17
ATOM     17  C   UNL d   1      27.112 -14.184  -4.349  0.00  0.00    -0.036 C 
ATOM     18  C   UNL d   1      27.475 -12.905  -3.931  0.00  0.00     0.009 C 
ATOM     19  C   UNL d   1      26.560 -11.894  -3.561  0.00  0.00     0.001 C 
ATOM     20  C   UNL d   1      25.233 -12.094  -3.610  0.00  0.00     0.000 C 
ATOM     21  C   UNL d   1      24.929 -13.366  -3.899  0.00  0.00     0.001 C 
ATOM     22  C   UNL d   1      25.766 -14.361  -4.489  0.00  0.00     0.009 C 
ENDBRANCH  15  17
ENDBRANCH  12  15
ENDBRANCH  10  11
ENDBRANCH   1   5
BRANCH   2  23
ATOM     23  C   UNL d   1      26.464 -17.284   0.050  0.00  0.00     0.281 C 
BRANCH  23  24
ATOM     24  O   UNL d   1      24.963 -16.681  -0.192  0.00  0.00    -0.312 OA
BRANCH  24  25
ATOM     25  C   UNL d   1      24.077 -16.802  -1.397  0.00  0.00     0.262 C 
ATOM     26  O   UNL d   1      24.540 -16.224  -2.404  0.00  0.00    -0.265 OA
BRANCH  25  27
ATOM     27  C   UNL d   1      22.500 -17.828  -1.521  0.00  0.00     0.153 C 
BRANCH  27  28
ATOM     28  C   UNL d   1      21.815 -19.406  -0.431  0.00  0.00     0.137 C 
ATOM     29  N   UNL d   1      21.026 -18.362  -0.212  0.00  0.00    -0.216 NA
ATOM     30  N   UNL d   1      19.904 -18.582  -0.895  0.00  0.00    -0.150 NA
ATOM     31  C   UNL d   1      19.081 -18.834   0.132  0.00  0.00     0.251 C 
ATOM     32  H   UNL d   1      20.067 -19.392  -1.535  0.00  0.00     0.158 HD
ATOM     33  O   UNL d   1      18.792 -18.193   1.131  0.00  0.00    -0.272 OA
ATOM     34  C   UNL d   1      19.111 -20.231   0.221  0.00  0.00     0.037 C 
ATOM     35  C   UNL d   1      17.687 -20.688   0.433  0.00  0.00     0.017 C 
ATOM     36  C   UNL d   1      20.474 -20.708   0.118  0.00  0.00    -0.008 C 
ATOM     37  C   UNL d   1      17.281 -21.938   0.769  0.00  0.00     0.001 C 
ATOM     38  C   UNL d   1      18.409 -22.713   0.872  0.00  0.00     0.001 C 
ATOM     39  C   UNL d   1      19.964 -22.144   0.604  0.00  0.00     0.011 C 
ENDBRANCH  27  28
ENDBRANCH  25  27
ENDBRANCH  24  25
ENDBRANCH  23  24
ENDBRANCH   2  23
TORSDOF 9
ENDMDL
MODEL 4
REMARK VINA RESULT:   -19.284      1.483      2.028
REMARK INTER + INTRA:         -23.395
REMARK INTER:                 -21.969
REMARK INTRA:                  -1.426
REMARK CONF_INDEPENDENT:        2.685
REMARK UNBOUND:                -1.426
REMARK  9 active torsions:
REMARK  status: ('A' for Active; 'I' for Inactive)
REMARK    1  A    between atoms: C_2  and  N_3 
REMARK    2  A    between atoms: C_2  and  C_31 
REMARK       I    between atoms: N_3  and  C_4 
REMARK    3  A    between atoms: C_4  and  C_6 
REMARK    4  A    between atoms: C_11  and  N_12 
REMARK       I    between atoms: N_12  and  C_13 
REMARK    5  A    between atoms: C_13  and  C_15 
REMARK    6  A    between atoms: C_15  and  O_16 
REMARK    7  A    between atoms: O_16  and  C_17 
REMARK    8  A    between atoms: C_17  and  C_19 
REMARK    9  A    between atoms: C_19  and  C_20 
ROOT
ATOM      1  N   UNL d   1      29.091 -16.965   0.064  0.00  0.00    -0.324 N 
ATOM      2  C   UNL d   1      27.841 -16.585  -0.504  0.00  0.00     0.246 C 
ATOM      3  O   UNL d   1      27.826 -15.928  -1.545  0.00  0.00    -0.271 OA
ATOM      4  H   UNL d   1      29.218 -17.954   0.254  0.00  0.00     0.169 HD
ENDROOT
BRANCH   1   5
ATOM      5  C   UNL d   1      30.358 -16.265  -0.194  0.00  0.00     0.050 A 
ATOM      6  C   UNL d   1      31.438 -16.977  -0.793  0.00  0.00     0.030 A 
ATOM      7  C   UNL d   1      32.692 -16.375  -1.045  0.00  0.00     0.002 A 
ATOM      8  C   UNL d   1      32.898 -15.041  -0.722  0.00  0.00     0.001 A 
ATOM      9  C   UNL d   1      31.881 -14.336  -0.077  0.00  0.00     0.019 A 
ATOM     10  C   UNL d   1      30.610 -14.920   0.157  0.00  0.00     0.058 A 
BRANCH  10  11
ATOM     11  C   UNL d   1      29.562 -13.975   0.621  0.00  0.00     0.254 C 
ATOM     12  N   UNL d   1      28.817 -14.323   1.744  0.00  0.00    -0.349 N 
ATOM     13  H   UNL d   1      28.952 -15.245   2.127  0.00  0.00     0.163 HD
ATOM     14  O   UNL d   1      29.378 -12.961  -0.046  0.00  0.00    -0.268 OA
BRANCH  12  15
ATOM     15  C   UNL d   1      27.514 -13.674   1.991  0.00  0.00     0.114 C 
ATOM     16  C   UNL d   1      26.861 -13.465   0.653  0.00  0.00     0.037 C 
BRANCH  15  17
ATOM     17  C   UNL d   1      27.677 -12.292   2.611  0.00  0.00    -0.036 C 
ATOM     18  C   UNL d   1      28.571 -12.056   3.654  0.00  0.00     0.009 C 
ATOM     19  C   UNL d   1      28.676 -10.837   4.359  0.00  0.00     0.001 C 
ATOM     20  C   UNL d   1      27.913  -9.776   4.046  0.00  0.00     0.000 C 
ATOM     21  C   UNL d   1      26.989 -10.079   3.124  0.00  0.00     0.001 C 
ATOM     22  C   UNL d   1      26.967 -11.191   2.229  0.00  0.00     0.009 C 
ENDBRANCH  15  17
ENDBRANCH  12  15
ENDBRANCH  10  11
ENDBRANCH   1   5
BRANCH   2  23
ATOM     23  C   UNL d   1      26.405 -17.141   0.085  0.00  0.00     0.281 C 
BRANCH  23  24
ATOM     24  O   UNL d   1      24.913 -16.602  -0.311  0.00  0.00    -0.312 OA
BRANCH  24  25
ATOM     25  C   UNL d   1      24.094 -16.895  -1.535  0.00  0.00     0.262 C 
ATOM     26  O   UNL d   1      24.639 -16.512  -2.591  0.00  0.00    -0.265 OA
BRANCH  25  27
ATOM     27  C   UNL d   1      22.484 -17.876  -1.587  0.00  0.00     0.153 C 
BRANCH  27  28
ATOM     28  C   UNL d   1      21.809 -19.445  -0.478  0.00  0.00     0.137 C 
ATOM     29  N   UNL d   1      21.036 -18.393  -0.244  0.00  0.00    -0.216 NA
ATOM     30  N   UNL d   1      19.896 -18.604  -0.901  0.00  0.00    -0.150 NA
ATOM     31  C   UNL d   1      19.094 -18.846   0.146  0.00  0.00     0.251 C 
ATOM     32  H   UNL d   1      20.037 -19.417  -1.542  0.00  0.00     0.158 HD
ATOM     33  O   UNL d   1      18.835 -18.201   1.149  0.00  0.00    -0.272 OA
ATOM     34  C   UNL d   1      19.113 -20.243   0.238  0.00  0.00     0.037 C 
ATOM     35  C   UNL d   1      17.691 -20.687   0.482  0.00  0.00     0.017 C 
ATOM     36  C   UNL d   1      20.470 -20.733   0.104  0.00  0.00    -0.008 C 
ATOM     37  C   UNL d   1      17.282 -21.932   0.831  0.00  0.00     0.001 C 
ATOM     38  C   UNL d   1      18.404 -22.717   0.910  0.00  0.00     0.001 C 
ATOM     39  C   UNL d   1      19.958 -22.164   0.605  0.00  0.00     0.011 C 
ENDBRANCH  27  28
ENDBRANCH  25  27
ENDBRANCH  24  25
ENDBRANCH  23  24
ENDBRANCH   2  23
TORSDOF 9
ENDMDL
MODEL 5
REMARK VINA RESULT:   -19.031      4.151      6.923
REMARK INTER + INTRA:         -23.410
REMARK INTER:                 -21.716
REMARK INTRA:                  -1.695
REMARK CONF_INDEPENDENT:        2.685
REMARK UNBOUND:                -1.695
REMARK  9 active torsions:
REMARK  status: ('A' for Active; 'I' for Inactive)
REMARK    1  A    between atoms: C_2  and  N_3 
REMARK    2  A    between atoms: C_2  and  C_31 
REMARK       I    between atoms: N_3  and  C_4 
REMARK    3  A    between atoms: C_4  and  C_6 
REMARK    4  A    between atoms: C_11  and  N_12 
REMARK       I    between atoms: N_12  and  C_13 
REMARK    5  A    between atoms: C_13  and  C_15 
REMARK    6  A    between atoms: C_15  and  O_16 
REMARK    7  A    between atoms: O_16  and  C_17 
REMARK    8  A    between atoms: C_17  and  C_19 
REMARK    9  A    between atoms: C_19  and  C_20 
ROOT
ATOM      1  N   UNL d   1      28.431 -14.845  -3.523  0.00  0.00    -0.324 N 
ATOM      2  C   UNL d   1      27.029 -15.049  -3.672  0.00  0.00     0.246 C 
ATOM      3  O   UNL d   1      26.584 -15.419  -4.758  0.00  0.00    -0.271 OA
ATOM      4  H   UNL d   1      28.880 -15.337  -2.757  0.00  0.00     0.169 HD
ENDROOT
BRANCH   1   5
ATOM      5  C   UNL d   1      29.345 -14.573  -4.642  0.00  0.00     0.050 A 
ATOM      6  C   UNL d   1      29.281 -13.311  -5.303  0.00  0.00     0.030 A 
ATOM      7  C   UNL d   1      30.111 -12.992  -6.403  0.00  0.00     0.002 A 
ATOM      8  C   UNL d   1      31.040 -13.915  -6.861  0.00  0.00     0.001 A 
ATOM      9  C   UNL d   1      31.083 -15.180  -6.274  0.00  0.00     0.019 A 
ATOM     10  C   UNL d   1      30.275 -15.505  -5.154  0.00  0.00     0.058 A 
BRANCH  10  11
ATOM     11  C   UNL d   1      30.609 -16.791  -4.492  0.00  0.00     0.254 C 
ATOM     12  N   UNL d   1      31.745 -17.473  -4.918  0.00  0.00    -0.349 N 
ATOM     13  H   UNL d   1      32.230 -17.115  -5.725  0.00  0.00     0.163 HD
ATOM     14  O   UNL d   1      29.831 -17.206  -3.637  0.00  0.00    -0.268 OA
BRANCH  12  15
ATOM     15  C   UNL d   1      31.889 -18.914  -4.630  0.00  0.00     0.114 C 
ATOM     16  C   UNL d   1      33.235 -19.106  -3.990  0.00  0.00     0.037 C 
BRANCH  15  17
ATOM     17  C   UNL d   1      31.895 -19.748  -5.905  0.00  0.00    -0.036 C 
ATOM     18  C   UNL d   1      31.538 -19.207  -7.139  0.00  0.00     0.009 C 
ATOM     19  C   UNL d   1      31.395 -19.952  -8.330  0.00  0.00     0.001 C 
ATOM     20  C   UNL d   1      31.624 -21.276  -8.362  0.00  0.00     0.000 C 
ATOM     21  C   UNL d   1      31.846 -21.775  -7.139  0.00  0.00     0.001 C 
ATOM     22  C   UNL d   1      32.218 -21.073  -5.953  0.00  0.00     0.009 C 
ENDBRANCH  15  17
ENDBRANCH  12  15
ENDBRANCH  10  11
ENDBRANCH   1   5
BRANCH   2  23
ATOM     23  C   UNL d   1      25.992 -14.977  -2.391  0.00  0.00     0.281 C 
BRANCH  23  24
ATOM     24  O   UNL d   1      24.546 -15.729  -2.263  0.00  0.00    -0.312 OA
BRANCH  24  25
ATOM     25  C   UNL d   1      24.221 -17.058  -1.646  0.00  0.00     0.262 C 
ATOM     26  O   UNL d   1      25.210 -17.602  -1.108  0.00  0.00    -0.265 OA
BRANCH  25  27
ATOM     27  C   UNL d   1      22.507 -17.831  -1.504  0.00  0.00     0.153 C 
BRANCH  27  28
ATOM     28  C   UNL d   1      21.810 -19.407  -0.419  0.00  0.00     0.137 C 
ATOM     29  N   UNL d   1      21.024 -18.359  -0.205  0.00  0.00    -0.216 NA
ATOM     30  N   UNL d   1      19.905 -18.576  -0.895  0.00  0.00    -0.150 NA
ATOM     31  C   UNL d   1      19.074 -18.825   0.127  0.00  0.00     0.251 C 
ATOM     32  H   UNL d   1      20.069 -19.387  -1.533  0.00  0.00     0.158 HD
ATOM     33  O   UNL d   1      18.782 -18.183   1.124  0.00  0.00    -0.272 OA
ATOM     34  C   UNL d   1      19.099 -20.222   0.217  0.00  0.00     0.037 C 
ATOM     35  C   UNL d   1      17.672 -20.674   0.419  0.00  0.00     0.017 C 
ATOM     36  C   UNL d   1      20.461 -20.704   0.122  0.00  0.00    -0.008 C 
ATOM     37  C   UNL d   1      17.260 -21.923   0.753  0.00  0.00     0.001 C 
ATOM     38  C   UNL d   1      18.385 -22.701   0.863  0.00  0.00     0.001 C 
ATOM     39  C   UNL d   1      19.943 -22.138   0.605  0.00  0.00     0.011 C 
ENDBRANCH  27  28
ENDBRANCH  25  27
ENDBRANCH  24  25
ENDBRANCH  23  24
ENDBRANCH   2  23
TORSDOF 9
ENDMDL
MODEL 6
REMARK VINA RESULT:   -18.971      2.758      5.190
REMARK INTER + INTRA:         -23.755
REMARK INTER:                 -21.656
REMARK INTRA:                  -2.099
REMARK CONF_INDEPENDENT:        2.685
REMARK UNBOUND:                -2.099
REMARK  9 active torsions:
REMARK  status: ('A' for Active; 'I' for Inactive)
REMARK    1  A    between atoms: C_2  and  N_3 
REMARK    2  A    between atoms: C_2  and  C_31 
REMARK       I    between atoms: N_3  and  C_4 
REMARK    3  A    between atoms: C_4  and  C_6 
REMARK    4  A    between atoms: C_11  and  N_12 
REMARK       I    between atoms: N_12  and  C_13 
REMARK    5  A    between atoms: C_13  and  C_15 
REMARK    6  A    between atoms: C_15  and  O_16 
REMARK    7  A    between atoms: O_16  and  C_17 
REMARK    8  A    between atoms: C_17  and  C_19 
REMARK    9  A    between atoms: C_19  and  C_20 
ROOT
ATOM      1  N   UNL d   1      27.063 -14.891   0.113  0.00  0.00    -0.324 N 
ATOM      2  C   UNL d   1      27.093 -16.300   0.316  0.00  0.00     0.246 C 
ATOM      3  O   UNL d   1      27.196 -16.743   1.460  0.00  0.00    -0.271 OA
ATOM      4  H   UNL d   1      26.278 -14.528  -0.419  0.00  0.00     0.169 HD
ENDROOT
BRANCH   1   5
ATOM      5  C   UNL d   1      27.613 -13.912   1.061  0.00  0.00     0.050 A 
ATOM      6  C   UNL d   1      27.511 -14.165   2.461  0.00  0.00     0.030 A 
ATOM      7  C   UNL d   1      27.993 -13.254   3.429  0.00  0.00     0.002 A 
ATOM      8  C   UNL d   1      28.606 -12.075   3.028  0.00  0.00     0.001 A 
ATOM      9  C   UNL d   1      28.664 -11.771   1.668  0.00  0.00     0.019 A 
ATOM     10  C   UNL d   1      28.208 -12.687   0.685  0.00  0.00     0.058 A 
BRANCH  10  11
ATOM     11  C   UNL d   1      28.560 -12.333  -0.713  0.00  0.00     0.254 C 
ATOM     12  N   UNL d   1      27.550 -11.859  -1.544  0.00  0.00    -0.349 N 
ATOM     13  H   UNL d   1      26.607 -11.875  -1.190  0.00  0.00     0.163 HD
ATOM     14  O   UNL d   1      29.718 -12.528  -1.072  0.00  0.00    -0.268 OA
BRANCH  12  15
ATOM     15  C   UNL d   1      27.720 -11.907  -3.010  0.00  0.00     0.114 C 
ATOM     16  C   UNL d   1      26.993 -10.722  -3.581  0.00  0.00     0.037 C 
BRANCH  15  17
ATOM     17  C   UNL d   1      27.067 -13.145  -3.615  0.00  0.00    -0.036 C 
ATOM     18  C   UNL d   1      27.764 -14.002  -4.463  0.00  0.00     0.009 C 
ATOM     19  C   UNL d   1      27.185 -15.086  -5.159  0.00  0.00     0.001 C 
ATOM     20  C   UNL d   1      25.883 -15.390  -5.029  0.00  0.00     0.000 C 
ATOM     21  C   UNL d   1      25.226 -14.475  -4.304  0.00  0.00     0.001 C 
ATOM     22  C   UNL d   1      25.768 -13.505  -3.407  0.00  0.00     0.009 C 
ENDBRANCH  15  17
ENDBRANCH  12  15
ENDBRANCH  10  11
ENDBRANCH   1   5
BRANCH   2  23
ATOM     23  C   UNL d   1      26.817 -17.369  -0.909  0.00  0.00     0.281 C 
BRANCH  23  24
ATOM     24  O   UNL d   1      25.473 -17.468  -1.835  0.00  0.00    -0.312 OA
BRANCH  24  25
ATOM     25  C   UNL d   1      24.101 -16.918  -1.573  0.00  0.00     0.262 C 
ATOM     26  O   UNL d   1      24.092 -15.678  -1.421  0.00  0.00    -0.265 OA
BRANCH  25  27
ATOM     27  C   UNL d   1      22.486 -17.891  -1.612  0.00  0.00     0.153 C 
BRANCH  27  28
ATOM     28  C   UNL d   1      21.812 -19.455  -0.494  0.00  0.00     0.137 C 
ATOM     29  N   UNL d   1      21.038 -18.401  -0.266  0.00  0.00    -0.216 NA
ATOM     30  N   UNL d   1      19.898 -18.616  -0.920  0.00  0.00    -0.150 NA
ATOM     31  C   UNL d   1      19.097 -18.853   0.128  0.00  0.00     0.251 C 
ATOM     32  H   UNL d   1      20.039 -19.433  -1.557  0.00  0.00     0.158 HD
ATOM     33  O   UNL d   1      18.838 -18.201   1.128  0.00  0.00    -0.272 OA
ATOM     34  C   UNL d   1      19.116 -20.249   0.227  0.00  0.00     0.037 C 
ATOM     35  C   UNL d   1      17.694 -20.691   0.475  0.00  0.00     0.017 C 
ATOM     36  C   UNL d   1      20.472 -20.740   0.096  0.00  0.00    -0.008 C 
ATOM     37  C   UNL d   1      17.285 -21.934   0.831  0.00  0.00     0.001 C 
ATOM     38  C   UNL d   1      18.407 -22.719   0.914  0.00  0.00     0.001 C 
ATOM     39  C   UNL d   1      19.961 -22.167   0.605  0.00  0.00     0.011 C 
ENDBRANCH  27  28
ENDBRANCH  25  27
ENDBRANCH  24  25
ENDBRANCH  23  24
ENDBRANCH   2  23
TORSDOF 9
ENDMDL
MODEL 7
REMARK VINA RESULT:   -18.892      2.730      5.349
REMARK INTER + INTRA:         -24.252
REMARK INTER:                 -21.577
REMARK INTRA:                  -2.675
REMARK CONF_INDEPENDENT:        2.685
REMARK UNBOUND:                -2.675
REMARK  9 active torsions:
REMARK  status: ('A' for Active; 'I' for Inactive)
REMARK    1  A    between atoms: C_2  and  N_3 
REMARK    2  A    between atoms: C_2  and  C_31 
REMARK       I    between atoms: N_3  and  C_4 
REMARK    3  A    between atoms: C_4  and  C_6 
REMARK    4  A    between atoms: C_11  and  N_12 
REMARK       I    between atoms: N_12  and  C_13 
REMARK    5  A    between atoms: C_13  and  C_15 
REMARK    6  A    between atoms: C_15  and  O_16 
REMARK    7  A    between atoms: O_16  and  C_17 
REMARK    8  A    between atoms: C_17  and  C_19 
REMARK    9  A    between atoms: C_19  and  C_20 
ROOT
ATOM      1  N   UNL d   1      26.701 -14.820  -0.133  0.00  0.00    -0.324 N 
ATOM      2  C   UNL d   1      27.015 -16.122   0.351  0.00  0.00     0.246 C 
ATOM      3  O   UNL d   1      27.398 -16.259   1.513  0.00  0.00    -0.271 OA
ATOM      4  H   UNL d   1      25.781 -14.702  -0.547  0.00  0.00     0.169 HD
ENDROOT
BRANCH   1   5
ATOM      5  C   UNL d   1      27.229 -13.577   0.449  0.00  0.00     0.050 A 
ATOM      6  C   UNL d   1      27.468 -13.512   1.853  0.00  0.00     0.030 A 
ATOM      7  C   UNL d   1      27.949 -12.341   2.483  0.00  0.00     0.002 A 
ATOM      8  C   UNL d   1      28.222 -11.209   1.727  0.00  0.00     0.001 A 
ATOM      9  C   UNL d   1      27.939 -11.223   0.361  0.00  0.00     0.019 A 
ATOM     10  C   UNL d   1      27.481 -12.399  -0.288  0.00  0.00     0.058 A 
BRANCH  10  11
ATOM     11  C   UNL d   1      27.463 -12.329  -1.771  0.00  0.00     0.254 C 
ATOM     12  N   UNL d   1      26.385 -12.900  -2.441  0.00  0.00    -0.349 N 
ATOM     13  H   UNL d   1      25.720 -13.424  -1.895  0.00  0.00     0.163 HD
ATOM     14  O   UNL d   1      28.430 -11.816  -2.326  0.00  0.00    -0.268 OA
BRANCH  12  15
ATOM     15  C   UNL d   1      26.510 -13.251  -3.869  0.00  0.00     0.114 C 
ATOM     16  C   UNL d   1      25.205 -13.868  -4.290  0.00  0.00     0.037 C 
BRANCH  15  17
ATOM     17  C   UNL d   1      27.581 -14.311  -4.101  0.00  0.00    -0.036 C 
ATOM     18  C   UNL d   1      27.872 -15.281  -3.144  0.00  0.00     0.009 C 
ATOM     19  C   UNL d   1      28.937 -16.205  -3.239  0.00  0.00     0.001 C 
ATOM     20  C   UNL d   1      29.755 -16.227  -4.304  0.00  0.00     0.000 C 
ATOM     21  C   UNL d   1      29.518 -15.207  -5.139  0.00  0.00     0.001 C 
ATOM     22  C   UNL d   1      28.350 -14.390  -5.225  0.00  0.00     0.009 C 
ENDBRANCH  15  17
ENDBRANCH  12  15
ENDBRANCH  10  11
ENDBRANCH   1   5
BRANCH   2  23
ATOM     23  C   UNL d   1      26.718 -17.482  -0.534  0.00  0.00     0.281 C 
BRANCH  23  24
ATOM     24  O   UNL d   1      25.505 -17.702  -1.608  0.00  0.00    -0.312 OA
BRANCH  24  25
ATOM     25  C   UNL d   1      24.145 -17.068  -1.643  0.00  0.00     0.262 C 
ATOM     26  O   UNL d   1      24.187 -15.828  -1.792  0.00  0.00    -0.265 OA
BRANCH  25  27
ATOM     27  C   UNL d   1      22.493 -17.977  -1.633  0.00  0.00     0.153 C 
BRANCH  27  28
ATOM     28  C   UNL d   1      21.801 -19.531  -0.513  0.00  0.00     0.137 C 
ATOM     29  N   UNL d   1      21.059 -18.459  -0.262  0.00  0.00    -0.216 NA
ATOM     30  N   UNL d   1      19.902 -18.640  -0.895  0.00  0.00    -0.150 NA
ATOM     31  C   UNL d   1      19.115 -18.864   0.167  0.00  0.00     0.251 C 
ATOM     32  H   UNL d   1      20.009 -19.456  -1.540  0.00  0.00     0.158 HD
ATOM     33  O   UNL d   1      18.893 -18.214   1.177  0.00  0.00    -0.272 OA
ATOM     34  C   UNL d   1      19.100 -20.261   0.257  0.00  0.00     0.037 C 
ATOM     35  C   UNL d   1      17.672 -20.668   0.530  0.00  0.00     0.017 C 
ATOM     36  C   UNL d   1      20.441 -20.785   0.095  0.00  0.00    -0.008 C 
ATOM     37  C   UNL d   1      17.238 -21.903   0.885  0.00  0.00     0.001 C 
ATOM     38  C   UNL d   1      18.342 -22.717   0.940  0.00  0.00     0.001 C 
ATOM     39  C   UNL d   1      19.903 -22.203   0.605  0.00  0.00     0.011 C 
ENDBRANCH  27  28
ENDBRANCH  25  27
ENDBRANCH  24  25
ENDBRANCH  23  24
ENDBRANCH   2  23
TORSDOF 9
ENDMDL
MODEL 8
REMARK VINA RESULT:   -18.540      3.740      5.302
REMARK INTER + INTRA:         -23.043
REMARK INTER:                 -21.225
REMARK INTRA:                  -1.818
REMARK CONF_INDEPENDENT:        2.685
REMARK UNBOUND:                -1.818
REMARK  9 active torsions:
REMARK  status: ('A' for Active; 'I' for Inactive)
REMARK    1  A    between atoms: C_2  and  N_3 
REMARK    2  A    between atoms: C_2  and  C_31 
REMARK       I    between atoms: N_3  and  C_4 
REMARK    3  A    between atoms: C_4  and  C_6 
REMARK    4  A    between atoms: C_11  and  N_12 
REMARK       I    between atoms: N_12  and  C_13 
REMARK    5  A    between atoms: C_13  and  C_15 
REMARK    6  A    between atoms: C_15  and  O_16 
REMARK    7  A    between atoms: O_16  and  C_17 
REMARK    8  A    between atoms: C_17  and  C_19 
REMARK    9  A    between atoms: C_19  and  C_20 
ROOT
ATOM      1  N   UNL d   1      27.961 -15.375  -3.181  0.00  0.00    -0.324 N 
ATOM      2  C   UNL d   1      26.595 -15.259  -3.570  0.00  0.00     0.246 C 
ATOM      3  O   UNL d   1      26.228 -15.749  -4.638  0.00  0.00    -0.271 OA
ATOM      4  H   UNL d   1      28.137 -15.772  -2.264  0.00  0.00     0.169 HD
ENDROOT
BRANCH   1   5
ATOM      5  C   UNL d   1      29.068 -15.597  -4.123  0.00  0.00     0.050 A 
ATOM      6  C   UNL d   1      28.986 -15.047  -5.436  0.00  0.00     0.030 A 
ATOM      7  C   UNL d   1      30.001 -15.244  -6.401  0.00  0.00     0.002 A 
ATOM      8  C   UNL d   1      31.132 -15.979  -6.077  0.00  0.00     0.001 A 
ATOM      9  C   UNL d   1      31.211 -16.582  -4.822  0.00  0.00     0.019 A 
ATOM     10  C   UNL d   1      30.214 -16.371  -3.835  0.00  0.00     0.058 A 
BRANCH  10  11
ATOM     11  C   UNL d   1      30.557 -16.870  -2.479  0.00  0.00     0.254 C 
ATOM     12  N   UNL d   1      31.593 -17.791  -2.362  0.00  0.00    -0.349 N 
ATOM     13  H   UNL d   1      31.993 -18.155  -3.212  0.00  0.00     0.163 HD
ATOM     14  O   UNL d   1      29.869 -16.477  -1.541  0.00  0.00    -0.268 OA
BRANCH  12  15
ATOM     15  C   UNL d   1      31.693 -18.635  -1.155  0.00  0.00     0.114 C 
ATOM     16  C   UNL d   1      33.070 -18.433  -0.585  0.00  0.00     0.037 C 
BRANCH  15  17
ATOM     17  C   UNL d   1      31.579 -20.118  -1.490  0.00  0.00    -0.036 C 
ATOM     18  C   UNL d   1      31.060 -21.038  -0.580  0.00  0.00     0.009 C 
ATOM     19  C   UNL d   1      31.048 -22.437  -0.775  0.00  0.00     0.001 C 
ATOM     20  C   UNL d   1      31.532 -22.994  -1.897  0.00  0.00     0.000 C 
ATOM     21  C   UNL d   1      32.127 -22.092  -2.688  0.00  0.00     0.001 C 
ATOM     22  C   UNL d   1      31.985 -20.672  -2.668  0.00  0.00     0.009 C 
ENDBRANCH  15  17
ENDBRANCH  12  15
ENDBRANCH  10  11
ENDBRANCH   1   5
BRANCH   2  23
ATOM     23  C   UNL d   1      25.445 -14.645  -2.560  0.00  0.00     0.281 C 
BRANCH  23  24
ATOM     24  O   UNL d   1      24.354 -15.498  -1.689  0.00  0.00    -0.312 OA
BRANCH  24  25
ATOM     25  C   UNL d   1      24.152 -16.983  -1.620  0.00  0.00     0.262 C 
ATOM     26  O   UNL d   1      25.219 -17.616  -1.473  0.00  0.00    -0.265 OA
BRANCH  25  27
ATOM     27  C   UNL d   1      22.493 -17.880  -1.586  0.00  0.00     0.153 C 
BRANCH  27  28
ATOM     28  C   UNL d   1      21.817 -19.450  -0.480  0.00  0.00     0.137 C 
ATOM     29  N   UNL d   1      21.047 -18.396  -0.241  0.00  0.00    -0.216 NA
ATOM     30  N   UNL d   1      19.905 -18.603  -0.895  0.00  0.00    -0.150 NA
ATOM     31  C   UNL d   1      19.105 -18.846   0.152  0.00  0.00     0.251 C 
ATOM     32  H   UNL d   1      20.042 -19.416  -1.539  0.00  0.00     0.158 HD
ATOM     33  O   UNL d   1      18.849 -18.202   1.158  0.00  0.00    -0.272 OA
ATOM     34  C   UNL d   1      19.121 -20.243   0.241  0.00  0.00     0.037 C 
ATOM     35  C   UNL d   1      17.698 -20.684   0.488  0.00  0.00     0.017 C 
ATOM     36  C   UNL d   1      20.475 -20.736   0.103  0.00  0.00    -0.008 C 
ATOM     37  C   UNL d   1      17.286 -21.929   0.834  0.00  0.00     0.001 C 
ATOM     38  C   UNL d   1      18.407 -22.717   0.909  0.00  0.00     0.001 C 
ATOM     39  C   UNL d   1      19.961 -22.167   0.602  0.00  0.00     0.011 C 
ENDBRANCH  27  28
ENDBRANCH  25  27
ENDBRANCH  24  25
ENDBRANCH  23  24
ENDBRANCH   2  23
TORSDOF 9
ENDMDL
MODEL 9
REMARK VINA RESULT:   -18.500      2.692      3.978
REMARK INTER + INTRA:         -23.508
REMARK INTER:                 -21.185
REMARK INTRA:                  -2.323
REMARK CONF_INDEPENDENT:        2.685
REMARK UNBOUND:                -2.323
REMARK  9 active torsions:
REMARK  status: ('A' for Active; 'I' for Inactive)
REMARK    1  A    between atoms: C_2  and  N_3 
REMARK    2  A    between atoms: C_2  and  C_31 
REMARK       I    between atoms: N_3  and  C_4 
REMARK    3  A    between atoms: C_4  and  C_6 
REMARK    4  A    between atoms: C_11  and  N_12 
REMARK       I    between atoms: N_12  and  C_13 
REMARK    5  A    between atoms: C_13  and  C_15 
REMARK    6  A    between atoms: C_15  and  O_16 
REMARK    7  A    between atoms: O_16  and  C_17 
REMARK    8  A    between atoms: C_17  and  C_19 
REMARK    9  A    between atoms: C_19  and  C_20 
ROOT
ATOM      1  N   UNL d   1      29.139 -17.027  -0.387  0.00  0.00    -0.324 N 
ATOM      2  C   UNL d   1      27.822 -16.937  -0.920  0.00  0.00     0.246 C 
ATOM      3  O   UNL d   1      27.665 -16.913  -2.141  0.00  0.00    -0.271 OA
ATOM      4  H   UNL d   1      29.308 -17.780   0.273  0.00  0.00     0.169 HD
ENDROOT
BRANCH   1   5
ATOM      5  C   UNL d   1      30.351 -16.622  -1.115  0.00  0.00     0.050 A 
ATOM      6  C   UNL d   1      31.193 -17.626  -1.677  0.00  0.00     0.030 A 
ATOM      7  C   UNL d   1      32.387 -17.310  -2.366  0.00  0.00     0.002 A 
ATOM      8  C   UNL d   1      32.763 -15.984  -2.529  0.00  0.00     0.001 A 
ATOM      9  C   UNL d   1      31.992 -14.984  -1.937  0.00  0.00     0.019 A 
ATOM     10  C   UNL d   1      30.779 -15.285  -1.266  0.00  0.00     0.058 A 
BRANCH  10  11
ATOM     11  C   UNL d   1      29.951 -14.105  -0.908  0.00  0.00     0.254 C 
ATOM     12  N   UNL d   1      28.612 -14.105  -1.286  0.00  0.00    -0.349 N 
ATOM     13  H   UNL d   1      28.292 -14.858  -1.874  0.00  0.00     0.163 HD
ATOM     14  O   UNL d   1      30.511 -13.171  -0.343  0.00  0.00    -0.268 OA
BRANCH  12  15
ATOM     15  C   UNL d   1      27.868 -12.832  -1.358  0.00  0.00     0.114 C 
ATOM     16  C   UNL d   1      26.655 -12.976  -0.482  0.00  0.00     0.037 C 
BRANCH  15  17
ATOM     17  C   UNL d   1      27.352 -12.556  -2.766  0.00  0.00    -0.036 C 
ATOM     18  C   UNL d   1      26.423 -11.550  -3.023  0.00  0.00     0.009 C 
ATOM     19  C   UNL d   1      25.807 -11.330  -4.275  0.00  0.00     0.001 C 
ATOM     20  C   UNL d   1      26.102 -12.085  -5.346  0.00  0.00     0.000 C 
ATOM     21  C   UNL d   1      26.904 -13.110  -5.029  0.00  0.00     0.001 C 
ATOM     22  C   UNL d   1      27.723 -13.265  -3.871  0.00  0.00     0.009 C 
ENDBRANCH  15  17
ENDBRANCH  12  15
ENDBRANCH  10  11
ENDBRANCH   1   5
BRANCH   2  23
ATOM     23  C   UNL d   1      26.480 -17.039   0.034  0.00  0.00     0.281 C 
BRANCH  23  24
ATOM     24  O   UNL d   1      24.962 -16.579  -0.364  0.00  0.00    -0.312 OA
BRANCH  24  25
ATOM     25  C   UNL d   1      24.146 -16.948  -1.568  0.00  0.00     0.262 C 
ATOM     26  O   UNL d   1      24.721 -16.688  -2.647  0.00  0.00    -0.265 OA
BRANCH  25  27
ATOM     27  C   UNL d   1      22.494 -17.857  -1.558  0.00  0.00     0.153 C 
BRANCH  27  28
ATOM     28  C   UNL d   1      21.814 -19.432  -0.460  0.00  0.00     0.137 C 
ATOM     29  N   UNL d   1      21.036 -18.382  -0.229  0.00  0.00    -0.216 NA
ATOM     30  N   UNL d   1      19.903 -18.594  -0.895  0.00  0.00    -0.150 NA
ATOM     31  C   UNL d   1      19.093 -18.842   0.143  0.00  0.00     0.251 C 
ATOM     32  H   UNL d   1      20.051 -19.405  -1.538  0.00  0.00     0.158 HD
ATOM     33  O   UNL d   1      18.823 -18.201   1.147  0.00  0.00    -0.272 OA
ATOM     34  C   UNL d   1      19.115 -20.240   0.231  0.00  0.00     0.037 C 
ATOM     35  C   UNL d   1      17.692 -20.688   0.462  0.00  0.00     0.017 C 
ATOM     36  C   UNL d   1      20.474 -20.725   0.107  0.00  0.00    -0.008 C 
ATOM     37  C   UNL d   1      17.283 -21.935   0.803  0.00  0.00     0.001 C 
ATOM     38  C   UNL d   1      18.407 -22.718   0.889  0.00  0.00     0.001 C 
ATOM     39  C   UNL d   1      19.962 -22.159   0.599  0.00  0.00     0.011 C 
ENDBRANCH  27  28
ENDBRANCH  25  27
ENDBRANCH  24  25
ENDBRANCH  23  24
ENDBRANCH   2  23
TORSDOF 9
ENDMDL
