MODEL 1
REMARK VINA RESULT:   -25.248      0.000      0.000
REMARK INTER + INTRA:         -29.053
REMARK INTER:                 -27.038
REMARK INTRA:                  -2.015
REMARK CONF_INDEPENDENT:        1.790
REMARK UNBOUND:                -2.015
REMARK  6 active torsions:
REMARK  status: ('A' for Active; 'I' for Inactive)
REMARK    1  A    between atoms: N_2  and  C_3 
REMARK    2  A    between atoms: C_6  and  C_7 
REMARK       I    between atoms: C_7  and  N_9 
REMARK    3  A    between atoms: N_9  and  N_10 
REMARK       I    between atoms: N_10  and  C_11 
REMARK    4  A    between atoms: C_11  and  C_13 
REMARK    5  A    between atoms: C_15  and  C_16 
REMARK    6  A    between atoms: C_25  and  N_26 
ROOT
ATOM      1  C   UNL d   1      25.041 -15.002  -2.523  0.00  0.00     0.270 C 
ATOM      2  O   UNL d   1      24.081 -14.494  -3.101  0.00  0.00    -0.266 OA
ATOM      3  N   UNL d   1      24.894 -16.101  -1.672  0.00  0.00    -0.263 N 
ATOM      4  H   UNL d   1      25.651 -16.582  -1.196  0.00  0.00     0.190 HD
ENDROOT
BRANCH   3   5
ATOM      5  N   UNL d   1      23.616 -16.700  -1.502  0.00  0.00    -0.262 N 
ATOM      6  C   UNL d   1      23.488 -17.867  -0.748  0.00  0.00     0.288 C 
ATOM      7  O   UNL d   1      24.452 -18.415  -0.226  0.00  0.00    -0.264 OA
ATOM      8  H   UNL d   1      22.814 -16.172  -1.838  0.00  0.00     0.190 HD
BRANCH   6   9
ATOM      9  C   UNL d   1      22.134 -18.361  -0.626  0.00  0.00     0.121 A 
ATOM     10  C   UNL d   1      21.606 -19.313   0.223  0.00  0.00     0.071 A 
ATOM     11  C   UNL d   1      20.231 -19.430  -0.098  0.00  0.00     0.089 A 
ATOM     12  N   UNL d   1      19.906 -18.575  -1.079  0.00  0.00    -0.174 NA
ATOM     13  N   UNL d   1      21.047 -17.895  -1.326  0.00  0.00    -0.272 N 
ATOM     14  H   UNL d   1      21.016 -17.153  -2.021  0.00  0.00     0.189 HD
BRANCH  11  15
ATOM     15  C   UNL d   1      19.260 -20.313   0.545  0.00  0.00    -0.006 A 
ATOM     16  C   UNL d   1      19.368 -20.651   1.900  0.00  0.00     0.014 A 
ATOM     17  C   UNL d   1      18.458 -21.545   2.479  0.00  0.00     0.001 A 
ATOM     18  C   UNL d   1      17.395 -22.048   1.729  0.00  0.00     0.000 A 
ATOM     19  C   UNL d   1      17.259 -21.689   0.390  0.00  0.00     0.001 A 
ATOM     20  C   UNL d   1      18.190 -20.830  -0.201  0.00  0.00     0.014 A 
ENDBRANCH  11  15
ENDBRANCH   6   9
ENDBRANCH   3   5
BRANCH   1  21
ATOM     21  C   UNL d   1      26.432 -14.454  -2.759  0.00  0.00     0.036 A 
ATOM     22  C   UNL d   1      27.087 -13.704  -1.781  0.00  0.00     0.019 A 
ATOM     23  C   UNL d   1      28.344 -13.113  -2.049  0.00  0.00     0.032 A 
ATOM     24  C   UNL d   1      29.056 -13.292  -3.270  0.00  0.00     0.061 A 
ATOM     25  C   UNL d   1      28.371 -14.034  -4.256  0.00  0.00     0.130 A 
ATOM     26  C   UNL d   1      27.098 -14.620  -3.970  0.00  0.00     0.055 A 
BRANCH  24  27
ATOM     27  N   UNL d   1      30.309 -12.699  -3.284  0.00  0.00    -0.392 N 
ATOM     28  C   UNL d   1      30.921 -11.841  -2.292  0.00  0.00     0.146 C 
ATOM     29  H   UNL d   1      30.779 -12.690  -4.188  0.00  0.00     0.159 HD
ENDBRANCH  24  27
BRANCH  25  30
ATOM     30  N   UNL d   1      28.845 -14.340  -5.630  0.00  0.00    -0.113 N 
ATOM     31  O   UNL d   1      29.792 -13.670  -6.065  0.00  0.00    -0.532 OA
ATOM     32  O   UNL d   1      28.330 -15.237  -6.296  0.00  0.00    -0.532 OA
ENDBRANCH  25  30
ENDBRANCH   1  21
TORSDOF 6
ENDMDL
MODEL 2
REMARK VINA RESULT:   -24.585      1.682      2.410
REMARK INTER + INTRA:         -28.367
REMARK INTER:                 -26.375
REMARK INTRA:                  -1.992
REMARK CONF_INDEPENDENT:        1.790
REMARK UNBOUND:                -1.992
REMARK  6 active torsions:
REMARK  status: ('A' for Active; 'I' for Inactive)
REMARK    1  A    between atoms: N_2  and  C_3 
REMARK    2  A    between atoms: C_6  and  C_7 
REMARK       I    between atoms: C_7  and  N_9 
REMARK    3  A    between atoms: N_9  and  N_10 
REMARK       I    between atoms: N_10  and  C_11 
REMARK    4  A    between atoms: C_11  and  C_13 
REMARK    5  A    between atoms: C_15  and  C_16 
REMARK    6  A    between atoms: C_25  and  N_26 
ROOT
ATOM      1  C   UNL d   1      25.037 -14.974  -2.463  0.00  0.00     0.270 C 
ATOM      2  O   UNL d   1      24.107 -14.538  -3.139  0.00  0.00    -0.266 OA
ATOM      3  N   UNL d   1      24.864 -16.028  -1.562  0.00  0.00    -0.263 N 
ATOM      4  H   UNL d   1      25.600 -16.451  -1.003  0.00  0.00     0.190 HD
ENDROOT
BRANCH   3   5
ATOM      5  N   UNL d   1      23.599 -16.668  -1.453  0.00  0.00    -0.262 N 
ATOM      6  C   UNL d   1      23.416 -17.695  -0.526  0.00  0.00     0.288 C 
ATOM      7  O   UNL d   1      24.320 -18.085   0.203  0.00  0.00    -0.264 OA
ATOM      8  H   UNL d   1      22.831 -16.256  -1.977  0.00  0.00     0.190 HD
BRANCH   6   9
ATOM      9  C   UNL d   1      22.078 -18.244  -0.492  0.00  0.00     0.121 A 
ATOM     10  C   UNL d   1      21.523 -19.187   0.351  0.00  0.00     0.071 A 
ATOM     11  C   UNL d   1      20.184 -19.377  -0.073  0.00  0.00     0.089 A 
ATOM     12  N   UNL d   1      19.905 -18.575  -1.112  0.00  0.00    -0.174 NA
ATOM     13  N   UNL d   1      21.033 -17.854  -1.294  0.00  0.00    -0.272 N 
ATOM     14  H   UNL d   1      21.028 -17.141  -2.019  0.00  0.00     0.189 HD
BRANCH  11  15
ATOM     15  C   UNL d   1      19.202 -20.278   0.526  0.00  0.00    -0.006 A 
ATOM     16  C   UNL d   1      18.118 -20.770  -0.213  0.00  0.00     0.014 A 
ATOM     17  C   UNL d   1      17.159 -21.586   0.399  0.00  0.00     0.001 A 
ATOM     18  C   UNL d   1      17.314 -21.974   1.730  0.00  0.00     0.000 A 
ATOM     19  C   UNL d   1      18.408 -21.518   2.463  0.00  0.00     0.001 A 
ATOM     20  C   UNL d   1      19.345 -20.670   1.865  0.00  0.00     0.014 A 
ENDBRANCH  11  15
ENDBRANCH   6   9
ENDBRANCH   3   5
BRANCH   1  21
ATOM     21  C   UNL d   1      26.422 -14.384  -2.626  0.00  0.00     0.036 A 
ATOM     22  C   UNL d   1      27.389 -15.019  -3.405  0.00  0.00     0.019 A 
ATOM     23  C   UNL d   1      28.708 -14.512  -3.469  0.00  0.00     0.032 A 
ATOM     24  C   UNL d   1      29.123 -13.311  -2.828  0.00  0.00     0.061 A 
ATOM     25  C   UNL d   1      28.140 -12.692  -2.027  0.00  0.00     0.130 A 
ATOM     26  C   UNL d   1      26.812 -13.222  -1.969  0.00  0.00     0.055 A 
BRANCH  24  27
ATOM     27  N   UNL d   1      30.435 -12.951  -3.099  0.00  0.00    -0.392 N 
ATOM     28  C   UNL d   1      31.402 -13.610  -3.950  0.00  0.00     0.146 C 
ATOM     29  H   UNL d   1      30.839 -12.261  -2.468  0.00  0.00     0.159 HD
ENDBRANCH  24  27
BRANCH  25  30
ATOM     30  N   UNL d   1      28.300 -11.460  -1.211  0.00  0.00    -0.113 N 
ATOM     31  O   UNL d   1      29.341 -10.807  -1.369  0.00  0.00    -0.532 OA
ATOM     32  O   UNL d   1      27.422 -11.096  -0.430  0.00  0.00    -0.532 OA
ENDBRANCH  25  30
ENDBRANCH   1  21
TORSDOF 6
ENDMDL
MODEL 3
REMARK VINA RESULT:   -24.585      2.211      2.495
REMARK INTER + INTRA:         -27.728
REMARK INTER:                 -26.374
REMARK INTRA:                  -1.353
REMARK CONF_INDEPENDENT:        1.790
REMARK UNBOUND:                -1.353
REMARK  6 active torsions:
REMARK  status: ('A' for Active; 'I' for Inactive)
REMARK    1  A    between atoms: N_2  and  C_3 
REMARK    2  A    between atoms: C_6  and  C_7 
REMARK       I    between atoms: C_7  and  N_9 
REMARK    3  A    between atoms: N_9  and  N_10 
REMARK       I    between atoms: N_10  and  C_11 
REMARK    4  A    between atoms: C_11  and  C_13 
REMARK    5  A    between atoms: C_15  and  C_16 
REMARK    6  A    between atoms: C_25  and  N_26 
ROOT
ATOM      1  C   UNL d   1      26.109 -16.856  -1.335  0.00  0.00     0.270 C 
ATOM      2  O   UNL d   1      25.355 -16.521  -2.248  0.00  0.00    -0.266 OA
ATOM      3  N   UNL d   1      25.684 -17.686  -0.294  0.00  0.00    -0.263 N 
ATOM      4  H   UNL d   1      26.269 -18.022   0.467  0.00  0.00     0.190 HD
ENDROOT
BRANCH   3   5
ATOM      5  N   UNL d   1      24.366 -18.217  -0.303  0.00  0.00    -0.262 N 
ATOM      6  C   UNL d   1      23.268 -17.356  -0.324  0.00  0.00     0.288 C 
ATOM      7  O   UNL d   1      23.395 -16.137  -0.322  0.00  0.00    -0.264 OA
ATOM      8  H   UNL d   1      24.278 -19.223  -0.424  0.00  0.00     0.190 HD
BRANCH   6   9
ATOM      9  C   UNL d   1      21.983 -18.019  -0.361  0.00  0.00     0.121 A 
ATOM     10  C   UNL d   1      21.442 -18.960   0.492  0.00  0.00     0.071 A 
ATOM     11  C   UNL d   1      20.163 -19.291  -0.022  0.00  0.00     0.089 A 
ATOM     12  N   UNL d   1      19.905 -18.575  -1.127  0.00  0.00    -0.174 NA
ATOM     13  N   UNL d   1      20.980 -17.768  -1.265  0.00  0.00    -0.272 N 
ATOM     14  H   UNL d   1      20.975 -17.098  -2.030  0.00  0.00     0.189 HD
BRANCH  11  15
ATOM     15  C   UNL d   1      19.214 -20.242   0.552  0.00  0.00    -0.006 A 
ATOM     16  C   UNL d   1      18.200 -20.818  -0.223  0.00  0.00     0.014 A 
ATOM     17  C   UNL d   1      17.267 -21.682   0.363  0.00  0.00     0.001 A 
ATOM     18  C   UNL d   1      17.384 -22.032   1.709  0.00  0.00     0.000 A 
ATOM     19  C   UNL d   1      18.411 -21.491   2.480  0.00  0.00     0.001 A 
ATOM     20  C   UNL d   1      19.318 -20.596   1.905  0.00  0.00     0.014 A 
ENDBRANCH  11  15
ENDBRANCH   6   9
ENDBRANCH   3   5
BRANCH   1  21
ATOM     21  C   UNL d   1      27.550 -16.391  -1.346  0.00  0.00     0.036 A 
ATOM     22  C   UNL d   1      28.511 -17.003  -0.541  0.00  0.00     0.019 A 
ATOM     23  C   UNL d   1      29.830 -16.497  -0.484  0.00  0.00     0.032 A 
ATOM     24  C   UNL d   1      30.291 -15.406  -1.274  0.00  0.00     0.061 A 
ATOM     25  C   UNL d   1      29.303 -14.784  -2.066  0.00  0.00     0.130 A 
ATOM     26  C   UNL d   1      27.971 -15.306  -2.107  0.00  0.00     0.055 A 
BRANCH  24  27
ATOM     27  N   UNL d   1      31.643 -15.134  -1.128  0.00  0.00    -0.392 N 
ATOM     28  C   UNL d   1      32.540 -15.526  -0.061  0.00  0.00     0.146 C 
ATOM     29  H   UNL d   1      32.010 -14.398  -1.729  0.00  0.00     0.159 HD
ENDBRANCH  24  27
BRANCH  25  30
ATOM     30  N   UNL d   1      29.481 -13.604  -2.951  0.00  0.00    -0.113 N 
ATOM     31  O   UNL d   1      30.567 -13.010  -2.891  0.00  0.00    -0.532 OA
ATOM     32  O   UNL d   1      28.594 -13.250  -3.726  0.00  0.00    -0.532 OA
ENDBRANCH  25  30
ENDBRANCH   1  21
TORSDOF 6
ENDMDL
MODEL 4
REMARK VINA RESULT:   -24.132      2.624      3.045
REMARK INTER + INTRA:         -26.791
REMARK INTER:                 -25.922
REMARK INTRA:                  -0.869
REMARK CONF_INDEPENDENT:        1.790
REMARK UNBOUND:                -0.869
REMARK  6 active torsions:
REMARK  status: ('A' for Active; 'I' for Inactive)
REMARK    1  A    between atoms: N_2  and  C_3 
REMARK    2  A    between atoms: C_6  and  C_7 
REMARK       I    between atoms: C_7  and  N_9 
REMARK    3  A    between atoms: N_9  and  N_10 
REMARK       I    between atoms: N_10  and  C_11 
REMARK    4  A    between atoms: C_11  and  C_13 
REMARK    5  A    between atoms: C_15  and  C_16 
REMARK    6  A    between atoms: C_25  and  N_26 
ROOT
ATOM      1  C   UNL d   1      25.994 -16.569  -1.079  0.00  0.00     0.270 C 
ATOM      2  O   UNL d   1      26.019 -17.792  -0.949  0.00  0.00    -0.266 OA
ATOM      3  N   UNL d   1      24.799 -15.873  -1.282  0.00  0.00    -0.263 N 
ATOM      4  H   UNL d   1      24.713 -14.863  -1.363  0.00  0.00     0.190 HD
ENDROOT
BRANCH   3   5
ATOM      5  N   UNL d   1      23.562 -16.572  -1.282  0.00  0.00    -0.262 N 
ATOM      6  C   UNL d   1      23.297 -17.519  -0.292  0.00  0.00     0.288 C 
ATOM      7  O   UNL d   1      24.107 -17.788   0.587  0.00  0.00    -0.264 OA
ATOM      8  H   UNL d   1      22.856 -16.255  -1.943  0.00  0.00     0.190 HD
BRANCH   6   9
ATOM      9  C   UNL d   1      21.994 -18.140  -0.385  0.00  0.00     0.121 A 
ATOM     10  C   UNL d   1      21.421 -19.128   0.391  0.00  0.00     0.071 A 
ATOM     11  C   UNL d   1      20.136 -19.381  -0.152  0.00  0.00     0.089 A 
ATOM     12  N   UNL d   1      19.905 -18.575  -1.199  0.00  0.00    -0.174 NA
ATOM     13  N   UNL d   1      21.003 -17.791  -1.271  0.00  0.00    -0.272 N 
ATOM     14  H   UNL d   1      21.022 -17.065  -1.982  0.00  0.00     0.189 HD
BRANCH  11  15
ATOM     15  C   UNL d   1      19.157 -20.345   0.344  0.00  0.00    -0.006 A 
ATOM     16  C   UNL d   1      18.037 -20.703  -0.416  0.00  0.00     0.014 A 
ATOM     17  C   UNL d   1      17.082 -21.586   0.104  0.00  0.00     0.001 A 
ATOM     18  C   UNL d   1      17.276 -22.170   1.356  0.00  0.00     0.000 A 
ATOM     19  C   UNL d   1      18.405 -21.847   2.106  0.00  0.00     0.001 A 
ATOM     20  C   UNL d   1      19.338 -20.934   1.604  0.00  0.00     0.014 A 
ENDBRANCH  11  15
ENDBRANCH   6   9
ENDBRANCH   3   5
BRANCH   1  21
ATOM     21  C   UNL d   1      27.282 -15.779  -0.984  0.00  0.00     0.036 A 
ATOM     22  C   UNL d   1      28.521 -16.400  -1.137  0.00  0.00     0.019 A 
ATOM     23  C   UNL d   1      29.719 -15.673  -0.947  0.00  0.00     0.032 A 
ATOM     24  C   UNL d   1      29.759 -14.277  -0.670  0.00  0.00     0.061 A 
ATOM     25  C   UNL d   1      28.497 -13.667  -0.497  0.00  0.00     0.130 A 
ATOM     26  C   UNL d   1      27.296 -14.420  -0.687  0.00  0.00     0.055 A 
BRANCH  24  27
ATOM     27  N   UNL d   1      31.040 -13.749  -0.613  0.00  0.00    -0.392 N 
ATOM     28  C   UNL d   1      32.276 -14.398  -0.232  0.00  0.00     0.146 C 
ATOM     29  H   UNL d   1      31.096 -12.731  -0.638  0.00  0.00     0.159 HD
ENDBRANCH  24  27
BRANCH  25  30
ATOM     30  N   UNL d   1      28.233 -12.245  -0.159  0.00  0.00    -0.113 N 
ATOM     31  O   UNL d   1      28.828 -11.385  -0.823  0.00  0.00    -0.532 OA
ATOM     32  O   UNL d   1      27.439 -11.939   0.730  0.00  0.00    -0.532 OA
ENDBRANCH  25  30
ENDBRANCH   1  21
TORSDOF 6
ENDMDL
