MODEL 1
REMARK VINA RESULT:    -8.657      0.000      0.000
REMARK INTER + INTRA:         -11.728
REMARK INTER:                 -10.447
REMARK INTRA:                  -1.281
REMARK CONF_INDEPENDENT:        1.790
REMARK UNBOUND:                -1.281
REMARK  6 active torsions:
REMARK  status: ('A' for Active; 'I' for Inactive)
REMARK    1  A    between atoms: C_2  and  C_17 
REMARK    2  A    between atoms: C_2  and  N_3 
REMARK    3  A    between atoms: C_4  and  N_3 
REMARK    4  A    between atoms: C_4  and  C_6 
REMARK       I    between atoms: C_6  and  N_8 
REMARK    5  A    between atoms: N_8  and  C_9 
REMARK    6  A    between atoms: C_14  and  C_15 
ROOT
ATOM      1  N   UNL d   1      29.705 -15.980   0.615  0.00  0.00     0.105 N 
ATOM      2  H   UNL d   1      30.002 -16.684   1.291  0.00  0.00     0.317 HD
ENDROOT
BRANCH   1   3
ATOM      3  C   UNL d   1      28.663 -15.103   1.267  0.00  0.00     0.308 C 
ATOM      4  C   UNL d   1      27.967 -14.128   0.371  0.00  0.00     0.053 C 
BRANCH   3   5
ATOM      5  C   UNL d   1      29.300 -14.073   2.238  0.00  0.00     0.255 C 
ATOM      6  O   UNL d   1      30.103 -13.187   2.023  0.00  0.00    -0.271 OA
ATOM      7  N   UNL d   1      28.771 -14.347   3.408  0.00  0.00    -0.324 N 
ATOM      8  H   UNL d   1      28.308 -15.199   3.227  0.00  0.00     0.169 HD
BRANCH   7   9
ATOM      9  C   UNL d   1      28.674 -13.733   4.679  0.00  0.00     0.052 C 
ATOM     10  C   UNL d   1      28.905 -14.450   6.581  0.00  0.00     0.014 C 
ATOM     11  C   UNL d   1      29.245 -13.218   7.882  0.00  0.00     0.044 C 
ATOM     12  C   UNL d   1      29.039 -11.512   7.449  0.00  0.00    -0.016 C 
ATOM     13  C   UNL d   1      28.625 -10.948   5.813  0.00  0.00     0.021 C 
ATOM     14  C   UNL d   1      28.462 -11.992   4.429  0.00  0.00     0.070 C 
BRANCH  14  15
ATOM     15  C   UNL d   1      27.405 -11.747   3.463  0.00  0.00     0.101 C 
ATOM     16  N   UNL d   1      26.713 -11.669   2.530  0.00  0.00    -0.191 NA
ENDBRANCH  14  15
ENDBRANCH   7   9
ENDBRANCH   3   5
ENDBRANCH   1   3
BRANCH   1  17
ATOM     17  C   UNL d   1      29.447 -16.614  -0.727  0.00  0.00     0.251 C 
ATOM     18  C   UNL d   1      30.291 -17.849  -0.908  0.00  0.00     0.048 C 
BRANCH  17  19
ATOM     19  C   UNL d   1      27.998 -17.080  -0.971  0.00  0.00    -0.018 C 
ATOM     20  C   UNL d   1      27.235 -17.821  -0.057  0.00  0.00     0.010 C 
ATOM     21  C   UNL d   1      25.829 -17.967  -0.103  0.00  0.00     0.002 C 
ATOM     22  C   UNL d   1      25.022 -17.064  -0.742  0.00  0.00     0.012 C 
ATOM     23  C   UNL d   1      25.657 -16.108  -1.456  0.00  0.00    -0.029 C 
ATOM     24  C   UNL d   1      24.755 -14.853  -2.395  0.00  0.00     0.008 C 
ATOM     25  C   UNL d   1      27.293 -16.553  -2.020  0.00  0.00    -0.034 C 
ATOM     26  C   UNL d   1      25.573 -14.307  -4.166  0.00  0.00    -0.020 C 
ATOM     27  C   UNL d   1      27.221 -14.724  -4.575  0.00  0.00     0.026 C 
ATOM     28  C   UNL d   1      28.028 -15.824  -3.524  0.00  0.00     0.037 C 
ENDBRANCH  17  19
ENDBRANCH   1  17
TORSDOF 6
ENDMDL
MODEL 2
REMARK VINA RESULT:    -8.393      4.240      5.999
REMARK INTER + INTRA:         -11.268
REMARK INTER:                 -10.183
REMARK INTRA:                  -1.085
REMARK CONF_INDEPENDENT:        1.790
REMARK UNBOUND:                -1.085
REMARK  6 active torsions:
REMARK  status: ('A' for Active; 'I' for Inactive)
REMARK    1  A    between atoms: C_2  and  C_17 
REMARK    2  A    between atoms: C_2  and  N_3 
REMARK    3  A    between atoms: C_4  and  N_3 
REMARK    4  A    between atoms: C_4  and  C_6 
REMARK       I    between atoms: C_6  and  N_8 
REMARK    5  A    between atoms: N_8  and  C_9 
REMARK    6  A    between atoms: C_14  and  C_15 
ROOT
ATOM      1  N   UNL d   1      29.323 -17.887  -0.292  0.00  0.00     0.105 N 
ATOM      2  H   UNL d   1      29.377 -18.809   0.143  0.00  0.00     0.317 HD
ENDROOT
BRANCH   1   3
ATOM      3  C   UNL d   1      30.706 -17.284  -0.301  0.00  0.00     0.308 C 
ATOM      4  C   UNL d   1      31.169 -16.714  -1.604  0.00  0.00     0.053 C 
BRANCH   3   5
ATOM      5  C   UNL d   1      31.810 -18.365  -0.145  0.00  0.00     0.255 C 
ATOM      6  O   UNL d   1      32.362 -19.047  -0.985  0.00  0.00    -0.271 OA
ATOM      7  N   UNL d   1      32.060 -18.401   1.143  0.00  0.00    -0.324 N 
ATOM      8  H   UNL d   1      31.331 -17.846   1.508  0.00  0.00     0.169 HD
BRANCH   7   9
ATOM      9  C   UNL d   1      33.053 -18.935   1.999  0.00  0.00     0.052 C 
ATOM     10  C   UNL d   1      34.998 -18.413   2.353  0.00  0.00     0.014 C 
ATOM     11  C   UNL d   1      35.729 -18.998   3.919  0.00  0.00     0.044 C 
ATOM     12  C   UNL d   1      34.810 -20.206   4.834  0.00  0.00    -0.016 C 
ATOM     13  C   UNL d   1      33.196 -20.789   4.362  0.00  0.00     0.021 C 
ATOM     14  C   UNL d   1      32.293 -20.180   3.005  0.00  0.00     0.070 C 
BRANCH  14  15
ATOM     15  C   UNL d   1      31.529 -21.099   2.177  0.00  0.00     0.101 C 
ATOM     16  N   UNL d   1      30.870 -21.949   1.734  0.00  0.00    -0.191 NA
ENDBRANCH  14  15
ENDBRANCH   7   9
ENDBRANCH   3   5
ENDBRANCH   1   3
BRANCH   1  17
ATOM     17  C   UNL d   1      28.150 -17.116   0.254  0.00  0.00     0.251 C 
ATOM     18  C   UNL d   1      28.407 -15.632   0.191  0.00  0.00     0.048 C 
BRANCH  17  19
ATOM     19  C   UNL d   1      26.817 -17.324  -0.491  0.00  0.00    -0.018 C 
ATOM     20  C   UNL d   1      25.680 -17.930   0.064  0.00  0.00     0.010 C 
ATOM     21  C   UNL d   1      24.370 -17.832  -0.460  0.00  0.00     0.002 C 
ATOM     22  C   UNL d   1      23.985 -16.799  -1.272  0.00  0.00     0.012 C 
ATOM     23  C   UNL d   1      24.968 -15.962  -1.669  0.00  0.00    -0.029 C 
ATOM     24  C   UNL d   1      24.652 -14.564  -2.772  0.00  0.00     0.008 C 
ATOM     25  C   UNL d   1      26.606 -16.676  -1.679  0.00  0.00    -0.034 C 
ATOM     26  C   UNL d   1      26.102 -14.154  -4.127  0.00  0.00    -0.020 C 
ATOM     27  C   UNL d   1      27.702 -14.844  -3.985  0.00  0.00     0.026 C 
ATOM     28  C   UNL d   1      27.916 -16.074  -2.799  0.00  0.00     0.037 C 
ENDBRANCH  17  19
ENDBRANCH   1  17
TORSDOF 6
ENDMDL
MODEL 3
REMARK VINA RESULT:    -8.201      1.414      1.694
REMARK INTER + INTRA:         -11.981
REMARK INTER:                  -9.991
REMARK INTRA:                  -1.990
REMARK CONF_INDEPENDENT:        1.790
REMARK UNBOUND:                -1.990
REMARK  6 active torsions:
REMARK  status: ('A' for Active; 'I' for Inactive)
REMARK    1  A    between atoms: C_2  and  C_17 
REMARK    2  A    between atoms: C_2  and  N_3 
REMARK    3  A    between atoms: C_4  and  N_3 
REMARK    4  A    between atoms: C_4  and  C_6 
REMARK       I    between atoms: C_6  and  N_8 
REMARK    5  A    between atoms: N_8  and  C_9 
REMARK    6  A    between atoms: C_14  and  C_15 
ROOT
ATOM      1  N   UNL d   1      30.109 -15.956   0.971  0.00  0.00     0.105 N 
ATOM      2  H   UNL d   1      29.430 -15.531   1.603  0.00  0.00     0.317 HD
ENDROOT
BRANCH   1   3
ATOM      3  C   UNL d   1      31.479 -15.432   1.322  0.00  0.00     0.308 C 
ATOM      4  C   UNL d   1      32.377 -16.374   2.059  0.00  0.00     0.053 C 
BRANCH   3   5
ATOM      5  C   UNL d   1      31.414 -14.320   2.404  0.00  0.00     0.255 C 
ATOM      6  O   UNL d   1      31.994 -13.254   2.467  0.00  0.00    -0.271 OA
ATOM      7  N   UNL d   1      30.557 -14.769   3.291  0.00  0.00    -0.324 N 
ATOM      8  H   UNL d   1      30.425 -15.701   2.994  0.00  0.00     0.169 HD
BRANCH   7   9
ATOM      9  C   UNL d   1      29.826 -14.257   4.389  0.00  0.00     0.052 C 
ATOM     10  C   UNL d   1      30.055 -14.449   6.412  0.00  0.00     0.014 C 
ATOM     11  C   UNL d   1      29.247 -13.185   7.450  0.00  0.00     0.044 C 
ATOM     12  C   UNL d   1      28.096 -12.101   6.647  0.00  0.00    -0.016 C 
ATOM     13  C   UNL d   1      27.774 -12.118   4.898  0.00  0.00     0.021 C 
ATOM     14  C   UNL d   1      28.611 -13.133   3.758  0.00  0.00     0.070 C 
BRANCH  14  15
ATOM     15  C   UNL d   1      27.875 -13.749   2.666  0.00  0.00     0.101 C 
ATOM     16  N   UNL d   1      27.513 -14.315   1.716  0.00  0.00    -0.191 NA
ENDBRANCH  14  15
ENDBRANCH   7   9
ENDBRANCH   3   5
ENDBRANCH   1   3
BRANCH   1  17
ATOM     17  C   UNL d   1      29.606 -15.908  -0.450  0.00  0.00     0.251 C 
ATOM     18  C   UNL d   1      30.596 -16.545  -1.390  0.00  0.00     0.048 C 
BRANCH  17  19
ATOM     19  C   UNL d   1      28.277 -16.644  -0.706  0.00  0.00    -0.018 C 
ATOM     20  C   UNL d   1      27.619 -17.450   0.234  0.00  0.00     0.010 C 
ATOM     21  C   UNL d   1      26.265 -17.852   0.153  0.00  0.00     0.002 C 
ATOM     22  C   UNL d   1      25.340 -17.155  -0.577  0.00  0.00     0.012 C 
ATOM     23  C   UNL d   1      25.824 -16.149  -1.338  0.00  0.00    -0.029 C 
ATOM     24  C   UNL d   1      24.756 -15.143  -2.395  0.00  0.00     0.008 C 
ATOM     25  C   UNL d   1      27.538 -16.324  -1.814  0.00  0.00    -0.034 C 
ATOM     26  C   UNL d   1      25.543 -14.576  -4.174  0.00  0.00    -0.020 C 
ATOM     27  C   UNL d   1      27.255 -14.712  -4.496  0.00  0.00     0.026 C 
ATOM     28  C   UNL d   1      28.198 -15.575  -3.342  0.00  0.00     0.037 C 
ENDBRANCH  17  19
ENDBRANCH   1  17
TORSDOF 6
ENDMDL
MODEL 4
REMARK VINA RESULT:    -7.742      1.719      8.454
REMARK INTER + INTRA:         -11.145
REMARK INTER:                  -9.532
REMARK INTRA:                  -1.613
REMARK CONF_INDEPENDENT:        1.790
REMARK UNBOUND:                -1.613
REMARK  6 active torsions:
REMARK  status: ('A' for Active; 'I' for Inactive)
REMARK    1  A    between atoms: C_2  and  C_17 
REMARK    2  A    between atoms: C_2  and  N_3 
REMARK    3  A    between atoms: C_4  and  N_3 
REMARK    4  A    between atoms: C_4  and  C_6 
REMARK       I    between atoms: C_6  and  N_8 
REMARK    5  A    between atoms: N_8  and  C_9 
REMARK    6  A    between atoms: C_14  and  C_15 
ROOT
ATOM      1  N   UNL d   1      30.755 -14.866   4.355  0.00  0.00     0.105 N 
ATOM      2  H   UNL d   1      31.480 -14.530   4.988  0.00  0.00     0.317 HD
ENDROOT
BRANCH   1   3
ATOM      3  C   UNL d   1      31.296 -14.825   2.947  0.00  0.00     0.308 C 
ATOM      4  C   UNL d   1      32.539 -14.017   2.741  0.00  0.00     0.053 C 
BRANCH   3   5
ATOM      5  C   UNL d   1      30.369 -14.023   1.994  0.00  0.00     0.255 C 
ATOM      6  O   UNL d   1      30.266 -12.824   1.828  0.00  0.00    -0.271 OA
ATOM      7  N   UNL d   1      29.680 -14.938   1.353  0.00  0.00    -0.324 N 
ATOM      8  H   UNL d   1      29.913 -15.756   1.852  0.00  0.00     0.169 HD
BRANCH   7   9
ATOM      9  C   UNL d   1      28.844 -15.007   0.213  0.00  0.00     0.052 C 
ATOM     10  C   UNL d   1      29.222 -15.413  -1.756  0.00  0.00     0.014 C 
ATOM     11  C   UNL d   1      27.801 -15.948  -2.767  0.00  0.00     0.044 C 
ATOM     12  C   UNL d   1      26.190 -15.770  -2.049  0.00  0.00    -0.016 C 
ATOM     13  C   UNL d   1      25.904 -15.204  -0.386  0.00  0.00     0.021 C 
ATOM     14  C   UNL d   1      27.166 -14.845   0.757  0.00  0.00     0.070 C 
BRANCH  14  15
ATOM     15  C   UNL d   1      27.032 -13.701   1.642  0.00  0.00     0.101 C 
ATOM     16  N   UNL d   1      26.887 -12.959   2.527  0.00  0.00    -0.191 NA
ENDBRANCH  14  15
ENDBRANCH   7   9
ENDBRANCH   3   5
ENDBRANCH   1   3
BRANCH   1  17
ATOM     17  C   UNL d   1      29.429 -14.234   4.689  0.00  0.00     0.251 C 
ATOM     18  C   UNL d   1      28.566 -15.183   5.480  0.00  0.00     0.048 C 
BRANCH  17  19
ATOM     19  C   UNL d   1      29.503 -12.953   5.542  0.00  0.00    -0.018 C 
ATOM     20  C   UNL d   1      29.027 -11.697   5.138  0.00  0.00     0.010 C 
ATOM     21  C   UNL d   1      28.775 -10.607   6.003  0.00  0.00     0.002 C 
ATOM     22  C   UNL d   1      28.530 -10.778   7.339  0.00  0.00     0.012 C 
ATOM     23  C   UNL d   1      28.694 -12.032   7.814  0.00  0.00    -0.029 C 
ATOM     24  C   UNL d   1      28.450 -12.439   9.559  0.00  0.00     0.008 C 
ATOM     25  C   UNL d   1      29.819 -13.052   6.871  0.00  0.00    -0.034 C 
ATOM     26  C   UNL d   1      29.714 -13.818  10.337  0.00  0.00    -0.020 C 
ATOM     27  C   UNL d   1      30.707 -14.825   9.310  0.00  0.00     0.026 C 
ATOM     28  C   UNL d   1      30.750 -14.425   7.635  0.00  0.00     0.037 C 
ENDBRANCH  17  19
ENDBRANCH   1  17
TORSDOF 6
ENDMDL
MODEL 5
REMARK VINA RESULT:    -7.646      1.635      2.961
REMARK INTER + INTRA:         -11.317
REMARK INTER:                  -9.436
REMARK INTRA:                  -1.882
REMARK CONF_INDEPENDENT:        1.790
REMARK UNBOUND:                -1.882
REMARK  6 active torsions:
REMARK  status: ('A' for Active; 'I' for Inactive)
REMARK    1  A    between atoms: C_2  and  C_17 
REMARK    2  A    between atoms: C_2  and  N_3 
REMARK    3  A    between atoms: C_4  and  N_3 
REMARK    4  A    between atoms: C_4  and  C_6 
REMARK       I    between atoms: C_6  and  N_8 
REMARK    5  A    between atoms: N_8  and  C_9 
REMARK    6  A    between atoms: C_14  and  C_15 
ROOT
ATOM      1  N   UNL d   1      30.123 -15.869   0.980  0.00  0.00     0.105 N 
ATOM      2  H   UNL d   1      29.419 -15.425   1.570  0.00  0.00     0.317 HD
ENDROOT
BRANCH   1   3
ATOM      3  C   UNL d   1      31.483 -15.372   1.404  0.00  0.00     0.308 C 
ATOM      4  C   UNL d   1      32.310 -16.322   2.211  0.00  0.00     0.053 C 
BRANCH   3   5
ATOM      5  C   UNL d   1      31.381 -14.239   2.461  0.00  0.00     0.255 C 
ATOM      6  O   UNL d   1      31.907 -13.143   2.487  0.00  0.00    -0.271 OA
ATOM      7  N   UNL d   1      30.564 -14.708   3.375  0.00  0.00    -0.324 N 
ATOM      8  H   UNL d   1      30.475 -15.652   3.102  0.00  0.00     0.169 HD
BRANCH   7   9
ATOM      9  C   UNL d   1      29.829 -14.206   4.475  0.00  0.00     0.052 C 
ATOM     10  C   UNL d   1      30.029 -14.446   6.496  0.00  0.00     0.014 C 
ATOM     11  C   UNL d   1      29.229 -13.189   7.550  0.00  0.00     0.044 C 
ATOM     12  C   UNL d   1      28.107 -12.070   6.757  0.00  0.00    -0.016 C 
ATOM     13  C   UNL d   1      27.807 -12.044   5.003  0.00  0.00     0.021 C 
ATOM     14  C   UNL d   1      28.641 -13.049   3.852  0.00  0.00     0.070 C 
BRANCH  14  15
ATOM     15  C   UNL d   1      27.908 -13.629   2.739  0.00  0.00     0.101 C 
ATOM     16  N   UNL d   1      27.383 -14.311   1.956  0.00  0.00    -0.191 NA
ENDBRANCH  14  15
ENDBRANCH   7   9
ENDBRANCH   3   5
ENDBRANCH   1   3
BRANCH   1  17
ATOM     17  C   UNL d   1      29.702 -15.821  -0.467  0.00  0.00     0.251 C 
ATOM     18  C   UNL d   1      29.566 -17.211  -1.032  0.00  0.00     0.048 C 
BRANCH  17  19
ATOM     19  C   UNL d   1      28.346 -15.142  -0.739  0.00  0.00    -0.018 C 
ATOM     20  C   UNL d   1      28.178 -13.970  -1.490  0.00  0.00     0.010 C 
ATOM     21  C   UNL d   1      26.951 -13.522  -2.033  0.00  0.00     0.002 C 
ATOM     22  C   UNL d   1      25.908 -14.374  -2.280  0.00  0.00     0.012 C 
ATOM     23  C   UNL d   1      26.062 -15.641  -1.834  0.00  0.00    -0.029 C 
ATOM     24  C   UNL d   1      24.775 -16.895  -2.038  0.00  0.00     0.008 C 
ATOM     25  C   UNL d   1      27.190 -15.822  -0.460  0.00  0.00    -0.034 C 
ATOM     26  C   UNL d   1      24.556 -18.203  -0.507  0.00  0.00    -0.020 C 
ATOM     27  C   UNL d   1      25.772 -18.357   0.739  0.00  0.00     0.026 C 
ATOM     28  C   UNL d   1      27.032 -17.182   0.747  0.00  0.00     0.037 C 
ENDBRANCH  17  19
ENDBRANCH   1  17
TORSDOF 6
ENDMDL
MODEL 6
REMARK VINA RESULT:    -7.243      3.336      7.486
REMARK INTER + INTRA:         -11.224
REMARK INTER:                  -9.033
REMARK INTRA:                  -2.191
REMARK CONF_INDEPENDENT:        1.790
REMARK UNBOUND:                -2.191
REMARK  6 active torsions:
REMARK  status: ('A' for Active; 'I' for Inactive)
REMARK    1  A    between atoms: C_2  and  C_17 
REMARK    2  A    between atoms: C_2  and  N_3 
REMARK    3  A    between atoms: C_4  and  N_3 
REMARK    4  A    between atoms: C_4  and  C_6 
REMARK       I    between atoms: C_6  and  N_8 
REMARK    5  A    between atoms: N_8  and  C_9 
REMARK    6  A    between atoms: C_14  and  C_15 
ROOT
ATOM      1  N   UNL d   1      28.671 -18.018  -0.145  0.00  0.00     0.105 N 
ATOM      2  H   UNL d   1      29.002 -17.816   0.798  0.00  0.00     0.317 HD
ENDROOT
BRANCH   1   3
ATOM      3  C   UNL d   1      29.782 -17.707  -1.117  0.00  0.00     0.308 C 
ATOM      4  C   UNL d   1      31.126 -17.436  -0.519  0.00  0.00     0.053 C 
BRANCH   3   5
ATOM      5  C   UNL d   1      29.581 -16.330  -1.805  0.00  0.00     0.255 C 
ATOM      6  O   UNL d   1      29.772 -15.208  -1.380  0.00  0.00    -0.271 OA
ATOM      7  N   UNL d   1      29.149 -16.620  -3.010  0.00  0.00    -0.324 N 
ATOM      8  H   UNL d   1      28.971 -17.588  -2.936  0.00  0.00     0.169 HD
BRANCH   7   9
ATOM      9  C   UNL d   1      28.973 -15.951  -4.245  0.00  0.00     0.052 C 
ATOM     10  C   UNL d   1      27.667 -14.502  -4.859  0.00  0.00     0.014 C 
ATOM     11  C   UNL d   1      28.148 -13.540  -6.331  0.00  0.00     0.044 C 
ATOM     12  C   UNL d   1      29.526 -14.140  -7.270  0.00  0.00    -0.016 C 
ATOM     13  C   UNL d   1      30.508 -15.547  -6.799  0.00  0.00     0.021 C 
ATOM     14  C   UNL d   1      30.290 -16.443  -5.323  0.00  0.00     0.070 C 
BRANCH  14  15
ATOM     15  C   UNL d   1      30.418 -17.891  -5.334  0.00  0.00     0.101 C 
ATOM     16  N   UNL d   1      30.382 -19.033  -5.552  0.00  0.00    -0.191 NA
ENDBRANCH  14  15
ENDBRANCH   7   9
ENDBRANCH   3   5
ENDBRANCH   1   3
BRANCH   1  17
ATOM     17  C   UNL d   1      27.289 -17.452  -0.349  0.00  0.00     0.251 C 
ATOM     18  C   UNL d   1      26.254 -18.300   0.346  0.00  0.00     0.048 C 
BRANCH  17  19
ATOM     19  C   UNL d   1      27.071 -16.027   0.196  0.00  0.00    -0.018 C 
ATOM     20  C   UNL d   1      27.719 -15.496   1.321  0.00  0.00     0.010 C 
ATOM     21  C   UNL d   1      27.799 -14.120   1.638  0.00  0.00     0.002 C 
ATOM     22  C   UNL d   1      27.664 -13.144   0.687  0.00  0.00     0.012 C 
ATOM     23  C   UNL d   1      27.298 -13.564  -0.543  0.00  0.00    -0.029 C 
ATOM     24  C   UNL d   1      27.037 -12.413  -1.914  0.00  0.00     0.008 C 
ATOM     25  C   UNL d   1      26.404 -15.111  -0.574  0.00  0.00    -0.034 C 
ATOM     26  C   UNL d   1      25.523 -12.868  -3.181  0.00  0.00    -0.020 C 
ATOM     27  C   UNL d   1      24.780 -14.450  -3.182  0.00  0.00     0.026 C 
ATOM     28  C   UNL d   1      25.215 -15.514  -1.900  0.00  0.00     0.037 C 
ENDBRANCH  17  19
ENDBRANCH   1  17
TORSDOF 6
ENDMDL
MODEL 7
REMARK VINA RESULT:    -7.219      2.544      4.643
REMARK INTER + INTRA:         -11.168
REMARK INTER:                  -9.009
REMARK INTRA:                  -2.160
REMARK CONF_INDEPENDENT:        1.790
REMARK UNBOUND:                -2.160
REMARK  6 active torsions:
REMARK  status: ('A' for Active; 'I' for Inactive)
REMARK    1  A    between atoms: C_2  and  C_17 
REMARK    2  A    between atoms: C_2  and  N_3 
REMARK    3  A    between atoms: C_4  and  N_3 
REMARK    4  A    between atoms: C_4  and  C_6 
REMARK       I    between atoms: C_6  and  N_8 
REMARK    5  A    between atoms: N_8  and  C_9 
REMARK    6  A    between atoms: C_14  and  C_15 
ROOT
ATOM      1  N   UNL d   1      29.225 -15.555   0.981  0.00  0.00     0.105 N 
ATOM      2  H   UNL d   1      28.980 -16.325   1.603  0.00  0.00     0.317 HD
ENDROOT
BRANCH   1   3
ATOM      3  C   UNL d   1      28.596 -14.292   1.515  0.00  0.00     0.308 C 
ATOM      4  C   UNL d   1      27.822 -14.428   2.788  0.00  0.00     0.053 C 
BRANCH   3   5
ATOM      5  C   UNL d   1      27.428 -13.802   0.616  0.00  0.00     0.255 C 
ATOM      6  O   UNL d   1      26.257 -14.124   0.610  0.00  0.00    -0.271 OA
ATOM      7  N   UNL d   1      27.973 -12.912  -0.180  0.00  0.00    -0.324 N 
ATOM      8  H   UNL d   1      28.934 -13.034   0.005  0.00  0.00     0.169 HD
BRANCH   7   9
ATOM      9  C   UNL d   1      27.537 -11.904  -1.074  0.00  0.00     0.052 C 
ATOM     10  C   UNL d   1      26.741 -11.976  -2.956  0.00  0.00     0.014 C 
ATOM     11  C   UNL d   1      25.811 -10.506  -3.506  0.00  0.00     0.044 C 
ATOM     12  C   UNL d   1      25.942  -9.050  -2.504  0.00  0.00    -0.016 C 
ATOM     13  C   UNL d   1      26.834  -8.983  -0.966  0.00  0.00     0.021 C 
ATOM     14  C   UNL d   1      27.604 -10.354  -0.219  0.00  0.00     0.070 C 
BRANCH  14  15
ATOM     15  C   UNL d   1      28.895 -10.190   0.428  0.00  0.00     0.101 C 
ATOM     16  N   UNL d   1      29.834  -9.838   1.018  0.00  0.00    -0.191 NA
ENDBRANCH  14  15
ENDBRANCH   7   9
ENDBRANCH   3   5
ENDBRANCH   1   3
BRANCH   1  17
ATOM     17  C   UNL d   1      29.037 -15.960  -0.459  0.00  0.00     0.251 C 
ATOM     18  C   UNL d   1      30.051 -16.999  -0.861  0.00  0.00     0.048 C 
BRANCH  17  19
ATOM     19  C   UNL d   1      27.668 -16.583  -0.797  0.00  0.00    -0.018 C 
ATOM     20  C   UNL d   1      26.876 -17.303   0.109  0.00  0.00     0.010 C 
ATOM     21  C   UNL d   1      25.500 -17.586  -0.063  0.00  0.00     0.002 C 
ATOM     22  C   UNL d   1      24.695 -16.829  -0.871  0.00  0.00     0.012 C 
ATOM     23  C   UNL d   1      25.320 -15.890  -1.614  0.00  0.00    -0.029 C 
ATOM     24  C   UNL d   1      24.423 -14.821  -2.765  0.00  0.00     0.008 C 
ATOM     25  C   UNL d   1      27.041 -16.228  -1.961  0.00  0.00    -0.034 C 
ATOM     26  C   UNL d   1      25.382 -14.371  -4.493  0.00  0.00    -0.020 C 
ATOM     27  C   UNL d   1      27.094 -14.666  -4.688  0.00  0.00     0.026 C 
ATOM     28  C   UNL d   1      27.872 -15.579  -3.452  0.00  0.00     0.037 C 
ENDBRANCH  17  19
ENDBRANCH   1  17
TORSDOF 6
ENDMDL
MODEL 8
REMARK VINA RESULT:    -7.186      2.300      3.677
REMARK INTER + INTRA:         -11.130
REMARK INTER:                  -8.976
REMARK INTRA:                  -2.154
REMARK CONF_INDEPENDENT:        1.790
REMARK UNBOUND:                -2.154
REMARK  6 active torsions:
REMARK  status: ('A' for Active; 'I' for Inactive)
REMARK    1  A    between atoms: C_2  and  C_17 
REMARK    2  A    between atoms: C_2  and  N_3 
REMARK    3  A    between atoms: C_4  and  N_3 
REMARK    4  A    between atoms: C_4  and  C_6 
REMARK       I    between atoms: C_6  and  N_8 
REMARK    5  A    between atoms: N_8  and  C_9 
REMARK    6  A    between atoms: C_14  and  C_15 
ROOT
ATOM      1  N   UNL d   1      29.883 -15.819   0.735  0.00  0.00     0.105 N 
ATOM      2  H   UNL d   1      29.493 -16.532   1.352  0.00  0.00     0.317 HD
ENDROOT
BRANCH   1   3
ATOM      3  C   UNL d   1      29.664 -14.468   1.368  0.00  0.00     0.308 C 
ATOM      4  C   UNL d   1      29.672 -14.430   2.864  0.00  0.00     0.053 C 
BRANCH   3   5
ATOM      5  C   UNL d   1      28.212 -13.958   1.157  0.00  0.00     0.255 C 
ATOM      6  O   UNL d   1      27.163 -14.570   1.139  0.00  0.00    -0.271 OA
ATOM      7  N   UNL d   1      28.334 -12.661   1.001  0.00  0.00    -0.324 N 
ATOM      8  H   UNL d   1      29.312 -12.557   0.918  0.00  0.00     0.169 HD
BRANCH   7   9
ATOM      9  C   UNL d   1      27.489 -11.525   0.997  0.00  0.00     0.052 C 
ATOM     10  C   UNL d   1      26.421 -10.592   2.470  0.00  0.00     0.014 C 
ATOM     11  C   UNL d   1      25.930  -8.864   2.154  0.00  0.00     0.044 C 
ATOM     12  C   UNL d   1      26.145  -8.256   0.502  0.00  0.00    -0.016 C 
ATOM     13  C   UNL d   1      26.895  -9.196  -0.809  0.00  0.00     0.021 C 
ATOM     14  C   UNL d   1      27.586 -10.781  -0.607  0.00  0.00     0.070 C 
BRANCH  14  15
ATOM     15  C   UNL d   1      27.397 -11.785  -1.641  0.00  0.00     0.101 C 
ATOM     16  N   UNL d   1      27.380 -12.735  -2.314  0.00  0.00    -0.191 NA
ENDBRANCH  14  15
ENDBRANCH   7   9
ENDBRANCH   3   5
ENDBRANCH   1   3
BRANCH   1  17
ATOM     17  C   UNL d   1      29.471 -16.077  -0.692  0.00  0.00     0.251 C 
ATOM     18  C   UNL d   1      30.420 -17.040  -1.358  0.00  0.00     0.048 C 
BRANCH  17  19
ATOM     19  C   UNL d   1      28.073 -16.700  -0.874  0.00  0.00    -0.018 C 
ATOM     20  C   UNL d   1      27.397 -17.440   0.106  0.00  0.00     0.010 C 
ATOM     21  C   UNL d   1      26.012 -17.727   0.096  0.00  0.00     0.002 C 
ATOM     22  C   UNL d   1      25.113 -16.958  -0.594  0.00  0.00     0.012 C 
ATOM     23  C   UNL d   1      25.642 -16.003  -1.390  0.00  0.00    -0.029 C 
ATOM     24  C   UNL d   1      24.611 -14.917  -2.404  0.00  0.00     0.008 C 
ATOM     25  C   UNL d   1      27.309 -16.326  -1.947  0.00  0.00    -0.034 C 
ATOM     26  C   UNL d   1      25.353 -14.431  -4.226  0.00  0.00    -0.020 C 
ATOM     27  C   UNL d   1      27.030 -14.714  -4.631  0.00  0.00     0.026 C 
ATOM     28  C   UNL d   1      27.953 -15.646  -3.515  0.00  0.00     0.037 C 
ENDBRANCH  17  19
ENDBRANCH   1  17
TORSDOF 6
ENDMDL
MODEL 9
REMARK VINA RESULT:    -6.724      2.536      5.361
REMARK INTER + INTRA:         -11.316
REMARK INTER:                  -8.514
REMARK INTRA:                  -2.802
REMARK CONF_INDEPENDENT:        1.790
REMARK UNBOUND:                -2.802
REMARK  6 active torsions:
REMARK  status: ('A' for Active; 'I' for Inactive)
REMARK    1  A    between atoms: C_2  and  C_17 
REMARK    2  A    between atoms: C_2  and  N_3 
REMARK    3  A    between atoms: C_4  and  N_3 
REMARK    4  A    between atoms: C_4  and  C_6 
REMARK       I    between atoms: C_6  and  N_8 
REMARK    5  A    between atoms: N_8  and  C_9 
REMARK    6  A    between atoms: C_14  and  C_15 
ROOT
ATOM      1  N   UNL d   1      29.260 -15.575   0.981  0.00  0.00     0.105 N 
ATOM      2  H   UNL d   1      28.944 -16.252   1.675  0.00  0.00     0.317 HD
ENDROOT
BRANCH   1   3
ATOM      3  C   UNL d   1      28.685 -14.225   1.333  0.00  0.00     0.308 C 
ATOM      4  C   UNL d   1      27.871 -14.162   2.587  0.00  0.00     0.053 C 
BRANCH   3   5
ATOM      5  C   UNL d   1      27.570 -13.795   0.342  0.00  0.00     0.255 C 
ATOM      6  O   UNL d   1      26.362 -13.805   0.470  0.00  0.00    -0.271 OA
ATOM      7  N   UNL d   1      28.215 -13.383  -0.725  0.00  0.00    -0.324 N 
ATOM      8  H   UNL d   1      29.139 -13.667  -0.527  0.00  0.00     0.169 HD
BRANCH   7   9
ATOM      9  C   UNL d   1      27.925 -12.658  -1.905  0.00  0.00     0.052 C 
ATOM     10  C   UNL d   1      26.185 -11.905  -2.673  0.00  0.00     0.014 C 
ATOM     11  C   UNL d   1      26.347 -10.573  -3.908  0.00  0.00     0.044 C 
ATOM     12  C   UNL d   1      27.968 -10.269  -4.556  0.00  0.00    -0.016 C 
ATOM     13  C   UNL d   1      29.432 -11.111  -3.997  0.00  0.00     0.021 C 
ATOM     14  C   UNL d   1      29.462 -12.263  -2.693  0.00  0.00     0.070 C 
BRANCH  14  15
ATOM     15  C   UNL d   1      30.293 -13.450  -2.800  0.00  0.00     0.101 C 
ATOM     16  N   UNL d   1      30.875 -14.447  -2.653  0.00  0.00    -0.191 NA
ENDBRANCH  14  15
ENDBRANCH   7   9
ENDBRANCH   3   5
ENDBRANCH   1   3
BRANCH   1  17
ATOM     17  C   UNL d   1      29.109 -16.138  -0.409  0.00  0.00     0.251 C 
ATOM     18  C   UNL d   1      30.061 -17.286  -0.629  0.00  0.00     0.048 C 
BRANCH  17  19
ATOM     19  C   UNL d   1      27.715 -16.702  -0.746  0.00  0.00    -0.018 C 
ATOM     20  C   UNL d   1      26.884 -17.368   0.166  0.00  0.00     0.010 C 
ATOM     21  C   UNL d   1      25.498 -17.590  -0.010  0.00  0.00     0.002 C 
ATOM     22  C   UNL d   1      24.734 -16.810  -0.837  0.00  0.00     0.012 C 
ATOM     23  C   UNL d   1      25.407 -15.915  -1.592  0.00  0.00    -0.029 C 
ATOM     24  C   UNL d   1      24.569 -14.826  -2.768  0.00  0.00     0.008 C 
ATOM     25  C   UNL d   1      27.112 -16.339  -1.920  0.00  0.00    -0.034 C 
ATOM     26  C   UNL d   1      25.558 -14.452  -4.496  0.00  0.00    -0.020 C 
ATOM     27  C   UNL d   1      27.256 -14.830  -4.674  0.00  0.00     0.026 C 
ATOM     28  C   UNL d   1      27.982 -15.756  -3.416  0.00  0.00     0.037 C 
ENDBRANCH  17  19
ENDBRANCH   1  17
TORSDOF 6
ENDMDL
