MODEL 1
REMARK VINA RESULT:   -31.337      0.000      0.000
REMARK INTER + INTRA:         -34.689
REMARK INTER:                 -34.021
REMARK INTRA:                  -0.668
REMARK CONF_INDEPENDENT:        2.685
REMARK UNBOUND:                -0.668
REMARK  9 active torsions:
REMARK  status: ('A' for Active; 'I' for Inactive)
REMARK    1  A    between atoms: C_2  and  O_4 
REMARK    2  A    between atoms: O_4  and  C_5 
REMARK    3  A    between atoms: C_5  and  C_6 
REMARK    4  A    between atoms: C_10  and  N_11 
REMARK       I    between atoms: N_11  and  C_12 
REMARK       I    between atoms: C_12  and  N_14 
REMARK    5  A    between atoms: N_14  and  C_15 
REMARK    6  A    between atoms: C_15  and  C_16 
REMARK    7  A    between atoms: C_16  and  C_17 
REMARK    8  A    between atoms: C_17  and  C_18 
REMARK    9  A    between atoms: C_21  and  N_22 
ROOT
ATOM      1  C   UNL d   1      20.471 -19.260  -0.020  0.00  0.00     0.079 A 
ATOM      2  N   UNL d   1      19.904 -19.287  -1.236  0.00  0.00    -0.176 NA
ATOM      3  N   UNL d   1      18.827 -20.075  -1.077  0.00  0.00    -0.261 N 
ATOM      4  C   UNL d   1      18.677 -20.551   0.197  0.00  0.00     0.138 A 
ATOM      5  C   UNL d   1      19.743 -20.045   0.904  0.00  0.00     0.115 A 
ATOM      6  C   UNL d   1      20.040 -20.268   2.280  0.00  0.00     0.105 C 
ATOM      7  N   UNL d   1      20.286 -20.449   3.395  0.00  0.00    -0.191 NA
ATOM      8  H   UNL d   1      18.229 -20.243  -1.877  0.00  0.00     0.191 HD
ENDROOT
BRANCH   4   9
ATOM      9  N   UNL d   1      17.645 -21.343   0.543  0.00  0.00    -0.383 N 
ATOM     10  H   UNL d   1      17.365 -21.536   1.500  0.00  0.00     0.157 HD
ATOM     11  H   UNL d   1      17.091 -21.833  -0.158  0.00  0.00     0.157 HD
ENDBRANCH   4   9
BRANCH   1  12
ATOM     12  C   UNL d   1      21.712 -18.464   0.247  0.00  0.00     0.064 C 
BRANCH  12  13
ATOM     13  C   UNL d   1      22.964 -19.086  -0.374  0.00  0.00     0.026 C 
BRANCH  13  14
ATOM     14  C   UNL d   1      24.237 -18.576   0.263  0.00  0.00     0.125 C 
BRANCH  14  15
ATOM     15  N   UNL d   1      25.225 -18.143  -0.728  0.00  0.00    -0.343 N 
ATOM     16  C   UNL d   1      24.978 -16.966  -1.386  0.00  0.00     0.320 C 
ATOM     17  N   UNL d   1      25.938 -16.567  -2.310  0.00  0.00    -0.309 N 
ATOM     18  O   UNL d   1      23.938 -16.380  -1.100  0.00  0.00    -0.247 OA
ATOM     19  H   UNL d   1      26.738 -17.155  -2.483  0.00  0.00     0.170 HD
ATOM     20  H   UNL d   1      26.042 -18.700  -0.915  0.00  0.00     0.164 HD
BRANCH  17  21
ATOM     21  C   UNL d   1      25.830 -15.377  -3.096  0.00  0.00     0.036 A 
ATOM     22  C   UNL d   1      24.930 -14.344  -2.810  0.00  0.00     0.029 A 
ATOM     23  C   UNL d   1      24.922 -13.164  -3.589  0.00  0.00     0.003 A 
ATOM     24  C   UNL d   1      25.751 -13.036  -4.705  0.00  0.00     0.009 A 
ATOM     25  C   UNL d   1      26.657 -14.049  -4.983  0.00  0.00    -0.032 A 
ATOM     26  C   UNL d   1      26.668 -15.185  -4.182  0.00  0.00     0.038 A 
BRANCH  25  27
ATOM     27  C   UNL d   1      27.707 -13.950  -6.046  0.00  0.00     0.206 C 
BRANCH  27  28
ATOM     28  O   UNL d   1      28.109 -15.261  -6.463  0.00  0.00    -0.382 OA
BRANCH  28  29
ATOM     29  C   UNL d   1      29.517 -15.454  -6.413  0.00  0.00     0.113 C 
ATOM     30  C   UNL d   1      30.197 -14.090  -6.344  0.00  0.00     0.039 C 
ATOM     31  C   UNL d   1      29.858 -16.257  -5.168  0.00  0.00     0.039 C 
ENDBRANCH  28  29
ENDBRANCH  27  28
ENDBRANCH  25  27
ENDBRANCH  17  21
ENDBRANCH  14  15
ENDBRANCH  13  14
ENDBRANCH  12  13
ENDBRANCH   1  12
TORSDOF 9
ENDMDL
MODEL 2
REMARK VINA RESULT:   -30.650      1.961      2.766
REMARK INTER + INTRA:         -33.966
REMARK INTER:                 -33.335
REMARK INTRA:                  -0.631
REMARK CONF_INDEPENDENT:        2.685
REMARK UNBOUND:                -0.631
REMARK  9 active torsions:
REMARK  status: ('A' for Active; 'I' for Inactive)
REMARK    1  A    between atoms: C_2  and  O_4 
REMARK    2  A    between atoms: O_4  and  C_5 
REMARK    3  A    between atoms: C_5  and  C_6 
REMARK    4  A    between atoms: C_10  and  N_11 
REMARK       I    between atoms: N_11  and  C_12 
REMARK       I    between atoms: C_12  and  N_14 
REMARK    5  A    between atoms: N_14  and  C_15 
REMARK    6  A    between atoms: C_15  and  C_16 
REMARK    7  A    between atoms: C_16  and  C_17 
REMARK    8  A    between atoms: C_17  and  C_18 
REMARK    9  A    between atoms: C_21  and  N_22 
ROOT
ATOM      1  C   UNL d   1      20.443 -19.308   0.194  0.00  0.00     0.079 A 
ATOM      2  N   UNL d   1      19.901 -19.311  -1.033  0.00  0.00    -0.176 NA
ATOM      3  N   UNL d   1      18.791 -20.057  -0.898  0.00  0.00    -0.261 N 
ATOM      4  C   UNL d   1      18.596 -20.528   0.373  0.00  0.00     0.138 A 
ATOM      5  C   UNL d   1      19.667 -20.066   1.101  0.00  0.00     0.115 A 
ATOM      6  C   UNL d   1      19.926 -20.301   2.484  0.00  0.00     0.105 C 
ATOM      7  N   UNL d   1      20.142 -20.493   3.603  0.00  0.00    -0.191 NA
ATOM      8  H   UNL d   1      18.203 -20.201  -1.710  0.00  0.00     0.191 HD
ENDROOT
BRANCH   4   9
ATOM      9  N   UNL d   1      17.527 -21.280   0.695  0.00  0.00    -0.383 N 
ATOM     10  H   UNL d   1      16.917 -21.100   1.488  0.00  0.00     0.157 HD
ATOM     11  H   UNL d   1      17.283 -22.115   0.165  0.00  0.00     0.157 HD
ENDBRANCH   4   9
BRANCH   1  12
ATOM     12  C   UNL d   1      21.709 -18.561   0.488  0.00  0.00     0.064 C 
BRANCH  12  13
ATOM     13  C   UNL d   1      22.837 -18.893  -0.491  0.00  0.00     0.026 C 
BRANCH  13  14
ATOM     14  C   UNL d   1      23.984 -17.911  -0.402  0.00  0.00     0.125 C 
BRANCH  14  15
ATOM     15  N   UNL d   1      23.740 -16.694  -1.178  0.00  0.00    -0.343 N 
ATOM     16  C   UNL d   1      24.752 -16.255  -1.990  0.00  0.00     0.320 C 
ATOM     17  N   UNL d   1      24.492 -15.106  -2.731  0.00  0.00    -0.309 N 
ATOM     18  O   UNL d   1      25.789 -16.912  -1.986  0.00  0.00    -0.247 OA
ATOM     19  H   UNL d   1      23.609 -14.633  -2.621  0.00  0.00     0.170 HD
ATOM     20  H   UNL d   1      22.864 -16.204  -1.103  0.00  0.00     0.164 HD
BRANCH  17  21
ATOM     21  C   UNL d   1      25.443 -14.503  -3.612  0.00  0.00     0.036 A 
ATOM     22  C   UNL d   1      26.332 -15.237  -4.405  0.00  0.00     0.029 A 
ATOM     23  C   UNL d   1      27.200 -14.578  -5.306  0.00  0.00     0.003 A 
ATOM     24  C   UNL d   1      27.249 -13.184  -5.365  0.00  0.00     0.009 A 
ATOM     25  C   UNL d   1      26.359 -12.451  -4.594  0.00  0.00    -0.032 A 
ATOM     26  C   UNL d   1      25.492 -13.124  -3.741  0.00  0.00     0.038 A 
BRANCH  25  27
ATOM     27  C   UNL d   1      26.202 -10.967  -4.698  0.00  0.00     0.206 C 
BRANCH  27  28
ATOM     28  O   UNL d   1      25.585 -10.624  -5.946  0.00  0.00    -0.382 OA
BRANCH  28  29
ATOM     29  C   UNL d   1      26.459  -9.927  -6.826  0.00  0.00     0.113 C 
ATOM     30  C   UNL d   1      27.819  -9.780  -6.152  0.00  0.00     0.039 C 
ATOM     31  C   UNL d   1      26.609 -10.731  -8.107  0.00  0.00     0.039 C 
ENDBRANCH  28  29
ENDBRANCH  27  28
ENDBRANCH  25  27
ENDBRANCH  17  21
ENDBRANCH  14  15
ENDBRANCH  13  14
ENDBRANCH  12  13
ENDBRANCH   1  12
TORSDOF 9
ENDMDL
MODEL 3
REMARK VINA RESULT:   -30.519      3.702      5.222
REMARK INTER + INTRA:         -33.859
REMARK INTER:                 -33.204
REMARK INTRA:                  -0.655
REMARK CONF_INDEPENDENT:        2.685
REMARK UNBOUND:                -0.655
REMARK  9 active torsions:
REMARK  status: ('A' for Active; 'I' for Inactive)
REMARK    1  A    between atoms: C_2  and  O_4 
REMARK    2  A    between atoms: O_4  and  C_5 
REMARK    3  A    between atoms: C_5  and  C_6 
REMARK    4  A    between atoms: C_10  and  N_11 
REMARK       I    between atoms: N_11  and  C_12 
REMARK       I    between atoms: C_12  and  N_14 
REMARK    5  A    between atoms: N_14  and  C_15 
REMARK    6  A    between atoms: C_15  and  C_16 
REMARK    7  A    between atoms: C_16  and  C_17 
REMARK    8  A    between atoms: C_17  and  C_18 
REMARK    9  A    between atoms: C_21  and  N_22 
ROOT
ATOM      1  C   UNL d   1      20.481 -19.316   0.145  0.00  0.00     0.079 A 
ATOM      2  N   UNL d   1      19.905 -19.325  -1.067  0.00  0.00    -0.176 NA
ATOM      3  N   UNL d   1      18.795 -20.062  -0.895  0.00  0.00    -0.261 N 
ATOM      4  C   UNL d   1      18.633 -20.523   0.384  0.00  0.00     0.138 A 
ATOM      5  C   UNL d   1      19.726 -20.062   1.079  0.00  0.00     0.115 A 
ATOM      6  C   UNL d   1      20.023 -20.289   2.455  0.00  0.00     0.105 C 
ATOM      7  N   UNL d   1      20.268 -20.474   3.569  0.00  0.00    -0.191 NA
ATOM      8  H   UNL d   1      18.184 -20.208  -1.689  0.00  0.00     0.191 HD
ENDROOT
BRANCH   4   9
ATOM      9  N   UNL d   1      17.569 -21.265   0.742  0.00  0.00    -0.383 N 
ATOM     10  H   UNL d   1      17.287 -22.126   0.281  0.00  0.00     0.157 HD
ATOM     11  H   UNL d   1      16.949 -20.978   1.498  0.00  0.00     0.157 HD
ENDBRANCH   4   9
BRANCH   1  12
ATOM     12  C   UNL d   1      21.760 -18.575   0.398  0.00  0.00     0.064 C 
BRANCH  12  13
ATOM     13  C   UNL d   1      22.267 -17.824  -0.834  0.00  0.00     0.026 C 
BRANCH  13  14
ATOM     14  C   UNL d   1      23.380 -18.563  -1.542  0.00  0.00     0.125 C 
BRANCH  14  15
ATOM     15  N   UNL d   1      24.671 -18.409  -0.868  0.00  0.00    -0.343 N 
ATOM     16  C   UNL d   1      25.231 -17.158  -0.866  0.00  0.00     0.320 C 
ATOM     17  N   UNL d   1      26.449 -17.032  -0.205  0.00  0.00    -0.309 N 
ATOM     18  O   UNL d   1      24.610 -16.273  -1.446  0.00  0.00    -0.247 OA
ATOM     19  H   UNL d   1      26.880 -17.846   0.205  0.00  0.00     0.170 HD
ATOM     20  H   UNL d   1      25.122 -19.198  -0.436  0.00  0.00     0.164 HD
BRANCH  17  21
ATOM     21  C   UNL d   1      27.179 -15.805  -0.124  0.00  0.00     0.036 A 
ATOM     22  C   UNL d   1      28.033 -15.348  -1.134  0.00  0.00     0.029 A 
ATOM     23  C   UNL d   1      28.671 -14.091  -1.019  0.00  0.00     0.003 A 
ATOM     24  C   UNL d   1      28.529 -13.318   0.134  0.00  0.00     0.009 A 
ATOM     25  C   UNL d   1      27.670 -13.757   1.131  0.00  0.00    -0.032 A 
ATOM     26  C   UNL d   1      27.028 -14.980   0.979  0.00  0.00     0.038 A 
BRANCH  25  27
ATOM     27  C   UNL d   1      27.307 -12.938   2.331  0.00  0.00     0.206 C 
BRANCH  27  28
ATOM     28  O   UNL d   1      27.186 -13.781   3.483  0.00  0.00    -0.382 OA
BRANCH  28  29
ATOM     29  C   UNL d   1      28.224 -13.578   4.433  0.00  0.00     0.113 C 
ATOM     30  C   UNL d   1      27.804 -12.465   5.388  0.00  0.00     0.039 C 
ATOM     31  C   UNL d   1      28.434 -14.866   5.213  0.00  0.00     0.039 C 
ENDBRANCH  28  29
ENDBRANCH  27  28
ENDBRANCH  25  27
ENDBRANCH  17  21
ENDBRANCH  14  15
ENDBRANCH  13  14
ENDBRANCH  12  13
ENDBRANCH   1  12
TORSDOF 9
ENDMDL
