MODEL 1
REMARK VINA RESULT:   -31.991      0.000      0.000
REMARK INTER + INTRA:         -34.958
REMARK INTER:                 -33.781
REMARK INTRA:                  -1.177
REMARK CONF_INDEPENDENT:        1.790
REMARK UNBOUND:                -1.177
REMARK  6 active torsions:
REMARK  status: ('A' for Active; 'I' for Inactive)
REMARK    1  A    between atoms: C_7  and  N_8 
REMARK       I    between atoms: N_8  and  C_9 
REMARK    2  A    between atoms: C_9  and  C_11 
REMARK    3  A    between atoms: C_15  and  S_16 
REMARK    4  A    between atoms: S_16  and  N_19 
REMARK    5  A    between atoms: N_19  and  C_20 
REMARK    6  A    between atoms: C_20  and  C_21 
ROOT
ATOM      1  N   UNL d   1      19.905 -18.783  -0.896  0.00  0.00    -0.191 NA
ATOM      2  C   UNL d   1      21.033 -18.481  -0.729  0.00  0.00     0.099 C 
ATOM      3  C   UNL d   1      22.397 -18.111  -0.579  0.00  0.00     0.046 A 
ATOM      4  C   UNL d   1      23.280 -18.851   0.198  0.00  0.00     0.023 A 
ATOM      5  C   UNL d   1      24.629 -18.486   0.240  0.00  0.00     0.004 A 
ATOM      6  C   UNL d   1      25.100 -17.379  -0.496  0.00  0.00     0.029 A 
ATOM      7  C   UNL d   1      24.209 -16.607  -1.255  0.00  0.00     0.036 A 
ATOM      8  C   UNL d   1      22.866 -16.993  -1.269  0.00  0.00     0.052 A 
ENDROOT
BRANCH   7   9
ATOM      9  N   UNL d   1      24.663 -15.474  -1.994  0.00  0.00    -0.323 N 
ATOM     10  C   UNL d   1      25.865 -15.434  -2.700  0.00  0.00     0.256 C 
ATOM     11  O   UNL d   1      26.703 -16.327  -2.785  0.00  0.00    -0.267 OA
ATOM     12  H   UNL d   1      24.044 -14.672  -2.033  0.00  0.00     0.169 HD
BRANCH  10  13
ATOM     13  C   UNL d   1      26.230 -14.196  -3.419  0.00  0.00     0.033 A 
ATOM     14  C   UNL d   1      25.423 -13.060  -3.220  0.00  0.00     0.017 A 
ATOM     15  C   UNL d   1      25.551 -11.951  -4.053  0.00  0.00     0.003 A 
ATOM     16  C   UNL d   1      26.539 -11.943  -5.034  0.00  0.00     0.025 A 
ATOM     17  C   UNL d   1      27.340 -13.079  -5.233  0.00  0.00     0.075 A 
ATOM     18  C   UNL d   1      27.189 -14.213  -4.432  0.00  0.00     0.041 A 
BRANCH  17  19
ATOM     19  S   UNL d   1      28.479 -13.035  -6.589  0.00  0.00     0.241 S 
ATOM     20  O   UNL d   1      27.767 -12.519  -7.736  0.00  0.00    -0.206 OA
ATOM     21  O   UNL d   1      29.703 -12.441  -6.101  0.00  0.00    -0.206 OA
BRANCH  19  22
ATOM     22  N   UNL d   1      28.820 -14.640  -6.966  0.00  0.00    -0.211 NA
ATOM     23  H   UNL d   1      28.647 -14.847  -7.952  0.00  0.00     0.140 HD
BRANCH  22  24
ATOM     24  C   UNL d   1      30.231 -15.010  -6.611  0.00  0.00     0.143 C 
BRANCH  24  25
ATOM     25  C   UNL d   1      30.235 -16.424  -6.112  0.00  0.00    -0.042 C 
ATOM     26  C   UNL d   1      29.976 -16.858  -4.819  0.00  0.00     0.008 C 
ATOM     27  C   UNL d   1      30.134 -18.242  -4.538  0.00  0.00     0.022 C 
ATOM     28  C   UNL d   1      30.734 -19.079  -5.524  0.00  0.00     0.170 C 
ATOM     29  C   UNL d   1      31.425 -18.446  -6.506  0.00  0.00     0.092 C 
ATOM     30  O   UNL d   1      30.035 -20.074  -6.385  0.00  0.00    -0.341 OA
ATOM     31  C   UNL d   1      30.784 -17.330  -6.995  0.00  0.00     0.044 C 
ATOM     32  O   UNL d   1      32.017 -19.322  -7.380  0.00  0.00    -0.327 OA
ATOM     33  C   UNL d   1      30.801 -19.983  -7.671  0.00  0.00     0.346 C 
ENDBRANCH  24  25
ENDBRANCH  22  24
ENDBRANCH  19  22
ENDBRANCH  17  19
ENDBRANCH  10  13
ENDBRANCH   7   9
TORSDOF 6
ENDMDL
MODEL 2
REMARK VINA RESULT:   -30.960      4.835      7.909
REMARK INTER + INTRA:         -33.706
REMARK INTER:                 -32.750
REMARK INTRA:                  -0.957
REMARK CONF_INDEPENDENT:        1.790
REMARK UNBOUND:                -0.957
REMARK  6 active torsions:
REMARK  status: ('A' for Active; 'I' for Inactive)
REMARK    1  A    between atoms: C_7  and  N_8 
REMARK       I    between atoms: N_8  and  C_9 
REMARK    2  A    between atoms: C_9  and  C_11 
REMARK    3  A    between atoms: C_15  and  S_16 
REMARK    4  A    between atoms: S_16  and  N_19 
REMARK    5  A    between atoms: N_19  and  C_20 
REMARK    6  A    between atoms: C_20  and  C_21 
ROOT
ATOM      1  N   UNL d   1      19.901 -18.704  -1.026  0.00  0.00    -0.191 NA
ATOM      2  C   UNL d   1      21.054 -18.513  -0.865  0.00  0.00     0.099 C 
ATOM      3  C   UNL d   1      22.446 -18.265  -0.720  0.00  0.00     0.046 A 
ATOM      4  C   UNL d   1      23.311 -19.209  -0.180  0.00  0.00     0.023 A 
ATOM      5  C   UNL d   1      24.682 -18.941  -0.141  0.00  0.00     0.004 A 
ATOM      6  C   UNL d   1      25.194 -17.726  -0.642  0.00  0.00     0.029 A 
ATOM      7  C   UNL d   1      24.325 -16.754  -1.156  0.00  0.00     0.036 A 
ATOM      8  C   UNL d   1      22.959 -17.049  -1.174  0.00  0.00     0.052 A 
ENDROOT
BRANCH   7   9
ATOM      9  N   UNL d   1      24.821 -15.512  -1.653  0.00  0.00    -0.323 N 
ATOM     10  C   UNL d   1      25.290 -15.324  -2.953  0.00  0.00     0.256 C 
ATOM     11  O   UNL d   1      25.363 -16.167  -3.842  0.00  0.00    -0.267 OA
ATOM     12  H   UNL d   1      24.786 -14.717  -1.025  0.00  0.00     0.169 HD
BRANCH  10  13
ATOM     13  C   UNL d   1      25.790 -13.990  -3.346  0.00  0.00     0.033 A 
ATOM     14  C   UNL d   1      25.565 -13.569  -4.670  0.00  0.00     0.017 A 
ATOM     15  C   UNL d   1      26.227 -12.453  -5.175  0.00  0.00     0.003 A 
ATOM     16  C   UNL d   1      27.050 -11.707  -4.336  0.00  0.00     0.025 A 
ATOM     17  C   UNL d   1      27.274 -12.130  -3.015  0.00  0.00     0.075 A 
ATOM     18  C   UNL d   1      26.651 -13.275  -2.513  0.00  0.00     0.041 A 
BRANCH  17  19
ATOM     19  S   UNL d   1      28.439 -11.202  -2.057  0.00  0.00     0.241 S 
ATOM     20  O   UNL d   1      29.496 -12.106  -1.666  0.00  0.00    -0.206 OA
ATOM     21  O   UNL d   1      28.693  -9.970  -2.768  0.00  0.00    -0.206 OA
BRANCH  19  22
ATOM     22  N   UNL d   1      27.651 -10.797  -0.626  0.00  0.00    -0.211 NA
ATOM     23  H   UNL d   1      26.666 -11.071  -0.640  0.00  0.00     0.140 HD
BRANCH  22  24
ATOM     24  C   UNL d   1      28.325 -11.398   0.573  0.00  0.00     0.143 C 
BRANCH  24  25
ATOM     25  C   UNL d   1      27.919 -10.615   1.785  0.00  0.00    -0.042 C 
ATOM     26  C   UNL d   1      27.966 -11.033   3.108  0.00  0.00     0.008 C 
ATOM     27  C   UNL d   1      27.434 -10.163   4.099  0.00  0.00     0.022 C 
ATOM     28  C   UNL d   1      26.708  -9.010   3.682  0.00  0.00     0.170 C 
ATOM     29  C   UNL d   1      26.275  -9.008   2.396  0.00  0.00     0.092 C 
ATOM     30  O   UNL d   1      27.182  -7.599   3.733  0.00  0.00    -0.341 OA
ATOM     31  C   UNL d   1      27.216  -9.463   1.500  0.00  0.00     0.044 C 
ATOM     32  O   UNL d   1      25.537  -7.891   2.091  0.00  0.00    -0.327 OA
ATOM     33  C   UNL d   1      26.556  -7.004   2.506  0.00  0.00     0.346 C 
ENDBRANCH  24  25
ENDBRANCH  22  24
ENDBRANCH  19  22
ENDBRANCH  17  19
ENDBRANCH  10  13
ENDBRANCH   7   9
TORSDOF 6
ENDMDL
MODEL 3
REMARK VINA RESULT:   -30.894      1.206      1.903
REMARK INTER + INTRA:         -34.162
REMARK INTER:                 -32.684
REMARK INTRA:                  -1.477
REMARK CONF_INDEPENDENT:        1.790
REMARK UNBOUND:                -1.477
REMARK  6 active torsions:
REMARK  status: ('A' for Active; 'I' for Inactive)
REMARK    1  A    between atoms: C_7  and  N_8 
REMARK       I    between atoms: N_8  and  C_9 
REMARK    2  A    between atoms: C_9  and  C_11 
REMARK    3  A    between atoms: C_15  and  S_16 
REMARK    4  A    between atoms: S_16  and  N_19 
REMARK    5  A    between atoms: N_19  and  C_20 
REMARK    6  A    between atoms: C_20  and  C_21 
ROOT
ATOM      1  N   UNL d   1      19.905 -19.080  -0.965  0.00  0.00    -0.191 NA
ATOM      2  C   UNL d   1      21.011 -18.726  -0.758  0.00  0.00     0.099 C 
ATOM      3  C   UNL d   1      22.351 -18.297  -0.559  0.00  0.00     0.046 A 
ATOM      4  C   UNL d   1      23.213 -18.950   0.314  0.00  0.00     0.023 A 
ATOM      5  C   UNL d   1      24.544 -18.534   0.404  0.00  0.00     0.004 A 
ATOM      6  C   UNL d   1      25.019 -17.461  -0.380  0.00  0.00     0.029 A 
ATOM      7  C   UNL d   1      24.148 -16.775  -1.237  0.00  0.00     0.036 A 
ATOM      8  C   UNL d   1      22.821 -17.211  -1.298  0.00  0.00     0.052 A 
ENDROOT
BRANCH   7   9
ATOM      9  N   UNL d   1      24.604 -15.678  -2.026  0.00  0.00    -0.323 N 
ATOM     10  C   UNL d   1      25.897 -15.571  -2.539  0.00  0.00     0.256 C 
ATOM     11  O   UNL d   1      26.821 -16.365  -2.387  0.00  0.00    -0.267 OA
ATOM     12  H   UNL d   1      23.926 -14.960  -2.255  0.00  0.00     0.169 HD
BRANCH  10  13
ATOM     13  C   UNL d   1      26.253 -14.378  -3.334  0.00  0.00     0.033 A 
ATOM     14  C   UNL d   1      25.387 -13.269  -3.278  0.00  0.00     0.017 A 
ATOM     15  C   UNL d   1      25.520 -12.226  -4.191  0.00  0.00     0.003 A 
ATOM     16  C   UNL d   1      26.567 -12.248  -5.108  0.00  0.00     0.025 A 
ATOM     17  C   UNL d   1      27.428 -13.357  -5.164  0.00  0.00     0.075 A 
ATOM     18  C   UNL d   1      27.276 -14.429  -4.283  0.00  0.00     0.041 A 
BRANCH  17  19
ATOM     19  S   UNL d   1      28.649 -13.366  -6.448  0.00  0.00     0.241 S 
ATOM     20  O   UNL d   1      28.059 -12.741  -7.610  0.00  0.00    -0.206 OA
ATOM     21  O   UNL d   1      29.889 -12.909  -5.863  0.00  0.00    -0.206 OA
BRANCH  19  22
ATOM     22  N   UNL d   1      28.864 -14.979  -6.876  0.00  0.00    -0.211 NA
ATOM     23  H   UNL d   1      28.443 -15.195  -7.782  0.00  0.00     0.140 HD
BRANCH  22  24
ATOM     24  C   UNL d   1      30.315 -15.366  -6.888  0.00  0.00     0.143 C 
BRANCH  24  25
ATOM     25  C   UNL d   1      30.483 -16.595  -6.048  0.00  0.00    -0.042 C 
ATOM     26  C   UNL d   1      30.525 -17.912  -6.487  0.00  0.00     0.008 C 
ATOM     27  C   UNL d   1      30.590 -18.938  -5.506  0.00  0.00     0.022 C 
ATOM     28  C   UNL d   1      30.409 -18.590  -4.136  0.00  0.00     0.170 C 
ATOM     29  C   UNL d   1      29.845 -17.380  -3.894  0.00  0.00     0.092 C 
ATOM     30  O   UNL d   1      31.470 -18.525  -3.092  0.00  0.00    -0.341 OA
ATOM     31  C   UNL d   1      30.342 -16.375  -4.694  0.00  0.00     0.044 C 
ATOM     32  O   UNL d   1      29.654 -17.146  -2.556  0.00  0.00    -0.327 OA
ATOM     33  C   UNL d   1      31.011 -17.381  -2.237  0.00  0.00     0.346 C 
ENDBRANCH  24  25
ENDBRANCH  22  24
ENDBRANCH  19  22
ENDBRANCH  17  19
ENDBRANCH  10  13
ENDBRANCH   7   9
TORSDOF 6
ENDMDL
MODEL 4
REMARK VINA RESULT:   -30.654      2.785      3.433
REMARK INTER + INTRA:         -34.922
REMARK INTER:                 -32.443
REMARK INTRA:                  -2.478
REMARK CONF_INDEPENDENT:        1.790
REMARK UNBOUND:                -2.478
REMARK  6 active torsions:
REMARK  status: ('A' for Active; 'I' for Inactive)
REMARK    1  A    between atoms: C_7  and  N_8 
REMARK       I    between atoms: N_8  and  C_9 
REMARK    2  A    between atoms: C_9  and  C_11 
REMARK    3  A    between atoms: C_15  and  S_16 
REMARK    4  A    between atoms: S_16  and  N_19 
REMARK    5  A    between atoms: N_19  and  C_20 
REMARK    6  A    between atoms: C_20  and  C_21 
ROOT
ATOM      1  N   UNL d   1      19.905 -18.575  -0.895  0.00  0.00    -0.191 NA
ATOM      2  C   UNL d   1      21.060 -18.378  -0.757  0.00  0.00     0.099 C 
ATOM      3  C   UNL d   1      22.453 -18.121  -0.639  0.00  0.00     0.046 A 
ATOM      4  C   UNL d   1      23.339 -19.071  -0.148  0.00  0.00     0.023 A 
ATOM      5  C   UNL d   1      24.708 -18.792  -0.135  0.00  0.00     0.004 A 
ATOM      6  C   UNL d   1      25.197 -17.558  -0.613  0.00  0.00     0.029 A 
ATOM      7  C   UNL d   1      24.306 -16.580  -1.078  0.00  0.00     0.036 A 
ATOM      8  C   UNL d   1      22.943 -16.888  -1.071  0.00  0.00     0.052 A 
ENDROOT
BRANCH   7   9
ATOM      9  N   UNL d   1      24.779 -15.320  -1.551  0.00  0.00    -0.323 N 
ATOM     10  C   UNL d   1      25.155 -15.074  -2.872  0.00  0.00     0.256 C 
ATOM     11  O   UNL d   1      25.156 -15.875  -3.802  0.00  0.00    -0.267 OA
ATOM     12  H   UNL d   1      24.798 -14.555  -0.886  0.00  0.00     0.169 HD
BRANCH  10  13
ATOM     13  C   UNL d   1      25.640 -13.727  -3.237  0.00  0.00     0.033 A 
ATOM     14  C   UNL d   1      25.341 -13.250  -4.527  0.00  0.00     0.017 A 
ATOM     15  C   UNL d   1      25.980 -12.115  -5.023  0.00  0.00     0.003 A 
ATOM     16  C   UNL d   1      26.855 -11.409  -4.203  0.00  0.00     0.025 A 
ATOM     17  C   UNL d   1      27.154 -11.889  -2.916  0.00  0.00     0.075 A 
ATOM     18  C   UNL d   1      26.553 -13.051  -2.427  0.00  0.00     0.041 A 
BRANCH  17  19
ATOM     19  S   UNL d   1      28.379 -11.006  -1.991  0.00  0.00     0.241 S 
ATOM     20  O   UNL d   1      28.129  -9.595  -2.178  0.00  0.00    -0.206 OA
ATOM     21  O   UNL d   1      28.450 -11.616  -0.683  0.00  0.00    -0.206 OA
BRANCH  19  22
ATOM     22  N   UNL d   1      29.847 -11.301  -2.758  0.00  0.00    -0.211 NA
ATOM     23  H   UNL d   1      30.519 -10.546  -2.604  0.00  0.00     0.140 HD
BRANCH  22  24
ATOM     24  C   UNL d   1      30.449 -12.608  -2.331  0.00  0.00     0.143 C 
BRANCH  24  25
ATOM     25  C   UNL d   1      29.670 -13.717  -2.971  0.00  0.00    -0.042 C 
ATOM     26  C   UNL d   1      29.214 -14.880  -2.364  0.00  0.00     0.008 C 
ATOM     27  C   UNL d   1      28.579 -15.852  -3.184  0.00  0.00     0.022 C 
ATOM     28  C   UNL d   1      28.615 -15.687  -4.599  0.00  0.00     0.170 C 
ATOM     29  C   UNL d   1      29.541 -14.817  -5.076  0.00  0.00     0.092 C 
ATOM     30  O   UNL d   1      27.482 -15.267  -5.470  0.00  0.00    -0.341 OA
ATOM     31  C   UNL d   1      29.625 -13.652  -4.347  0.00  0.00     0.044 C 
ATOM     32  O   UNL d   1      29.549 -14.758  -6.447  0.00  0.00    -0.327 OA
ATOM     33  C   UNL d   1      28.171 -14.452  -6.525  0.00  0.00     0.346 C 
ENDBRANCH  24  25
ENDBRANCH  22  24
ENDBRANCH  19  22
ENDBRANCH  17  19
ENDBRANCH  10  13
ENDBRANCH   7   9
TORSDOF 6
ENDMDL
MODEL 5
REMARK VINA RESULT:   -30.102      3.669      5.826
REMARK INTER + INTRA:         -33.701
REMARK INTER:                 -31.892
REMARK INTRA:                  -1.810
REMARK CONF_INDEPENDENT:        1.790
REMARK UNBOUND:                -1.810
REMARK  6 active torsions:
REMARK  status: ('A' for Active; 'I' for Inactive)
REMARK    1  A    between atoms: C_7  and  N_8 
REMARK       I    between atoms: N_8  and  C_9 
REMARK    2  A    between atoms: C_9  and  C_11 
REMARK    3  A    between atoms: C_15  and  S_16 
REMARK    4  A    between atoms: S_16  and  N_19 
REMARK    5  A    between atoms: N_19  and  C_20 
REMARK    6  A    between atoms: C_20  and  C_21 
ROOT
ATOM      1  N   UNL d   1      19.905 -19.172  -0.964  0.00  0.00    -0.191 NA
ATOM      2  C   UNL d   1      21.001 -18.778  -0.776  0.00  0.00     0.099 C 
ATOM      3  C   UNL d   1      22.335 -18.322  -0.596  0.00  0.00     0.046 A 
ATOM      4  C   UNL d   1      23.048 -18.572   0.570  0.00  0.00     0.023 A 
ATOM      5  C   UNL d   1      24.384 -18.172   0.656  0.00  0.00     0.004 A 
ATOM      6  C   UNL d   1      25.013 -17.519  -0.424  0.00  0.00     0.029 A 
ATOM      7  C   UNL d   1      24.291 -17.232  -1.591  0.00  0.00     0.036 A 
ATOM      8  C   UNL d   1      22.954 -17.638  -1.642  0.00  0.00     0.052 A 
ENDROOT
BRANCH   7   9
ATOM      9  N   UNL d   1      24.903 -16.559  -2.689  0.00  0.00    -0.323 N 
ATOM     10  C   UNL d   1      25.286 -15.217  -2.665  0.00  0.00     0.256 C 
ATOM     11  O   UNL d   1      25.149 -14.426  -1.738  0.00  0.00    -0.267 OA
ATOM     12  H   UNL d   1      25.105 -17.111  -3.515  0.00  0.00     0.169 HD
BRANCH  10  13
ATOM     13  C   UNL d   1      25.904 -14.630  -3.872  0.00  0.00     0.033 A 
ATOM     14  C   UNL d   1      26.958 -15.337  -4.480  0.00  0.00     0.017 A 
ATOM     15  C   UNL d   1      27.748 -14.725  -5.451  0.00  0.00     0.003 A 
ATOM     16  C   UNL d   1      27.436 -13.436  -5.875  0.00  0.00     0.025 A 
ATOM     17  C   UNL d   1      26.384 -12.732  -5.264  0.00  0.00     0.075 A 
ATOM     18  C   UNL d   1      25.615 -13.320  -4.258  0.00  0.00     0.041 A 
BRANCH  17  19
ATOM     19  S   UNL d   1      26.141 -11.051  -5.768  0.00  0.00     0.241 S 
ATOM     20  O   UNL d   1      27.414 -10.376  -5.654  0.00  0.00    -0.206 OA
ATOM     21  O   UNL d   1      25.382 -11.078  -6.998  0.00  0.00    -0.206 OA
BRANCH  19  22
ATOM     22  N   UNL d   1      25.161 -10.349  -4.594  0.00  0.00    -0.211 NA
ATOM     23  H   UNL d   1      24.897 -11.016  -3.865  0.00  0.00     0.140 HD
BRANCH  22  24
ATOM     24  C   UNL d   1      25.811  -9.149  -3.968  0.00  0.00     0.143 C 
BRANCH  24  25
ATOM     25  C   UNL d   1      26.316  -9.539  -2.612  0.00  0.00    -0.042 C 
ATOM     26  C   UNL d   1      26.443  -8.722  -1.497  0.00  0.00     0.008 C 
ATOM     27  C   UNL d   1      27.043  -9.274  -0.332  0.00  0.00     0.022 C 
ATOM     28  C   UNL d   1      27.657 -10.557  -0.420  0.00  0.00     0.170 C 
ATOM     29  C   UNL d   1      27.937 -11.003  -1.670  0.00  0.00     0.092 C 
ATOM     30  O   UNL d   1      27.122 -11.834   0.130  0.00  0.00    -0.341 OA
ATOM     31  C   UNL d   1      26.922 -10.777  -2.572  0.00  0.00     0.044 C 
ATOM     32  O   UNL d   1      28.578 -12.216  -1.664  0.00  0.00    -0.327 OA
ATOM     33  C   UNL d   1      27.571 -12.837  -0.891  0.00  0.00     0.346 C 
ENDBRANCH  24  25
ENDBRANCH  22  24
ENDBRANCH  19  22
ENDBRANCH  17  19
ENDBRANCH  10  13
ENDBRANCH   7   9
TORSDOF 6
ENDMDL
MODEL 6
REMARK VINA RESULT:   -30.015      4.728      8.068
REMARK INTER + INTRA:         -32.984
REMARK INTER:                 -31.804
REMARK INTRA:                  -1.179
REMARK CONF_INDEPENDENT:        1.790
REMARK UNBOUND:                -1.179
REMARK  6 active torsions:
REMARK  status: ('A' for Active; 'I' for Inactive)
REMARK    1  A    between atoms: C_7  and  N_8 
REMARK       I    between atoms: N_8  and  C_9 
REMARK    2  A    between atoms: C_9  and  C_11 
REMARK    3  A    between atoms: C_15  and  S_16 
REMARK    4  A    between atoms: S_16  and  N_19 
REMARK    5  A    between atoms: N_19  and  C_20 
REMARK    6  A    between atoms: C_20  and  C_21 
ROOT
ATOM      1  N   UNL d   1      19.902 -19.210  -0.895  0.00  0.00    -0.191 NA
ATOM      2  C   UNL d   1      20.997 -18.804  -0.731  0.00  0.00     0.099 C 
ATOM      3  C   UNL d   1      22.321 -18.306  -0.585  0.00  0.00     0.046 A 
ATOM      4  C   UNL d   1      23.275 -18.966   0.179  0.00  0.00     0.023 A 
ATOM      5  C   UNL d   1      24.583 -18.475   0.217  0.00  0.00     0.004 A 
ATOM      6  C   UNL d   1      24.941 -17.320  -0.510  0.00  0.00     0.029 A 
ATOM      7  C   UNL d   1      23.976 -16.629  -1.255  0.00  0.00     0.036 A 
ATOM      8  C   UNL d   1      22.675 -17.142  -1.266  0.00  0.00     0.052 A 
ENDROOT
BRANCH   7   9
ATOM      9  N   UNL d   1      24.314 -15.451  -1.984  0.00  0.00    -0.323 N 
ATOM     10  C   UNL d   1      25.552 -15.237  -2.591  0.00  0.00     0.256 C 
ATOM     11  O   UNL d   1      26.519 -15.993  -2.583  0.00  0.00    -0.267 OA
ATOM     12  H   UNL d   1      23.587 -14.752  -2.095  0.00  0.00     0.169 HD
BRANCH  10  13
ATOM     13  C   UNL d   1      25.785 -13.968  -3.311  0.00  0.00     0.033 A 
ATOM     14  C   UNL d   1      26.200 -14.042  -4.654  0.00  0.00     0.017 A 
ATOM     15  C   UNL d   1      26.684 -12.910  -5.304  0.00  0.00     0.003 A 
ATOM     16  C   UNL d   1      26.677 -11.685  -4.642  0.00  0.00     0.025 A 
ATOM     17  C   UNL d   1      26.265 -11.614  -3.301  0.00  0.00     0.075 A 
ATOM     18  C   UNL d   1      25.821 -12.753  -2.625  0.00  0.00     0.041 A 
BRANCH  17  19
ATOM     19  S   UNL d   1      26.415 -10.045  -2.492  0.00  0.00     0.241 S 
ATOM     20  O   UNL d   1      25.158  -9.351  -2.658  0.00  0.00    -0.206 OA
ATOM     21  O   UNL d   1      27.005 -10.286  -1.196  0.00  0.00    -0.206 OA
BRANCH  19  22
ATOM     22  N   UNL d   1      27.530  -9.161  -3.391  0.00  0.00    -0.211 NA
ATOM     23  H   UNL d   1      27.477  -9.378  -4.388  0.00  0.00     0.140 HD
BRANCH  22  24
ATOM     24  C   UNL d   1      27.368  -7.683  -3.185  0.00  0.00     0.143 C 
BRANCH  24  25
ATOM     25  C   UNL d   1      27.439  -7.402  -1.714  0.00  0.00    -0.042 C 
ATOM     26  C   UNL d   1      28.506  -7.654  -0.863  0.00  0.00     0.008 C 
ATOM     27  C   UNL d   1      28.324  -7.401   0.524  0.00  0.00     0.022 C 
ATOM     28  C   UNL d   1      27.017  -7.096   1.000  0.00  0.00     0.170 C 
ATOM     29  C   UNL d   1      25.989  -7.409   0.171  0.00  0.00     0.092 C 
ATOM     30  O   UNL d   1      26.521  -5.758   1.431  0.00  0.00    -0.341 OA
ATOM     31  C   UNL d   1      26.226  -7.079  -1.144  0.00  0.00     0.044 C 
ATOM     32  O   UNL d   1      24.764  -7.137   0.726  0.00  0.00    -0.327 OA
ATOM     33  C   UNL d   1      25.089  -5.786   0.985  0.00  0.00     0.346 C 
ENDBRANCH  24  25
ENDBRANCH  22  24
ENDBRANCH  19  22
ENDBRANCH  17  19
ENDBRANCH  10  13
ENDBRANCH   7   9
TORSDOF 6
ENDMDL
MODEL 7
REMARK VINA RESULT:   -29.859      3.934      4.841
REMARK INTER + INTRA:         -34.573
REMARK INTER:                 -31.649
REMARK INTRA:                  -2.924
REMARK CONF_INDEPENDENT:        1.790
REMARK UNBOUND:                -2.924
REMARK  6 active torsions:
REMARK  status: ('A' for Active; 'I' for Inactive)
REMARK    1  A    between atoms: C_7  and  N_8 
REMARK       I    between atoms: N_8  and  C_9 
REMARK    2  A    between atoms: C_9  and  C_11 
REMARK    3  A    between atoms: C_15  and  S_16 
REMARK    4  A    between atoms: S_16  and  N_19 
REMARK    5  A    between atoms: N_19  and  C_20 
REMARK    6  A    between atoms: C_20  and  C_21 
ROOT
ATOM      1  N   UNL d   1      19.905 -18.584  -0.913  0.00  0.00    -0.191 NA
ATOM      2  C   UNL d   1      21.062 -18.403  -0.773  0.00  0.00     0.099 C 
ATOM      3  C   UNL d   1      22.459 -18.165  -0.654  0.00  0.00     0.046 A 
ATOM      4  C   UNL d   1      23.330 -19.128  -0.160  0.00  0.00     0.023 A 
ATOM      5  C   UNL d   1      24.703 -18.868  -0.145  0.00  0.00     0.004 A 
ATOM      6  C   UNL d   1      25.210 -17.642  -0.625  0.00  0.00     0.029 A 
ATOM      7  C   UNL d   1      24.335 -16.651  -1.092  0.00  0.00     0.036 A 
ATOM      8  C   UNL d   1      22.967 -16.940  -1.086  0.00  0.00     0.052 A 
ENDROOT
BRANCH   7   9
ATOM      9  N   UNL d   1      24.826 -15.399  -1.566  0.00  0.00    -0.323 N 
ATOM     10  C   UNL d   1      25.186 -15.154  -2.891  0.00  0.00     0.256 C 
ATOM     11  O   UNL d   1      25.155 -15.949  -3.825  0.00  0.00    -0.267 OA
ATOM     12  H   UNL d   1      24.872 -14.639  -0.897  0.00  0.00     0.169 HD
BRANCH  10  13
ATOM     13  C   UNL d   1      25.693 -13.815  -3.257  0.00  0.00     0.033 A 
ATOM     14  C   UNL d   1      25.830 -13.517  -4.626  0.00  0.00     0.017 A 
ATOM     15  C   UNL d   1      26.537 -12.388  -5.033  0.00  0.00     0.003 A 
ATOM     16  C   UNL d   1      27.038 -11.512  -4.074  0.00  0.00     0.025 A 
ATOM     17  C   UNL d   1      26.903 -11.813  -2.709  0.00  0.00     0.075 A 
ATOM     18  C   UNL d   1      26.235 -12.966  -2.291  0.00  0.00     0.041 A 
BRANCH  17  19
ATOM     19  S   UNL d   1      27.686 -10.716  -1.560  0.00  0.00     0.241 S 
ATOM     20  O   UNL d   1      27.528  -9.372  -2.067  0.00  0.00    -0.206 OA
ATOM     21  O   UNL d   1      27.254 -11.103  -0.236  0.00  0.00    -0.206 OA
BRANCH  19  22
ATOM     22  N   UNL d   1      29.335 -11.035  -1.659  0.00  0.00    -0.211 NA
ATOM     23  H   UNL d   1      29.893 -10.178  -1.647  0.00  0.00     0.140 HD
BRANCH  22  24
ATOM     24  C   UNL d   1      29.794 -11.952  -0.563  0.00  0.00     0.143 C 
BRANCH  24  25
ATOM     25  C   UNL d   1      29.348 -13.344  -0.895  0.00  0.00    -0.042 C 
ATOM     26  C   UNL d   1      29.539 -14.022  -2.092  0.00  0.00     0.008 C 
ATOM     27  C   UNL d   1      28.942 -15.305  -2.231  0.00  0.00     0.022 C 
ATOM     28  C   UNL d   1      28.027 -15.748  -1.233  0.00  0.00     0.170 C 
ATOM     29  C   UNL d   1      27.521 -14.790  -0.416  0.00  0.00     0.092 C 
ATOM     30  O   UNL d   1      28.285 -16.780  -0.190  0.00  0.00    -0.341 OA
ATOM     31  C   UNL d   1      28.464 -13.884   0.015  0.00  0.00     0.044 C 
ATOM     32  O   UNL d   1      26.607 -15.288   0.477  0.00  0.00    -0.327 OA
ATOM     33  C   UNL d   1      27.503 -16.259   0.980  0.00  0.00     0.346 C 
ENDBRANCH  24  25
ENDBRANCH  22  24
ENDBRANCH  19  22
ENDBRANCH  17  19
ENDBRANCH  10  13
ENDBRANCH   7   9
TORSDOF 6
ENDMDL
MODEL 8
REMARK VINA RESULT:   -29.411      3.862      5.538
REMARK INTER + INTRA:         -33.208
REMARK INTER:                 -31.201
REMARK INTRA:                  -2.007
REMARK CONF_INDEPENDENT:        1.790
REMARK UNBOUND:                -2.007
REMARK  6 active torsions:
REMARK  status: ('A' for Active; 'I' for Inactive)
REMARK    1  A    between atoms: C_7  and  N_8 
REMARK       I    between atoms: N_8  and  C_9 
REMARK    2  A    between atoms: C_9  and  C_11 
REMARK    3  A    between atoms: C_15  and  S_16 
REMARK    4  A    between atoms: S_16  and  N_19 
REMARK    5  A    between atoms: N_19  and  C_20 
REMARK    6  A    between atoms: C_20  and  C_21 
ROOT
ATOM      1  N   UNL d   1      19.905 -18.795  -0.895  0.00  0.00    -0.191 NA
ATOM      2  C   UNL d   1      21.009 -18.435  -0.689  0.00  0.00     0.099 C 
ATOM      3  C   UNL d   1      22.348 -18.000  -0.492  0.00  0.00     0.046 A 
ATOM      4  C   UNL d   1      23.197 -18.617   0.418  0.00  0.00     0.023 A 
ATOM      5  C   UNL d   1      24.528 -18.200   0.508  0.00  0.00     0.004 A 
ATOM      6  C   UNL d   1      25.016 -17.163  -0.314  0.00  0.00     0.029 A 
ATOM      7  C   UNL d   1      24.157 -16.511  -1.211  0.00  0.00     0.036 A 
ATOM      8  C   UNL d   1      22.830 -16.947  -1.270  0.00  0.00     0.052 A 
ENDROOT
BRANCH   7   9
ATOM      9  N   UNL d   1      24.626 -15.450  -2.039  0.00  0.00    -0.323 N 
ATOM     10  C   UNL d   1      25.907 -15.397  -2.588  0.00  0.00     0.256 C 
ATOM     11  O   UNL d   1      26.809 -16.216  -2.440  0.00  0.00    -0.267 OA
ATOM     12  H   UNL d   1      23.964 -14.717  -2.269  0.00  0.00     0.169 HD
BRANCH  10  13
ATOM     13  C   UNL d   1      26.279 -14.236  -3.424  0.00  0.00     0.033 A 
ATOM     14  C   UNL d   1      26.453 -14.450  -4.804  0.00  0.00     0.017 A 
ATOM     15  C   UNL d   1      27.049 -13.473  -5.597  0.00  0.00     0.003 A 
ATOM     16  C   UNL d   1      27.398 -12.250  -5.031  0.00  0.00     0.025 A 
ATOM     17  C   UNL d   1      27.226 -12.040  -3.653  0.00  0.00     0.075 A 
ATOM     18  C   UNL d   1      26.671 -13.031  -2.840  0.00  0.00     0.041 A 
BRANCH  17  19
ATOM     19  S   UNL d   1      27.821 -10.509  -2.990  0.00  0.00     0.241 S 
ATOM     20  O   UNL d   1      29.221 -10.686  -2.680  0.00  0.00    -0.206 OA
ATOM     21  O   UNL d   1      27.344  -9.454  -3.855  0.00  0.00    -0.206 OA
BRANCH  19  22
ATOM     22  N   UNL d   1      27.059 -10.317  -1.502  0.00  0.00    -0.211 NA
ATOM     23  H   UNL d   1      26.278 -10.966  -1.384  0.00  0.00     0.140 HD
BRANCH  22  24
ATOM     24  C   UNL d   1      28.020 -10.468  -0.358  0.00  0.00     0.143 C 
BRANCH  24  25
ATOM     25  C   UNL d   1      27.645 -11.698   0.413  0.00  0.00    -0.042 C 
ATOM     26  C   UNL d   1      26.886 -11.760   1.574  0.00  0.00     0.008 C 
ATOM     27  C   UNL d   1      26.734 -13.027   2.201  0.00  0.00     0.022 C 
ATOM     28  C   UNL d   1      27.515 -14.123   1.733  0.00  0.00     0.170 C 
ATOM     29  C   UNL d   1      28.591 -13.808   0.969  0.00  0.00     0.092 C 
ATOM     30  O   UNL d   1      27.029 -15.275   0.923  0.00  0.00    -0.341 OA
ATOM     31  C   UNL d   1      28.332 -12.831   0.034  0.00  0.00     0.044 C 
ATOM     32  O   UNL d   1      29.321 -14.912   0.608  0.00  0.00    -0.327 OA
ATOM     33  C   UNL d   1      28.205 -15.566   0.038  0.00  0.00     0.346 C 
ENDBRANCH  24  25
ENDBRANCH  22  24
ENDBRANCH  19  22
ENDBRANCH  17  19
ENDBRANCH  10  13
ENDBRANCH   7   9
TORSDOF 6
ENDMDL
MODEL 9
REMARK VINA RESULT:   -29.119      2.886      3.824
REMARK INTER + INTRA:         -33.304
REMARK INTER:                 -30.909
REMARK INTRA:                  -2.395
REMARK CONF_INDEPENDENT:        1.790
REMARK UNBOUND:                -2.395
REMARK  6 active torsions:
REMARK  status: ('A' for Active; 'I' for Inactive)
REMARK    1  A    between atoms: C_7  and  N_8 
REMARK       I    between atoms: N_8  and  C_9 
REMARK    2  A    between atoms: C_9  and  C_11 
REMARK    3  A    between atoms: C_15  and  S_16 
REMARK    4  A    between atoms: S_16  and  N_19 
REMARK    5  A    between atoms: N_19  and  C_20 
REMARK    6  A    between atoms: C_20  and  C_21 
ROOT
ATOM      1  N   UNL d   1      19.905 -18.576  -1.246  0.00  0.00    -0.191 NA
ATOM      2  C   UNL d   1      21.018 -18.345  -0.933  0.00  0.00     0.099 C 
ATOM      3  C   UNL d   1      22.374 -18.076  -0.603  0.00  0.00     0.046 A 
ATOM      4  C   UNL d   1      22.982 -18.620   0.521  0.00  0.00     0.023 A 
ATOM      5  C   UNL d   1      24.341 -18.388   0.748  0.00  0.00     0.004 A 
ATOM      6  C   UNL d   1      25.099 -17.609  -0.151  0.00  0.00     0.029 A 
ATOM      7  C   UNL d   1      24.486 -17.027  -1.270  0.00  0.00     0.036 A 
ATOM      8  C   UNL d   1      23.123 -17.272  -1.463  0.00  0.00     0.052 A 
ENDROOT
BRANCH   7   9
ATOM      9  N   UNL d   1      25.232 -16.224  -2.183  0.00  0.00    -0.323 N 
ATOM     10  C   UNL d   1      24.779 -15.011  -2.704  0.00  0.00     0.256 C 
ATOM     11  O   UNL d   1      23.700 -14.469  -2.483  0.00  0.00    -0.267 OA
ATOM     12  H   UNL d   1      26.162 -16.544  -2.426  0.00  0.00     0.169 HD
BRANCH  10  13
ATOM     13  C   UNL d   1      25.641 -14.274  -3.651  0.00  0.00     0.033 A 
ATOM     14  C   UNL d   1      25.122 -13.104  -4.235  0.00  0.00     0.017 A 
ATOM     15  C   UNL d   1      25.769 -12.512  -5.318  0.00  0.00     0.003 A 
ATOM     16  C   UNL d   1      26.977 -13.040  -5.766  0.00  0.00     0.025 A 
ATOM     17  C   UNL d   1      27.491 -14.211  -5.182  0.00  0.00     0.075 A 
ATOM     18  C   UNL d   1      26.826 -14.837  -4.126  0.00  0.00     0.041 A 
BRANCH  17  19
ATOM     19  S   UNL d   1      28.960 -14.891  -5.900  0.00  0.00     0.241 S 
ATOM     20  O   UNL d   1      28.907 -16.324  -5.718  0.00  0.00    -0.206 OA
ATOM     21  O   UNL d   1      29.126 -14.278  -7.198  0.00  0.00    -0.206 OA
BRANCH  19  22
ATOM     22  N   UNL d   1      30.237 -14.370  -4.935  0.00  0.00    -0.211 NA
ATOM     23  H   UNL d   1      30.908 -13.805  -5.460  0.00  0.00     0.140 HD
BRANCH  22  24
ATOM     24  C   UNL d   1      29.756 -13.603  -3.738  0.00  0.00     0.143 C 
BRANCH  24  25
ATOM     25  C   UNL d   1      29.969 -14.449  -2.519  0.00  0.00    -0.042 C 
ATOM     26  C   UNL d   1      31.177 -14.933  -2.035  0.00  0.00     0.008 C 
ATOM     27  C   UNL d   1      31.141 -15.806  -0.913  0.00  0.00     0.022 C 
ATOM     28  C   UNL d   1      29.881 -16.297  -0.466  0.00  0.00     0.170 C 
ATOM     29  C   UNL d   1      28.849 -16.185  -1.340  0.00  0.00     0.092 C 
ATOM     30  O   UNL d   1      29.148 -15.869   0.759  0.00  0.00    -0.341 OA
ATOM     31  C   UNL d   1      28.809 -14.971  -1.987  0.00  0.00     0.044 C 
ATOM     32  O   UNL d   1      27.688 -16.732  -0.856  0.00  0.00    -0.327 OA
ATOM     33  C   UNL d   1      27.715 -15.953   0.323  0.00  0.00     0.346 C 
ENDBRANCH  24  25
ENDBRANCH  22  24
ENDBRANCH  19  22
ENDBRANCH  17  19
ENDBRANCH  10  13
ENDBRANCH   7   9
TORSDOF 6
ENDMDL
