MODEL 1
REMARK VINA RESULT:   -11.524      0.000      0.000
REMARK INTER + INTRA:         -17.573
REMARK INTER:                 -15.402
REMARK INTRA:                  -2.172
REMARK CONF_INDEPENDENT:        3.878
REMARK UNBOUND:                -2.172
REMARK  13 active torsions:
REMARK  status: ('A' for Active; 'I' for Inactive)
REMARK    1  A    between atoms: C_2  and  C_3 
REMARK    2  A    between atoms: C_3  and  C_4 
REMARK    3  A    between atoms: C_4  and  O_5 
REMARK    4  A    between atoms: O_5  and  C_6 
REMARK    5  A    between atoms: C_9  and  C_10 
REMARK    6  A    between atoms: C_10  and  O_12 
REMARK    7  A    between atoms: O_12  and  C_13 
REMARK    8  A    between atoms: C_16  and  C_17 
REMARK    9  A    between atoms: N_18  and  N_19 
REMARK       I    between atoms: N_19  and  C_20 
REMARK   10  A    between atoms: C_20  and  C_22 
REMARK   11  A    between atoms: C_22  and  O_23 
REMARK   12  A    between atoms: O_23  and  C_24 
REMARK   13  A    between atoms: C_35  and  O_36 
ROOT
ATOM      1  C   UNL d   1      26.341 -15.492  -2.205  0.00  0.00     0.112 A 
ATOM      2  C   UNL d   1      25.556 -15.348  -3.369  0.00  0.00     0.041 A 
ATOM      3  C   UNL d   1      25.340 -14.076  -3.956  0.00  0.00     0.016 A 
ATOM      4  C   UNL d   1      25.878 -12.924  -3.369  0.00  0.00    -0.014 A 
ATOM      5  C   UNL d   1      26.698 -13.089  -2.240  0.00  0.00     0.052 A 
ATOM      6  C   UNL d   1      26.959 -14.359  -1.656  0.00  0.00     0.102 A 
ENDROOT
BRANCH   4   7
ATOM      7  C   UNL d   1      25.527 -11.548  -3.898  0.00  0.00     0.150 C 
ATOM      8  N   UNL d   1      25.539 -10.489  -3.144  0.00  0.00    -0.184 NA
BRANCH   8   9
ATOM      9  N   UNL d   1      25.154  -9.251  -3.666  0.00  0.00    -0.246 N 
ATOM     10  C   UNL d   1      26.036  -8.588  -4.548  0.00  0.00     0.261 C 
ATOM     11  O   UNL d   1      27.121  -9.072  -4.878  0.00  0.00    -0.269 OA
ATOM     12  H   UNL d   1      24.271  -8.845  -3.381  0.00  0.00     0.192 HD
BRANCH  10  13
ATOM     13  C   UNL d   1      25.562  -7.188  -5.098  0.00  0.00     0.280 C 
BRANCH  13  14
ATOM     14  O   UNL d   1      24.203  -6.911  -4.732  0.00  0.00    -0.342 OA
BRANCH  14  15
ATOM     15  C   UNL d   1      23.193  -6.772  -5.654  0.00  0.00     0.070 C 
ATOM     16  C   UNL d   1      23.653  -6.808  -6.973  0.00  0.00     0.037 C 
ATOM     17  C   UNL d   1      22.780  -6.603  -8.038  0.00  0.00     0.014 C 
ATOM     18  C   UNL d   1      21.416  -6.407  -7.818  0.00  0.00    -0.029 C 
ATOM     19  C   UNL d   1      20.553  -6.454  -8.913  0.00  0.00    -0.005 C 
ATOM     20  C   UNL d   1      20.895  -6.199  -6.526  0.00  0.00    -0.024 C 
ATOM     21  C   UNL d   1      19.190  -6.483  -8.708  0.00  0.00     0.043 C 
ATOM     22  C   UNL d   1      18.788  -5.632  -7.719  0.00  0.00    -0.016 C 
ATOM     23  C   UNL d   1      19.523  -5.709  -6.523  0.00  0.00     0.009 C 
ATOM     24  C   UNL d   1      21.835  -6.434  -5.428  0.00  0.00     0.049 C 
ENDBRANCH  14  15
ENDBRANCH  13  14
ENDBRANCH  10  13
ENDBRANCH   8   9
ENDBRANCH   4   7
BRANCH   6  25
ATOM     25  O   UNL d   1      27.791 -14.260  -0.574  0.00  0.00    -0.353 OA
ATOM     26  C   UNL d   1      28.727 -15.277  -0.268  0.00  0.00     0.210 C 
ENDBRANCH   6  25
BRANCH   1  27
ATOM     27  O   UNL d   1      26.543 -16.820  -1.734  0.00  0.00    -0.272 OA
BRANCH  27  28
ATOM     28  C   UNL d   1      26.049 -17.182  -0.469  0.00  0.00     0.298 C 
ATOM     29  O   UNL d   1      26.706 -17.404   0.515  0.00  0.00    -0.259 OA
BRANCH  28  30
ATOM     30  C   UNL d   1      24.564 -17.479  -0.553  0.00  0.00     0.040 A 
ATOM     31  C   UNL d   1      23.667 -16.408  -0.729  0.00  0.00     0.020 A 
ATOM     32  C   UNL d   1      22.284 -16.636  -0.846  0.00  0.00     0.038 A 
ATOM     33  C   UNL d   1      21.776 -17.935  -0.817  0.00  0.00     0.068 A 
ATOM     34  C   UNL d   1      22.654 -18.993  -0.569  0.00  0.00     0.038 A 
ATOM     35  C   UNL d   1      24.036 -18.764  -0.412  0.00  0.00     0.020 A 
BRANCH  33  36
ATOM     36  O   UNL d   1      20.451 -18.059  -1.146  0.00  0.00    -0.351 OA
BRANCH  36  37
ATOM     37  C   UNL d   1      19.849 -19.342  -0.962  0.00  0.00     0.175 C 
BRANCH  37  38
ATOM     38  C   UNL d   1      19.174 -19.392   0.414  0.00  0.00     0.026 C 
BRANCH  38  39
ATOM     39  C   UNL d   1      19.332 -20.771   1.057  0.00  0.00    -0.002 C 
ATOM     40  C   UNL d   1      18.050 -21.583   0.976  0.00  0.00     0.005 C 
ENDBRANCH  38  39
ENDBRANCH  37  38
ENDBRANCH  36  37
ENDBRANCH  33  36
ENDBRANCH  28  30
ENDBRANCH  27  28
ENDBRANCH   1  27
TORSDOF 13
ENDMDL
MODEL 2
REMARK VINA RESULT:   -11.157      5.466      9.319
REMARK INTER + INTRA:         -17.115
REMARK INTER:                 -15.034
REMARK INTRA:                  -2.081
REMARK CONF_INDEPENDENT:        3.878
REMARK UNBOUND:                -2.081
REMARK  13 active torsions:
REMARK  status: ('A' for Active; 'I' for Inactive)
REMARK    1  A    between atoms: C_2  and  C_3 
REMARK    2  A    between atoms: C_3  and  C_4 
REMARK    3  A    between atoms: C_4  and  O_5 
REMARK    4  A    between atoms: O_5  and  C_6 
REMARK    5  A    between atoms: C_9  and  C_10 
REMARK    6  A    between atoms: C_10  and  O_12 
REMARK    7  A    between atoms: O_12  and  C_13 
REMARK    8  A    between atoms: C_16  and  C_17 
REMARK    9  A    between atoms: N_18  and  N_19 
REMARK       I    between atoms: N_19  and  C_20 
REMARK   10  A    between atoms: C_20  and  C_22 
REMARK   11  A    between atoms: C_22  and  O_23 
REMARK   12  A    between atoms: O_23  and  C_24 
REMARK   13  A    between atoms: C_35  and  O_36 
ROOT
ATOM      1  C   UNL d   1      26.909 -15.913  -1.669  0.00  0.00     0.112 A 
ATOM      2  C   UNL d   1      28.293 -16.183  -1.611  0.00  0.00     0.041 A 
ATOM      3  C   UNL d   1      29.126 -15.992  -2.741  0.00  0.00     0.016 A 
ATOM      4  C   UNL d   1      28.582 -15.560  -3.957  0.00  0.00    -0.014 A 
ATOM      5  C   UNL d   1      27.213 -15.248  -3.986  0.00  0.00     0.052 A 
ATOM      6  C   UNL d   1      26.365 -15.396  -2.853  0.00  0.00     0.102 A 
ENDROOT
BRANCH   4   7
ATOM      7  C   UNL d   1      29.434 -15.500  -5.209  0.00  0.00     0.150 C 
ATOM      8  N   UNL d   1      29.271 -14.584  -6.118  0.00  0.00    -0.184 NA
BRANCH   8   9
ATOM      9  N   UNL d   1      30.045 -14.604  -7.282  0.00  0.00    -0.246 N 
ATOM     10  C   UNL d   1      31.442 -14.429  -7.165  0.00  0.00     0.261 C 
ATOM     11  O   UNL d   1      31.995 -14.274  -6.074  0.00  0.00    -0.269 OA
ATOM     12  H   UNL d   1      29.588 -14.714  -8.179  0.00  0.00     0.192 HD
BRANCH  10  13
ATOM     13  C   UNL d   1      32.268 -14.445  -8.508  0.00  0.00     0.280 C 
BRANCH  13  14
ATOM     14  O   UNL d   1      32.971 -15.685  -8.680  0.00  0.00    -0.342 OA
BRANCH  14  15
ATOM     15  C   UNL d   1      32.523 -16.877  -8.162  0.00  0.00     0.070 C 
ATOM     16  C   UNL d   1      32.298 -17.845  -9.143  0.00  0.00     0.037 C 
ATOM     17  C   UNL d   1      31.767 -19.088  -8.809  0.00  0.00     0.014 C 
ATOM     18  C   UNL d   1      31.493 -19.416  -7.481  0.00  0.00    -0.029 C 
ATOM     19  C   UNL d   1      31.199 -20.744  -7.171  0.00  0.00    -0.005 C 
ATOM     20  C   UNL d   1      31.540 -18.453  -6.454  0.00  0.00    -0.024 C 
ATOM     21  C   UNL d   1      31.141 -21.142  -5.852  0.00  0.00     0.043 C 
ATOM     22  C   UNL d   1      30.506 -20.231  -5.056  0.00  0.00    -0.016 C 
ATOM     23  C   UNL d   1      30.931 -18.900  -5.207  0.00  0.00     0.009 C 
ATOM     24  C   UNL d   1      32.114 -17.161  -6.834  0.00  0.00     0.049 C 
ENDBRANCH  14  15
ENDBRANCH  13  14
ENDBRANCH  10  13
ENDBRANCH   8   9
ENDBRANCH   4   7
BRANCH   6  25
ATOM     25  O   UNL d   1      25.078 -15.020  -3.128  0.00  0.00    -0.353 OA
ATOM     26  C   UNL d   1      24.795 -13.954  -4.016  0.00  0.00     0.210 C 
ENDBRANCH   6  25
BRANCH   1  27
ATOM     27  O   UNL d   1      26.177 -16.081  -0.459  0.00  0.00    -0.272 OA
BRANCH  27  28
ATOM     28  C   UNL d   1      25.857 -17.379  -0.027  0.00  0.00     0.298 C 
ATOM     29  O   UNL d   1      26.638 -18.228   0.317  0.00  0.00    -0.259 OA
BRANCH  28  30
ATOM     30  C   UNL d   1      24.384 -17.661  -0.260  0.00  0.00     0.040 A 
ATOM     31  C   UNL d   1      23.520 -16.580  -0.521  0.00  0.00     0.020 A 
ATOM     32  C   UNL d   1      22.154 -16.793  -0.776  0.00  0.00     0.038 A 
ATOM     33  C   UNL d   1      21.633 -18.086  -0.804  0.00  0.00     0.068 A 
ATOM     34  C   UNL d   1      22.470 -19.154  -0.474  0.00  0.00     0.038 A 
ATOM     35  C   UNL d   1      23.832 -18.941  -0.178  0.00  0.00     0.020 A 
BRANCH  33  36
ATOM     36  O   UNL d   1      20.346 -18.196  -1.265  0.00  0.00    -0.351 OA
BRANCH  36  37
ATOM     37  C   UNL d   1      19.614 -19.364  -0.889  0.00  0.00     0.175 C 
BRANCH  37  38
ATOM     38  C   UNL d   1      19.435 -19.383   0.634  0.00  0.00     0.026 C 
BRANCH  38  39
ATOM     39  C   UNL d   1      19.318 -20.815   1.159  0.00  0.00    -0.002 C 
ATOM     40  C   UNL d   1      17.953 -21.415   0.865  0.00  0.00     0.005 C 
ENDBRANCH  38  39
ENDBRANCH  37  38
ENDBRANCH  36  37
ENDBRANCH  33  36
ENDBRANCH  28  30
ENDBRANCH  27  28
ENDBRANCH   1  27
TORSDOF 13
ENDMDL
MODEL 3
REMARK VINA RESULT:   -11.063      1.470      1.893
REMARK INTER + INTRA:         -16.986
REMARK INTER:                 -14.941
REMARK INTRA:                  -2.046
REMARK CONF_INDEPENDENT:        3.878
REMARK UNBOUND:                -2.046
REMARK  13 active torsions:
REMARK  status: ('A' for Active; 'I' for Inactive)
REMARK    1  A    between atoms: C_2  and  C_3 
REMARK    2  A    between atoms: C_3  and  C_4 
REMARK    3  A    between atoms: C_4  and  O_5 
REMARK    4  A    between atoms: O_5  and  C_6 
REMARK    5  A    between atoms: C_9  and  C_10 
REMARK    6  A    between atoms: C_10  and  O_12 
REMARK    7  A    between atoms: O_12  and  C_13 
REMARK    8  A    between atoms: C_16  and  C_17 
REMARK    9  A    between atoms: N_18  and  N_19 
REMARK       I    between atoms: N_19  and  C_20 
REMARK   10  A    between atoms: C_20  and  C_22 
REMARK   11  A    between atoms: C_22  and  O_23 
REMARK   12  A    between atoms: O_23  and  C_24 
REMARK   13  A    between atoms: C_35  and  O_36 
ROOT
ATOM      1  C   UNL d   1      26.108 -14.865  -3.588  0.00  0.00     0.112 A 
ATOM      2  C   UNL d   1      25.290 -13.850  -3.046  0.00  0.00     0.041 A 
ATOM      3  C   UNL d   1      25.174 -12.586  -3.676  0.00  0.00     0.016 A 
ATOM      4  C   UNL d   1      25.899 -12.306  -4.840  0.00  0.00    -0.014 A 
ATOM      5  C   UNL d   1      26.670 -13.341  -5.395  0.00  0.00     0.052 A 
ATOM      6  C   UNL d   1      26.772 -14.629  -4.800  0.00  0.00     0.102 A 
ENDROOT
BRANCH   4   7
ATOM      7  C   UNL d   1      25.902 -10.912  -5.435  0.00  0.00     0.150 C 
ATOM      8  N   UNL d   1      25.401  -9.887  -4.808  0.00  0.00    -0.184 NA
BRANCH   8   9
ATOM      9  N   UNL d   1      25.378  -8.632  -5.421  0.00  0.00    -0.246 N 
ATOM     10  C   UNL d   1      25.440  -7.481  -4.604  0.00  0.00     0.261 C 
ATOM     11  O   UNL d   1      25.526  -7.551  -3.376  0.00  0.00    -0.269 OA
ATOM     12  H   UNL d   1      25.290  -8.573  -6.429  0.00  0.00     0.192 HD
BRANCH  10  13
ATOM     13  C   UNL d   1      25.396  -6.089  -5.343  0.00  0.00     0.280 C 
BRANCH  13  14
ATOM     14  O   UNL d   1      25.063  -6.239  -6.731  0.00  0.00    -0.342 OA
BRANCH  14  15
ATOM     15  C   UNL d   1      23.767  -6.314  -7.186  0.00  0.00     0.070 C 
ATOM     16  C   UNL d   1      23.679  -6.298  -8.580  0.00  0.00     0.037 C 
ATOM     17  C   UNL d   1      22.441  -6.286  -9.215  0.00  0.00     0.014 C 
ATOM     18  C   UNL d   1      21.257  -6.341  -8.478  0.00  0.00    -0.029 C 
ATOM     19  C   UNL d   1      20.061  -6.575  -9.156  0.00  0.00    -0.005 C 
ATOM     20  C   UNL d   1      21.249  -6.200  -7.076  0.00  0.00    -0.024 C 
ATOM     21  C   UNL d   1      18.914  -6.852  -8.444  0.00  0.00     0.043 C 
ATOM     22  C   UNL d   1      18.780  -6.065  -7.336  0.00  0.00    -0.016 C 
ATOM     23  C   UNL d   1      19.921  -5.974  -6.520  0.00  0.00     0.009 C 
ATOM     24  C   UNL d   1      22.566  -6.228  -6.438  0.00  0.00     0.049 C 
ENDBRANCH  14  15
ENDBRANCH  13  14
ENDBRANCH  10  13
ENDBRANCH   8   9
ENDBRANCH   4   7
BRANCH   6  25
ATOM     25  O   UNL d   1      27.571 -15.465  -5.531  0.00  0.00    -0.353 OA
ATOM     26  C   UNL d   1      28.979 -15.315  -5.544  0.00  0.00     0.210 C 
ENDBRANCH   6  25
BRANCH   1  27
ATOM     27  O   UNL d   1      26.105 -16.115  -2.907  0.00  0.00    -0.272 OA
BRANCH  27  28
ATOM     28  C   UNL d   1      26.096 -16.131  -1.502  0.00  0.00     0.298 C 
ATOM     29  O   UNL d   1      26.975 -15.738  -0.780  0.00  0.00    -0.259 OA
BRANCH  28  30
ATOM     30  C   UNL d   1      24.907 -16.926  -0.995  0.00  0.00     0.040 A 
ATOM     31  C   UNL d   1      23.645 -16.303  -0.950  0.00  0.00     0.020 A 
ATOM     32  C   UNL d   1      22.507 -17.008  -0.520  0.00  0.00     0.038 A 
ATOM     33  C   UNL d   1      22.603 -18.350  -0.154  0.00  0.00     0.068 A 
ATOM     34  C   UNL d   1      23.864 -18.950  -0.127  0.00  0.00     0.038 A 
ATOM     35  C   UNL d   1      25.013 -18.235  -0.520  0.00  0.00     0.020 A 
BRANCH  33  36
ATOM     36  O   UNL d   1      21.410 -18.995   0.047  0.00  0.00    -0.351 OA
BRANCH  36  37
ATOM     37  C   UNL d   1      20.514 -19.075  -1.064  0.00  0.00     0.175 C 
BRANCH  37  38
ATOM     38  C   UNL d   1      19.156 -19.601  -0.583  0.00  0.00     0.026 C 
BRANCH  38  39
ATOM     39  C   UNL d   1      19.325 -20.825   0.318  0.00  0.00    -0.002 C 
ATOM     40  C   UNL d   1      18.405 -20.768   1.527  0.00  0.00     0.005 C 
ENDBRANCH  38  39
ENDBRANCH  37  38
ENDBRANCH  36  37
ENDBRANCH  33  36
ENDBRANCH  28  30
ENDBRANCH  27  28
ENDBRANCH   1  27
TORSDOF 13
ENDMDL
MODEL 4
REMARK VINA RESULT:   -10.528      3.341      4.562
REMARK INTER + INTRA:         -16.393
REMARK INTER:                 -14.405
REMARK INTRA:                  -1.988
REMARK CONF_INDEPENDENT:        3.878
REMARK UNBOUND:                -1.988
REMARK  13 active torsions:
REMARK  status: ('A' for Active; 'I' for Inactive)
REMARK    1  A    between atoms: C_2  and  C_3 
REMARK    2  A    between atoms: C_3  and  C_4 
REMARK    3  A    between atoms: C_4  and  O_5 
REMARK    4  A    between atoms: O_5  and  C_6 
REMARK    5  A    between atoms: C_9  and  C_10 
REMARK    6  A    between atoms: C_10  and  O_12 
REMARK    7  A    between atoms: O_12  and  C_13 
REMARK    8  A    between atoms: C_16  and  C_17 
REMARK    9  A    between atoms: N_18  and  N_19 
REMARK       I    between atoms: N_19  and  C_20 
REMARK   10  A    between atoms: C_20  and  C_22 
REMARK   11  A    between atoms: C_22  and  O_23 
REMARK   12  A    between atoms: O_23  and  C_24 
REMARK   13  A    between atoms: C_35  and  O_36 
ROOT
ATOM      1  C   UNL d   1      26.750 -15.893  -1.449  0.00  0.00     0.112 A 
ATOM      2  C   UNL d   1      25.778 -15.137  -2.137  0.00  0.00     0.041 A 
ATOM      3  C   UNL d   1      25.995 -14.698  -3.466  0.00  0.00     0.016 A 
ATOM      4  C   UNL d   1      27.202 -14.981  -4.118  0.00  0.00    -0.014 A 
ATOM      5  C   UNL d   1      28.139 -15.777  -3.439  0.00  0.00     0.052 A 
ATOM      6  C   UNL d   1      27.926 -16.259  -2.118  0.00  0.00     0.102 A 
ENDROOT
BRANCH   4   7
ATOM      7  C   UNL d   1      27.505 -14.388  -5.479  0.00  0.00     0.150 C 
ATOM      8  N   UNL d   1      28.348 -14.936  -6.305  0.00  0.00    -0.184 NA
BRANCH   8   9
ATOM      9  N   UNL d   1      28.636 -14.322  -7.526  0.00  0.00    -0.246 N 
ATOM     10  C   UNL d   1      29.545 -13.240  -7.540  0.00  0.00     0.261 C 
ATOM     11  O   UNL d   1      30.097 -12.834  -6.515  0.00  0.00    -0.269 OA
ATOM     12  H   UNL d   1      28.169 -14.644  -8.366  0.00  0.00     0.192 HD
BRANCH  10  13
ATOM     13  C   UNL d   1      29.825 -12.573  -8.940  0.00  0.00     0.280 C 
BRANCH  13  14
ATOM     14  O   UNL d   1      28.649 -11.943  -9.469  0.00  0.00    -0.342 OA
BRANCH  14  15
ATOM     15  C   UNL d   1      27.863 -11.088  -8.733  0.00  0.00     0.070 C 
ATOM     16  C   UNL d   1      27.961  -9.760  -9.158  0.00  0.00     0.037 C 
ATOM     17  C   UNL d   1      27.296  -8.745  -8.477  0.00  0.00     0.014 C 
ATOM     18  C   UNL d   1      26.474  -9.032  -7.386  0.00  0.00    -0.029 C 
ATOM     19  C   UNL d   1      25.643  -8.024  -6.896  0.00  0.00    -0.005 C 
ATOM     20  C   UNL d   1      26.444 -10.311  -6.797  0.00  0.00    -0.024 C 
ATOM     21  C   UNL d   1      24.669  -8.332  -5.970  0.00  0.00     0.043 C 
ATOM     22  C   UNL d   1      25.108  -9.205  -5.015  0.00  0.00    -0.016 C 
ATOM     23  C   UNL d   1      25.779 -10.340  -5.500  0.00  0.00     0.009 C 
ATOM     24  C   UNL d   1      27.143 -11.359  -7.543  0.00  0.00     0.049 C 
ENDBRANCH  14  15
ENDBRANCH  13  14
ENDBRANCH  10  13
ENDBRANCH   8   9
ENDBRANCH   4   7
BRANCH   6  25
ATOM     25  O   UNL d   1      28.977 -17.017  -1.678  0.00  0.00    -0.353 OA
ATOM     26  C   UNL d   1      29.542 -16.821  -0.395  0.00  0.00     0.210 C 
ENDBRANCH   6  25
BRANCH   1  27
ATOM     27  O   UNL d   1      26.405 -16.333  -0.139  0.00  0.00    -0.272 OA
BRANCH  27  28
ATOM     28  C   UNL d   1      25.938 -17.646   0.041  0.00  0.00     0.298 C 
ATOM     29  O   UNL d   1      26.611 -18.617   0.272  0.00  0.00    -0.259 OA
BRANCH  28  30
ATOM     30  C   UNL d   1      24.465 -17.731  -0.315  0.00  0.00     0.040 A 
ATOM     31  C   UNL d   1      23.880 -19.001  -0.480  0.00  0.00     0.020 A 
ATOM     32  C   UNL d   1      22.513 -19.133  -0.778  0.00  0.00     0.038 A 
ATOM     33  C   UNL d   1      21.700 -18.005  -0.888  0.00  0.00     0.068 A 
ATOM     34  C   UNL d   1      22.291 -16.742  -0.799  0.00  0.00     0.038 A 
ATOM     35  C   UNL d   1      23.670 -16.606  -0.540  0.00  0.00     0.020 A 
BRANCH  33  36
ATOM     36  O   UNL d   1      20.355 -18.251  -0.972  0.00  0.00    -0.351 OA
BRANCH  36  37
ATOM     37  C   UNL d   1      19.929 -19.610  -0.854  0.00  0.00     0.175 C 
BRANCH  37  38
ATOM     38  C   UNL d   1      19.962 -20.026   0.621  0.00  0.00     0.026 C 
BRANCH  38  39
ATOM     39  C   UNL d   1      18.549 -20.137   1.196  0.00  0.00    -0.002 C 
ATOM     40  C   UNL d   1      18.018 -21.559   1.120  0.00  0.00     0.005 C 
ENDBRANCH  38  39
ENDBRANCH  37  38
ENDBRANCH  36  37
ENDBRANCH  33  36
ENDBRANCH  28  30
ENDBRANCH  27  28
ENDBRANCH   1  27
TORSDOF 13
ENDMDL
MODEL 5
REMARK VINA RESULT:   -10.456      1.796      2.308
REMARK INTER + INTRA:         -16.385
REMARK INTER:                 -14.334
REMARK INTRA:                  -2.051
REMARK CONF_INDEPENDENT:        3.878
REMARK UNBOUND:                -2.051
REMARK  13 active torsions:
REMARK  status: ('A' for Active; 'I' for Inactive)
REMARK    1  A    between atoms: C_2  and  C_3 
REMARK    2  A    between atoms: C_3  and  C_4 
REMARK    3  A    between atoms: C_4  and  O_5 
REMARK    4  A    between atoms: O_5  and  C_6 
REMARK    5  A    between atoms: C_9  and  C_10 
REMARK    6  A    between atoms: C_10  and  O_12 
REMARK    7  A    between atoms: O_12  and  C_13 
REMARK    8  A    between atoms: C_16  and  C_17 
REMARK    9  A    between atoms: N_18  and  N_19 
REMARK       I    between atoms: N_19  and  C_20 
REMARK   10  A    between atoms: C_20  and  C_22 
REMARK   11  A    between atoms: C_22  and  O_23 
REMARK   12  A    between atoms: O_23  and  C_24 
REMARK   13  A    between atoms: C_35  and  O_36 
ROOT
ATOM      1  C   UNL d   1      26.186 -15.047  -3.310  0.00  0.00     0.112 A 
ATOM      2  C   UNL d   1      25.331 -14.083  -2.734  0.00  0.00     0.041 A 
ATOM      3  C   UNL d   1      25.179 -12.798  -3.311  0.00  0.00     0.016 A 
ATOM      4  C   UNL d   1      25.904 -12.445  -4.456  0.00  0.00    -0.014 A 
ATOM      5  C   UNL d   1      26.711 -13.431  -5.047  0.00  0.00     0.052 A 
ATOM      6  C   UNL d   1      26.850 -14.739  -4.506  0.00  0.00     0.102 A 
ENDROOT
BRANCH   4   7
ATOM      7  C   UNL d   1      25.866 -11.028  -4.991  0.00  0.00     0.150 C 
ATOM      8  N   UNL d   1      25.567 -10.759  -6.229  0.00  0.00    -0.184 NA
BRANCH   8   9
ATOM      9  N   UNL d   1      25.599  -9.440  -6.689  0.00  0.00    -0.246 N 
ATOM     10  C   UNL d   1      26.405  -9.136  -7.809  0.00  0.00     0.261 C 
ATOM     11  O   UNL d   1      27.066  -9.996  -8.395  0.00  0.00    -0.269 OA
ATOM     12  H   UNL d   1      25.070  -8.731  -6.197  0.00  0.00     0.192 HD
BRANCH  10  13
ATOM     13  C   UNL d   1      26.417  -7.632  -8.280  0.00  0.00     0.280 C 
BRANCH  13  14
ATOM     14  O   UNL d   1      25.512  -6.830  -7.507  0.00  0.00    -0.342 OA
BRANCH  14  15
ATOM     15  C   UNL d   1      24.165  -6.754  -7.773  0.00  0.00     0.070 C 
ATOM     16  C   UNL d   1      23.889  -6.574  -9.130  0.00  0.00     0.037 C 
ATOM     17  C   UNL d   1      22.582  -6.396  -9.574  0.00  0.00     0.014 C 
ATOM     18  C   UNL d   1      21.510  -6.445  -8.682  0.00  0.00    -0.029 C 
ATOM     19  C   UNL d   1      20.216  -6.509  -9.199  0.00  0.00    -0.005 C 
ATOM     20  C   UNL d   1      21.707  -6.463  -7.286  0.00  0.00    -0.024 C 
ATOM     21  C   UNL d   1      19.156  -6.777  -8.359  0.00  0.00     0.043 C 
ATOM     22  C   UNL d   1      19.247  -6.112  -7.169  0.00  0.00    -0.016 C 
ATOM     23  C   UNL d   1      20.493  -6.201  -6.523  0.00  0.00     0.009 C 
ATOM     24  C   UNL d   1      23.090  -6.663  -6.853  0.00  0.00     0.049 C 
ENDBRANCH  14  15
ENDBRANCH  13  14
ENDBRANCH  10  13
ENDBRANCH   8   9
ENDBRANCH   4   7
BRANCH   6  25
ATOM     25  O   UNL d   1      27.682 -15.517  -5.264  0.00  0.00    -0.353 OA
ATOM     26  C   UNL d   1      28.456 -14.966  -6.313  0.00  0.00     0.210 C 
ENDBRANCH   6  25
BRANCH   1  27
ATOM     27  O   UNL d   1      26.218 -16.325  -2.683  0.00  0.00    -0.272 OA
BRANCH  27  28
ATOM     28  C   UNL d   1      25.973 -16.417  -1.302  0.00  0.00     0.298 C 
ATOM     29  O   UNL d   1      26.770 -16.215  -0.422  0.00  0.00    -0.259 OA
BRANCH  28  30
ATOM     30  C   UNL d   1      24.608 -17.030  -1.053  0.00  0.00     0.040 A 
ATOM     31  C   UNL d   1      24.530 -18.390  -0.697  0.00  0.00     0.020 A 
ATOM     32  C   UNL d   1      23.291 -18.995  -0.423  0.00  0.00     0.038 A 
ATOM     33  C   UNL d   1      22.113 -18.249  -0.472  0.00  0.00     0.068 A 
ATOM     34  C   UNL d   1      22.178 -16.920  -0.895  0.00  0.00     0.038 A 
ATOM     35  C   UNL d   1      23.415 -16.321  -1.209  0.00  0.00     0.020 A 
BRANCH  33  36
ATOM     36  O   UNL d   1      20.995 -18.877   0.012  0.00  0.00    -0.351 OA
BRANCH  36  37
ATOM     37  C   UNL d   1      19.906 -19.065  -0.895  0.00  0.00     0.175 C 
BRANCH  37  38
ATOM     38  C   UNL d   1      18.862 -19.984  -0.250  0.00  0.00     0.026 C 
BRANCH  38  39
ATOM     39  C   UNL d   1      19.484 -20.838   0.856  0.00  0.00    -0.002 C 
ATOM     40  C   UNL d   1      19.616 -20.067   2.159  0.00  0.00     0.005 C 
ENDBRANCH  38  39
ENDBRANCH  37  38
ENDBRANCH  36  37
ENDBRANCH  33  36
ENDBRANCH  28  30
ENDBRANCH  27  28
ENDBRANCH   1  27
TORSDOF 13
ENDMDL
MODEL 6
REMARK VINA RESULT:   -10.180      5.395      8.497
REMARK INTER + INTRA:         -16.242
REMARK INTER:                 -14.058
REMARK INTRA:                  -2.184
REMARK CONF_INDEPENDENT:        3.878
REMARK UNBOUND:                -2.184
REMARK  13 active torsions:
REMARK  status: ('A' for Active; 'I' for Inactive)
REMARK    1  A    between atoms: C_2  and  C_3 
REMARK    2  A    between atoms: C_3  and  C_4 
REMARK    3  A    between atoms: C_4  and  O_5 
REMARK    4  A    between atoms: O_5  and  C_6 
REMARK    5  A    between atoms: C_9  and  C_10 
REMARK    6  A    between atoms: C_10  and  O_12 
REMARK    7  A    between atoms: O_12  and  C_13 
REMARK    8  A    between atoms: C_16  and  C_17 
REMARK    9  A    between atoms: N_18  and  N_19 
REMARK       I    between atoms: N_19  and  C_20 
REMARK   10  A    between atoms: C_20  and  C_22 
REMARK   11  A    between atoms: C_22  and  O_23 
REMARK   12  A    between atoms: O_23  and  C_24 
REMARK   13  A    between atoms: C_35  and  O_36 
ROOT
ATOM      1  C   UNL d   1      27.002 -15.192  -0.745  0.00  0.00     0.112 A 
ATOM      2  C   UNL d   1      27.255 -15.144   0.643  0.00  0.00     0.041 A 
ATOM      3  C   UNL d   1      27.370 -13.907   1.325  0.00  0.00     0.016 A 
ATOM      4  C   UNL d   1      27.266 -12.699   0.625  0.00  0.00    -0.014 A 
ATOM      5  C   UNL d   1      26.965 -12.763  -0.746  0.00  0.00     0.052 A 
ATOM      6  C   UNL d   1      26.809 -13.992  -1.443  0.00  0.00     0.102 A 
ENDROOT
BRANCH   4   7
ATOM      7  C   UNL d   1      27.539 -11.377   1.315  0.00  0.00     0.150 C 
ATOM      8  N   UNL d   1      27.108 -10.244   0.842  0.00  0.00    -0.184 NA
BRANCH   8   9
ATOM      9  N   UNL d   1      27.432  -9.047   1.485  0.00  0.00    -0.246 N 
ATOM     10  C   UNL d   1      26.399  -8.116   1.738  0.00  0.00     0.261 C 
ATOM     11  O   UNL d   1      25.227  -8.333   1.421  0.00  0.00    -0.269 OA
ATOM     12  H   UNL d   1      28.397  -8.860   1.730  0.00  0.00     0.192 HD
BRANCH  10  13
ATOM     13  C   UNL d   1      26.818  -6.775   2.452  0.00  0.00     0.280 C 
BRANCH  13  14
ATOM     14  O   UNL d   1      26.855  -6.927   3.879  0.00  0.00    -0.342 OA
BRANCH  14  15
ATOM     15  C   UNL d   1      27.411  -8.020   4.501  0.00  0.00     0.070 C 
ATOM     16  C   UNL d   1      28.546  -7.700   5.249  0.00  0.00     0.037 C 
ATOM     17  C   UNL d   1      29.285  -8.695   5.883  0.00  0.00     0.014 C 
ATOM     18  C   UNL d   1      28.882 -10.030   5.830  0.00  0.00    -0.029 C 
ATOM     19  C   UNL d   1      29.507 -10.948   6.675  0.00  0.00    -0.005 C 
ATOM     20  C   UNL d   1      27.849 -10.459   4.974  0.00  0.00    -0.024 C 
ATOM     21  C   UNL d   1      28.989 -12.219   6.806  0.00  0.00     0.043 C 
ATOM     22  C   UNL d   1      28.585 -12.747   5.613  0.00  0.00    -0.016 C 
ATOM     23  C   UNL d   1      27.780 -11.907   4.824  0.00  0.00     0.009 C 
ATOM     24  C   UNL d   1      27.084  -9.389   4.332  0.00  0.00     0.049 C 
ENDBRANCH  14  15
ENDBRANCH  13  14
ENDBRANCH  10  13
ENDBRANCH   8   9
ENDBRANCH   4   7
BRANCH   6  25
ATOM     25  O   UNL d   1      26.510 -13.793  -2.764  0.00  0.00    -0.353 OA
ATOM     26  C   UNL d   1      25.173 -13.802  -3.228  0.00  0.00     0.210 C 
ENDBRANCH   6  25
BRANCH   1  27
ATOM     27  O   UNL d   1      26.846 -16.486  -1.318  0.00  0.00    -0.272 OA
BRANCH  27  28
ATOM     28  C   UNL d   1      26.477 -17.561  -0.492  0.00  0.00     0.298 C 
ATOM     29  O   UNL d   1      27.223 -18.355   0.021  0.00  0.00    -0.259 OA
BRANCH  28  30
ATOM     30  C   UNL d   1      24.970 -17.737  -0.504  0.00  0.00     0.040 A 
ATOM     31  C   UNL d   1      24.161 -16.633  -0.835  0.00  0.00     0.020 A 
ATOM     32  C   UNL d   1      22.762 -16.754  -0.892  0.00  0.00     0.038 A 
ATOM     33  C   UNL d   1      22.147 -17.983  -0.649  0.00  0.00     0.068 A 
ATOM     34  C   UNL d   1      22.940 -19.061  -0.249  0.00  0.00     0.038 A 
ATOM     35  C   UNL d   1      24.340 -18.933  -0.151  0.00  0.00     0.020 A 
BRANCH  33  36
ATOM     36  O   UNL d   1      20.808 -18.041  -0.933  0.00  0.00    -0.351 OA
BRANCH  36  37
ATOM     37  C   UNL d   1      20.261 -19.323  -1.251  0.00  0.00     0.175 C 
BRANCH  37  38
ATOM     38  C   UNL d   1      19.031 -19.582  -0.374  0.00  0.00     0.026 C 
BRANCH  38  39
ATOM     39  C   UNL d   1      19.285 -20.725   0.611  0.00  0.00    -0.002 C 
ATOM     40  C   UNL d   1      19.900 -20.227   1.909  0.00  0.00     0.005 C 
ENDBRANCH  38  39
ENDBRANCH  37  38
ENDBRANCH  36  37
ENDBRANCH  33  36
ENDBRANCH  28  30
ENDBRANCH  27  28
ENDBRANCH   1  27
TORSDOF 13
ENDMDL
MODEL 7
REMARK VINA RESULT:   -10.049      4.405      6.040
REMARK INTER + INTRA:         -16.270
REMARK INTER:                 -13.927
REMARK INTRA:                  -2.343
REMARK CONF_INDEPENDENT:        3.878
REMARK UNBOUND:                -2.343
REMARK  13 active torsions:
REMARK  status: ('A' for Active; 'I' for Inactive)
REMARK    1  A    between atoms: C_2  and  C_3 
REMARK    2  A    between atoms: C_3  and  C_4 
REMARK    3  A    between atoms: C_4  and  O_5 
REMARK    4  A    between atoms: O_5  and  C_6 
REMARK    5  A    between atoms: C_9  and  C_10 
REMARK    6  A    between atoms: C_10  and  O_12 
REMARK    7  A    between atoms: O_12  and  C_13 
REMARK    8  A    between atoms: C_16  and  C_17 
REMARK    9  A    between atoms: N_18  and  N_19 
REMARK       I    between atoms: N_19  and  C_20 
REMARK   10  A    between atoms: C_20  and  C_22 
REMARK   11  A    between atoms: C_22  and  O_23 
REMARK   12  A    between atoms: O_23  and  C_24 
REMARK   13  A    between atoms: C_35  and  O_36 
ROOT
ATOM      1  C   UNL d   1      26.903 -15.632  -2.143  0.00  0.00     0.112 A 
ATOM      2  C   UNL d   1      28.294 -15.766  -2.340  0.00  0.00     0.041 A 
ATOM      3  C   UNL d   1      28.900 -15.402  -3.568  0.00  0.00     0.016 A 
ATOM      4  C   UNL d   1      28.120 -14.929  -4.630  0.00  0.00    -0.014 A 
ATOM      5  C   UNL d   1      26.745 -14.753  -4.403  0.00  0.00     0.052 A 
ATOM      6  C   UNL d   1      26.122 -15.076  -3.166  0.00  0.00     0.102 A 
ENDROOT
BRANCH   4   7
ATOM      7  C   UNL d   1      28.735 -14.683  -5.994  0.00  0.00     0.150 C 
ATOM      8  N   UNL d   1      29.949 -15.048  -6.286  0.00  0.00    -0.184 NA
BRANCH   8   9
ATOM      9  N   UNL d   1      30.489 -14.750  -7.540  0.00  0.00    -0.246 N 
ATOM     10  C   UNL d   1      31.830 -14.311  -7.608  0.00  0.00     0.261 C 
ATOM     11  O   UNL d   1      32.536 -14.196  -6.603  0.00  0.00    -0.269 OA
ATOM     12  H   UNL d   1      29.905 -14.827  -8.363  0.00  0.00     0.192 HD
BRANCH  10  13
ATOM     13  C   UNL d   1      32.389 -13.974  -9.043  0.00  0.00     0.280 C 
BRANCH  13  14
ATOM     14  O   UNL d   1      31.803 -12.773  -9.569  0.00  0.00    -0.342 OA
BRANCH  14  15
ATOM     15  C   UNL d   1      30.580 -12.297  -9.160  0.00  0.00     0.070 C 
ATOM     16  C   UNL d   1      29.658 -12.200 -10.206  0.00  0.00     0.037 C 
ATOM     17  C   UNL d   1      28.393 -11.662  -9.992  0.00  0.00     0.014 C 
ATOM     18  C   UNL d   1      27.994 -11.253  -8.718  0.00  0.00    -0.029 C 
ATOM     19  C   UNL d   1      26.648 -10.954  -8.506  0.00  0.00    -0.005 C 
ATOM     20  C   UNL d   1      28.906 -11.167  -7.648  0.00  0.00    -0.024 C 
ATOM     21  C   UNL d   1      26.185 -10.762  -7.222  0.00  0.00     0.043 C 
ATOM     22  C   UNL d   1      27.045 -10.026  -6.458  0.00  0.00    -0.016 C 
ATOM     23  C   UNL d   1      28.388 -10.436  -6.498  0.00  0.00     0.009 C 
ATOM     24  C   UNL d   1      30.224 -11.752  -7.901  0.00  0.00     0.049 C 
ENDBRANCH  14  15
ENDBRANCH  13  14
ENDBRANCH  10  13
ENDBRANCH   8   9
ENDBRANCH   4   7
BRANCH   6  25
ATOM     25  O   UNL d   1      24.780 -14.809  -3.188  0.00  0.00    -0.353 OA
ATOM     26  C   UNL d   1      24.260 -13.700  -3.897  0.00  0.00     0.210 C 
ENDBRANCH   6  25
BRANCH   1  27
ATOM     27  O   UNL d   1      26.408 -15.970  -0.852  0.00  0.00    -0.272 OA
BRANCH  27  28
ATOM     28  C   UNL d   1      26.149 -17.317  -0.549  0.00  0.00     0.298 C 
ATOM     29  O   UNL d   1      26.965 -18.199  -0.469  0.00  0.00    -0.259 OA
BRANCH  28  30
ATOM     30  C   UNL d   1      24.654 -17.576  -0.549  0.00  0.00     0.040 A 
ATOM     31  C   UNL d   1      23.776 -16.477  -0.598  0.00  0.00     0.020 A 
ATOM     32  C   UNL d   1      22.383 -16.667  -0.634  0.00  0.00     0.038 A 
ATOM     33  C   UNL d   1      21.844 -17.953  -0.650  0.00  0.00     0.068 A 
ATOM     34  C   UNL d   1      22.709 -19.044  -0.527  0.00  0.00     0.038 A 
ATOM     35  C   UNL d   1      24.103 -18.856  -0.450  0.00  0.00     0.020 A 
BRANCH  33  36
ATOM     36  O   UNL d   1      20.498 -18.028  -0.895  0.00  0.00    -0.351 OA
BRANCH  36  37
ATOM     37  C   UNL d   1      19.930 -19.331  -1.037  0.00  0.00     0.175 C 
BRANCH  37  38
ATOM     38  C   UNL d   1      19.362 -19.788   0.312  0.00  0.00     0.026 C 
BRANCH  38  39
ATOM     39  C   UNL d   1      18.225 -20.793   0.122  0.00  0.00    -0.002 C 
ATOM     40  C   UNL d   1      18.027 -21.662   1.354  0.00  0.00     0.005 C 
ENDBRANCH  38  39
ENDBRANCH  37  38
ENDBRANCH  36  37
ENDBRANCH  33  36
ENDBRANCH  28  30
ENDBRANCH  27  28
ENDBRANCH   1  27
TORSDOF 13
ENDMDL
MODEL 8
REMARK VINA RESULT:    -9.843      6.159     11.122
REMARK INTER + INTRA:         -15.795
REMARK INTER:                 -13.721
REMARK INTRA:                  -2.074
REMARK CONF_INDEPENDENT:        3.878
REMARK UNBOUND:                -2.074
REMARK  13 active torsions:
REMARK  status: ('A' for Active; 'I' for Inactive)
REMARK    1  A    between atoms: C_2  and  C_3 
REMARK    2  A    between atoms: C_3  and  C_4 
REMARK    3  A    between atoms: C_4  and  O_5 
REMARK    4  A    between atoms: O_5  and  C_6 
REMARK    5  A    between atoms: C_9  and  C_10 
REMARK    6  A    between atoms: C_10  and  O_12 
REMARK    7  A    between atoms: O_12  and  C_13 
REMARK    8  A    between atoms: C_16  and  C_17 
REMARK    9  A    between atoms: N_18  and  N_19 
REMARK       I    between atoms: N_19  and  C_20 
REMARK   10  A    between atoms: C_20  and  C_22 
REMARK   11  A    between atoms: C_22  and  O_23 
REMARK   12  A    between atoms: O_23  and  C_24 
REMARK   13  A    between atoms: C_35  and  O_36 
ROOT
ATOM      1  C   UNL d   1      27.042 -14.877   0.125  0.00  0.00     0.112 A 
ATOM      2  C   UNL d   1      27.529 -15.455   1.317  0.00  0.00     0.041 A 
ATOM      3  C   UNL d   1      27.822 -14.659   2.452  0.00  0.00     0.016 A 
ATOM      4  C   UNL d   1      27.665 -13.268   2.401  0.00  0.00    -0.014 A 
ATOM      5  C   UNL d   1      27.132 -12.713   1.226  0.00  0.00     0.052 A 
ATOM      6  C   UNL d   1      26.796 -13.498   0.088  0.00  0.00     0.102 A 
ENDROOT
BRANCH   4   7
ATOM      7  C   UNL d   1      28.120 -12.394   3.553  0.00  0.00     0.150 C 
ATOM      8  N   UNL d   1      27.451 -11.346   3.938  0.00  0.00    -0.184 NA
BRANCH   8   9
ATOM      9  N   UNL d   1      27.940 -10.541   4.969  0.00  0.00    -0.246 N 
ATOM     10  C   UNL d   1      29.257 -10.040   4.868  0.00  0.00     0.261 C 
ATOM     11  O   UNL d   1      29.978 -10.281   3.896  0.00  0.00    -0.269 OA
ATOM     12  H   UNL d   1      27.355 -10.357   5.775  0.00  0.00     0.192 HD
BRANCH  10  13
ATOM     13  C   UNL d   1      29.766  -9.148   6.063  0.00  0.00     0.280 C 
BRANCH  13  14
ATOM     14  O   UNL d   1      29.120  -9.500   7.296  0.00  0.00    -0.342 OA
BRANCH  14  15
ATOM     15  C   UNL d   1      29.397 -10.659   7.982  0.00  0.00     0.070 C 
ATOM     16  C   UNL d   1      30.635 -11.209   7.641  0.00  0.00     0.037 C 
ATOM     17  C   UNL d   1      31.045 -12.426   8.177  0.00  0.00     0.014 C 
ATOM     18  C   UNL d   1      30.255 -13.101   9.109  0.00  0.00    -0.029 C 
ATOM     19  C   UNL d   1      30.812 -14.179   9.798  0.00  0.00    -0.005 C 
ATOM     20  C   UNL d   1      28.932 -12.702   9.387  0.00  0.00    -0.024 C 
ATOM     21  C   UNL d   1      30.141 -14.725  10.871  0.00  0.00     0.043 C 
ATOM     22  C   UNL d   1      28.799 -14.842  10.647  0.00  0.00    -0.016 C 
ATOM     23  C   UNL d   1      28.171 -13.693  10.137  0.00  0.00     0.009 C 
ATOM     24  C   UNL d   1      28.536 -11.414   8.818  0.00  0.00     0.049 C 
ENDBRANCH  14  15
ENDBRANCH  13  14
ENDBRANCH  10  13
ENDBRANCH   8   9
ENDBRANCH   4   7
BRANCH   6  25
ATOM     25  O   UNL d   1      26.289 -12.732  -0.926  0.00  0.00    -0.353 OA
ATOM     26  C   UNL d   1      27.136 -12.089  -1.861  0.00  0.00     0.210 C 
ENDBRANCH   6  25
BRANCH   1  27
ATOM     27  O   UNL d   1      26.723 -15.776  -0.933  0.00  0.00    -0.272 OA
BRANCH  27  28
ATOM     28  C   UNL d   1      26.481 -17.127  -0.635  0.00  0.00     0.298 C 
ATOM     29  O   UNL d   1      27.304 -18.004  -0.578  0.00  0.00    -0.259 OA
BRANCH  28  30
ATOM     30  C   UNL d   1      24.988 -17.397  -0.607  0.00  0.00     0.040 A 
ATOM     31  C   UNL d   1      24.100 -16.312  -0.732  0.00  0.00     0.020 A 
ATOM     32  C   UNL d   1      22.709 -16.515  -0.746  0.00  0.00     0.038 A 
ATOM     33  C   UNL d   1      22.180 -17.803  -0.663  0.00  0.00     0.068 A 
ATOM     34  C   UNL d   1      23.055 -18.874  -0.465  0.00  0.00     0.038 A 
ATOM     35  C   UNL d   1      24.448 -18.670  -0.410  0.00  0.00     0.020 A 
BRANCH  33  36
ATOM     36  O   UNL d   1      20.833 -17.906  -0.894  0.00  0.00    -0.351 OA
BRANCH  36  37
ATOM     37  C   UNL d   1      20.261 -19.215  -0.855  0.00  0.00     0.175 C 
BRANCH  37  38
ATOM     38  C   UNL d   1      20.221 -19.708   0.597  0.00  0.00     0.026 C 
BRANCH  38  39
ATOM     39  C   UNL d   1      18.783 -19.943   1.061  0.00  0.00    -0.002 C 
ATOM     40  C   UNL d   1      18.387 -21.407   0.955  0.00  0.00     0.005 C 
ENDBRANCH  38  39
ENDBRANCH  37  38
ENDBRANCH  36  37
ENDBRANCH  33  36
ENDBRANCH  28  30
ENDBRANCH  27  28
ENDBRANCH   1  27
TORSDOF 13
ENDMDL
MODEL 9
REMARK VINA RESULT:    -9.537      7.289     11.398
REMARK INTER + INTRA:         -15.536
REMARK INTER:                 -13.415
REMARK INTRA:                  -2.120
REMARK CONF_INDEPENDENT:        3.878
REMARK UNBOUND:                -2.120
REMARK  13 active torsions:
REMARK  status: ('A' for Active; 'I' for Inactive)
REMARK    1  A    between atoms: C_2  and  C_3 
REMARK    2  A    between atoms: C_3  and  C_4 
REMARK    3  A    between atoms: C_4  and  O_5 
REMARK    4  A    between atoms: O_5  and  C_6 
REMARK    5  A    between atoms: C_9  and  C_10 
REMARK    6  A    between atoms: C_10  and  O_12 
REMARK    7  A    between atoms: O_12  and  C_13 
REMARK    8  A    between atoms: C_16  and  C_17 
REMARK    9  A    between atoms: N_18  and  N_19 
REMARK       I    between atoms: N_19  and  C_20 
REMARK   10  A    between atoms: C_20  and  C_22 
REMARK   11  A    between atoms: C_22  and  O_23 
REMARK   12  A    between atoms: O_23  and  C_24 
REMARK   13  A    between atoms: C_35  and  O_36 
ROOT
ATOM      1  C   UNL d   1      28.019 -16.321   0.091  0.00  0.00     0.112 A 
ATOM      2  C   UNL d   1      27.286 -15.522   0.994  0.00  0.00     0.041 A 
ATOM      3  C   UNL d   1      27.927 -14.544   1.795  0.00  0.00     0.016 A 
ATOM      4  C   UNL d   1      29.315 -14.373   1.729  0.00  0.00    -0.014 A 
ATOM      5  C   UNL d   1      30.024 -15.140   0.790  0.00  0.00     0.052 A 
ATOM      6  C   UNL d   1      29.396 -16.101  -0.050  0.00  0.00     0.102 A 
ENDROOT
BRANCH   4   7
ATOM      7  C   UNL d   1      30.027 -13.440   2.688  0.00  0.00     0.150 C 
ATOM      8  N   UNL d   1      30.083 -13.668   3.968  0.00  0.00    -0.184 NA
BRANCH   8   9
ATOM      9  N   UNL d   1      30.705 -12.750   4.818  0.00  0.00    -0.246 N 
ATOM     10  C   UNL d   1      30.138 -11.462   4.950  0.00  0.00     0.261 C 
ATOM     11  O   UNL d   1      29.112 -11.132   4.351  0.00  0.00    -0.269 OA
ATOM     12  H   UNL d   1      31.557 -13.015   5.297  0.00  0.00     0.192 HD
BRANCH  10  13
ATOM     13  C   UNL d   1      30.884 -10.459   5.910  0.00  0.00     0.280 C 
BRANCH  13  14
ATOM     14  O   UNL d   1      31.539 -11.148   6.987  0.00  0.00    -0.342 OA
BRANCH  14  15
ATOM     15  C   UNL d   1      30.866 -11.940   7.886  0.00  0.00     0.070 C 
ATOM     16  C   UNL d   1      31.243 -13.284   7.814  0.00  0.00     0.037 C 
ATOM     17  C   UNL d   1      30.608 -14.244   8.596  0.00  0.00     0.014 C 
ATOM     18  C   UNL d   1      29.617 -13.884   9.509  0.00  0.00    -0.029 C 
ATOM     19  C   UNL d   1      29.189 -14.834  10.437  0.00  0.00    -0.005 C 
ATOM     20  C   UNL d   1      29.068 -12.586   9.534  0.00  0.00    -0.024 C 
ATOM     21  C   UNL d   1      28.378 -14.450  11.484  0.00  0.00     0.043 C 
ATOM     22  C   UNL d   1      27.406 -13.570  11.101  0.00  0.00    -0.016 C 
ATOM     23  C   UNL d   1      27.849 -12.484  10.326  0.00  0.00     0.009 C 
ATOM     24  C   UNL d   1      29.765 -11.597   8.710  0.00  0.00     0.049 C 
ENDBRANCH  14  15
ENDBRANCH  13  14
ENDBRANCH  10  13
ENDBRANCH   8   9
ENDBRANCH   4   7
BRANCH   6  25
ATOM     25  O   UNL d   1      30.294 -16.712  -0.883  0.00  0.00    -0.353 OA
ATOM     26  C   UNL d   1      30.850 -17.975  -0.569  0.00  0.00     0.210 C 
ENDBRANCH   6  25
BRANCH   1  27
ATOM     27  O   UNL d   1      27.268 -17.230  -0.708  0.00  0.00    -0.272 OA
BRANCH  27  28
ATOM     28  C   UNL d   1      26.290 -16.727  -1.582  0.00  0.00     0.298 C 
ATOM     29  O   UNL d   1      26.461 -15.909  -2.449  0.00  0.00    -0.259 OA
BRANCH  28  30
ATOM     30  C   UNL d   1      24.911 -17.189  -1.147  0.00  0.00     0.040 A 
ATOM     31  C   UNL d   1      23.831 -16.292  -1.253  0.00  0.00     0.020 A 
ATOM     32  C   UNL d   1      22.529 -16.684  -0.895  0.00  0.00     0.038 A 
ATOM     33  C   UNL d   1      22.278 -17.983  -0.451  0.00  0.00     0.068 A 
ATOM     34  C   UNL d   1      23.357 -18.852  -0.275  0.00  0.00     0.038 A 
ATOM     35  C   UNL d   1      24.670 -18.449  -0.596  0.00  0.00     0.020 A 
BRANCH  33  36
ATOM     36  O   UNL d   1      20.955 -18.320  -0.329  0.00  0.00    -0.351 OA
BRANCH  36  37
ATOM     37  C   UNL d   1      20.600 -19.680  -0.590  0.00  0.00     0.175 C 
BRANCH  37  38
ATOM     38  C   UNL d   1      19.118 -19.889  -0.260  0.00  0.00     0.026 C 
BRANCH  38  39
ATOM     39  C   UNL d   1      18.945 -20.614   1.076  0.00  0.00    -0.002 C 
ATOM     40  C   UNL d   1      19.890 -20.075   2.138  0.00  0.00     0.005 C 
ENDBRANCH  38  39
ENDBRANCH  37  38
ENDBRANCH  36  37
ENDBRANCH  33  36
ENDBRANCH  28  30
ENDBRANCH  27  28
ENDBRANCH   1  27
TORSDOF 13
ENDMDL
