MODEL 1
REMARK VINA RESULT:    -6.800      0.000      0.000
REMARK INTER + INTRA:          -8.195
REMARK INTER:                  -7.695
REMARK INTRA:                  -0.500
REMARK CONF_INDEPENDENT:        0.895
REMARK UNBOUND:                -0.500
REMARK  3 active torsions:
REMARK  status: ('A' for Active; 'I' for Inactive)
REMARK    1  A    between atoms: N_6  and  C_7 
REMARK    2  A    between atoms: C_7  and  C_8 
REMARK       I    between atoms: C_8  and  N_10 
REMARK    3  A    between atoms: N_10  and  C_11 
ROOT
ATOM      1  C   UNL d   1      26.395 -15.356  -1.740  0.00  0.00     0.240 C 
ATOM      2  O   UNL d   1      26.461 -16.303  -2.532  0.00  0.00    -0.271 OA
ATOM      3  N   UNL d   1      25.468 -15.397  -0.710  0.00  0.00    -0.326 N 
ATOM      4  H   UNL d   1      25.158 -14.536  -0.274  0.00  0.00     0.169 HD
ENDROOT
BRANCH   3   5
ATOM      5  C   UNL d   1      24.602 -16.532  -0.579  0.00  0.00     0.037 A 
ATOM      6  C   UNL d   1      25.105 -17.817  -0.257  0.00  0.00     0.032 A 
ATOM      7  C   UNL d   1      24.261 -18.935  -0.147  0.00  0.00     0.042 A 
ATOM      8  C   UNL d   1      22.915 -18.752  -0.385  0.00  0.00     0.111 A 
ATOM      9  C   UNL d   1      22.423 -17.508  -0.711  0.00  0.00     0.113 A 
ATOM     10  O   UNL d   1      21.939 -19.700  -0.341  0.00  0.00    -0.256 OA
ATOM     11  C   UNL d   1      23.231 -16.383  -0.796  0.00  0.00     0.069 A 
ATOM     12  O   UNL d   1      21.081 -17.523  -0.940  0.00  0.00    -0.256 OA
ATOM     13  C   UNL d   1      20.793 -18.910  -0.705  0.00  0.00     0.498 A 
ATOM     14  F   UNL d   1      19.866 -18.991   0.280  0.00  0.00    -0.147 F 
ATOM     15  F   UNL d   1      20.239 -19.430  -1.830  0.00  0.00    -0.147 F 
ENDBRANCH   3   5
BRANCH   1  16
ATOM     16  C   UNL d   1      27.296 -14.092  -1.918  0.00  0.00     0.232 C 
BRANCH  16  17
ATOM     17  N   UNL d   1      26.652 -12.962  -2.709  0.00  0.00    -0.337 N 
ATOM     18  C   UNL d   1      26.732 -11.591  -2.421  0.00  0.00     0.110 A 
ATOM     19  C   UNL d   1      26.029 -10.917  -3.366  0.00  0.00     0.106 A 
ATOM     20  N   UNL d   1      25.533 -11.868  -4.207  0.00  0.00    -0.355 N 
ATOM     21  C   UNL d   1      25.897 -13.104  -3.828  0.00  0.00     0.079 A 
ATOM     22  H   UNL d   1      24.958 -11.663  -5.020  0.00  0.00     0.166 HD
ATOM     23  C   UNL d   1      25.504 -14.347  -4.550  0.00  0.00     0.089 C 
ENDBRANCH  16  17
ENDBRANCH   1  16
TORSDOF 3
ENDMDL
MODEL 2
REMARK VINA RESULT:    -6.716      4.170      7.853
REMARK INTER + INTRA:          -8.035
REMARK INTER:                  -7.611
REMARK INTRA:                  -0.424
REMARK CONF_INDEPENDENT:        0.895
REMARK UNBOUND:                -0.424
REMARK  3 active torsions:
REMARK  status: ('A' for Active; 'I' for Inactive)
REMARK    1  A    between atoms: N_6  and  C_7 
REMARK    2  A    between atoms: C_7  and  C_8 
REMARK       I    between atoms: C_8  and  N_10 
REMARK    3  A    between atoms: N_10  and  C_11 
ROOT
ATOM      1  C   UNL d   1      21.481 -18.580  -0.889  0.00  0.00     0.240 C 
ATOM      2  O   UNL d   1      21.375 -17.403  -1.254  0.00  0.00    -0.271 OA
ATOM      3  N   UNL d   1      22.738 -19.092  -0.608  0.00  0.00    -0.326 N 
ATOM      4  H   UNL d   1      22.896 -20.093  -0.644  0.00  0.00     0.169 HD
ENDROOT
BRANCH   3   5
ATOM      5  C   UNL d   1      23.893 -18.254  -0.745  0.00  0.00     0.037 A 
ATOM      6  C   UNL d   1      24.895 -18.202   0.255  0.00  0.00     0.032 A 
ATOM      7  C   UNL d   1      26.020 -17.367   0.132  0.00  0.00     0.042 A 
ATOM      8  C   UNL d   1      26.112 -16.573  -0.991  0.00  0.00     0.111 A 
ATOM      9  C   UNL d   1      25.134 -16.610  -1.960  0.00  0.00     0.113 A 
ATOM     10  O   UNL d   1      27.107 -15.694  -1.292  0.00  0.00    -0.256 OA
ATOM     11  C   UNL d   1      24.030 -17.448  -1.877  0.00  0.00     0.069 A 
ATOM     12  O   UNL d   1      25.377 -15.740  -2.978  0.00  0.00    -0.256 OA
ATOM     13  C   UNL d   1      26.621 -15.170  -2.542  0.00  0.00     0.498 A 
ATOM     14  F   UNL d   1      27.549 -15.385  -3.506  0.00  0.00    -0.147 F 
ATOM     15  F   UNL d   1      26.460 -13.828  -2.423  0.00  0.00    -0.147 F 
ENDBRANCH   3   5
BRANCH   1  16
ATOM     16  C   UNL d   1      20.230 -19.512  -0.798  0.00  0.00     0.232 C 
BRANCH  16  17
ATOM     17  N   UNL d   1      19.824 -19.890   0.618  0.00  0.00    -0.337 N 
ATOM     18  C   UNL d   1      20.509 -19.560   1.799  0.00  0.00     0.110 A 
ATOM     19  C   UNL d   1      19.820 -20.078   2.847  0.00  0.00     0.106 A 
ATOM     20  N   UNL d   1      18.741 -20.710   2.306  0.00  0.00    -0.355 N 
ATOM     21  C   UNL d   1      18.726 -20.608   0.967  0.00  0.00     0.079 A 
ATOM     22  H   UNL d   1      18.036 -21.198   2.853  0.00  0.00     0.166 HD
ATOM     23  C   UNL d   1      17.671 -21.201   0.098  0.00  0.00     0.089 C 
ENDBRANCH  16  17
ENDBRANCH   1  16
TORSDOF 3
ENDMDL
MODEL 3
REMARK VINA RESULT:    -6.632      4.531      8.077
REMARK INTER + INTRA:          -7.945
REMARK INTER:                  -7.527
REMARK INTRA:                  -0.419
REMARK CONF_INDEPENDENT:        0.895
REMARK UNBOUND:                -0.419
REMARK  3 active torsions:
REMARK  status: ('A' for Active; 'I' for Inactive)
REMARK    1  A    between atoms: N_6  and  C_7 
REMARK    2  A    between atoms: C_7  and  C_8 
REMARK       I    between atoms: C_8  and  N_10 
REMARK    3  A    between atoms: N_10  and  C_11 
ROOT
ATOM      1  C   UNL d   1      21.379 -18.655  -0.815  0.00  0.00     0.240 C 
ATOM      2  O   UNL d   1      21.178 -17.437  -0.897  0.00  0.00    -0.271 OA
ATOM      3  N   UNL d   1      22.680 -19.122  -0.715  0.00  0.00    -0.326 N 
ATOM      4  H   UNL d   1      22.898 -20.075  -0.984  0.00  0.00     0.169 HD
ENDROOT
BRANCH   3   5
ATOM      5  C   UNL d   1      23.771 -18.191  -0.709  0.00  0.00     0.037 A 
ATOM      6  C   UNL d   1      23.844 -17.129  -1.644  0.00  0.00     0.032 A 
ATOM      7  C   UNL d   1      24.922 -16.226  -1.653  0.00  0.00     0.042 A 
ATOM      8  C   UNL d   1      25.930 -16.418  -0.732  0.00  0.00     0.111 A 
ATOM      9  C   UNL d   1      25.869 -17.456   0.170  0.00  0.00     0.113 A 
ATOM     10  O   UNL d   1      27.057 -15.668  -0.584  0.00  0.00    -0.256 OA
ATOM     11  C   UNL d   1      24.802 -18.342   0.220  0.00  0.00     0.069 A 
ATOM     12  O   UNL d   1      26.963 -17.507   0.979  0.00  0.00    -0.256 OA
ATOM     13  C   UNL d   1      27.700 -16.376   0.491  0.00  0.00     0.498 A 
ATOM     14  F   UNL d   1      27.907 -15.524   1.524  0.00  0.00    -0.147 F 
ATOM     15  F   UNL d   1      28.916 -16.807   0.068  0.00  0.00    -0.147 F 
ENDBRANCH   3   5
BRANCH   1  16
ATOM     16  C   UNL d   1      20.196 -19.673  -0.883  0.00  0.00     0.232 C 
BRANCH  16  17
ATOM     17  N   UNL d   1      19.660 -20.112   0.472  0.00  0.00    -0.337 N 
ATOM     18  C   UNL d   1      20.281 -19.921   1.716  0.00  0.00     0.110 A 
ATOM     19  C   UNL d   1      19.480 -20.450   2.675  0.00  0.00     0.106 A 
ATOM     20  N   UNL d   1      18.396 -20.951   2.018  0.00  0.00    -0.355 N 
ATOM     21  C   UNL d   1      18.487 -20.758   0.692  0.00  0.00     0.079 A 
ATOM     22  H   UNL d   1      17.618 -21.415   2.480  0.00  0.00     0.166 HD
ATOM     23  C   UNL d   1      17.454 -21.200  -0.287  0.00  0.00     0.089 C 
ENDBRANCH  16  17
ENDBRANCH   1  16
TORSDOF 3
ENDMDL
MODEL 4
REMARK VINA RESULT:    -6.518      2.567      3.113
REMARK INTER + INTRA:          -7.888
REMARK INTER:                  -7.412
REMARK INTRA:                  -0.475
REMARK CONF_INDEPENDENT:        0.895
REMARK UNBOUND:                -0.475
REMARK  3 active torsions:
REMARK  status: ('A' for Active; 'I' for Inactive)
REMARK    1  A    between atoms: N_6  and  C_7 
REMARK    2  A    between atoms: C_7  and  C_8 
REMARK       I    between atoms: C_8  and  N_10 
REMARK    3  A    between atoms: N_10  and  C_11 
ROOT
ATOM      1  C   UNL d   1      26.225 -14.756  -3.915  0.00  0.00     0.240 C 
ATOM      2  O   UNL d   1      25.529 -15.610  -4.476  0.00  0.00    -0.271 OA
ATOM      3  N   UNL d   1      26.411 -14.826  -2.543  0.00  0.00    -0.326 N 
ATOM      4  H   UNL d   1      26.669 -13.994  -2.024  0.00  0.00     0.169 HD
ENDROOT
BRANCH   3   5
ATOM      5  C   UNL d   1      25.794 -15.883  -1.796  0.00  0.00     0.037 A 
ATOM      6  C   UNL d   1      26.565 -16.867  -1.128  0.00  0.00     0.032 A 
ATOM      7  C   UNL d   1      25.962 -17.916  -0.411  0.00  0.00     0.042 A 
ATOM      8  C   UNL d   1      24.585 -17.976  -0.394  0.00  0.00     0.111 A 
ATOM      9  C   UNL d   1      23.833 -17.030  -1.052  0.00  0.00     0.113 A 
ATOM     10  O   UNL d   1      23.815 -18.910   0.228  0.00  0.00    -0.256 OA
ATOM     11  C   UNL d   1      24.401 -15.968  -1.741  0.00  0.00     0.069 A 
ATOM     12  O   UNL d   1      22.495 -17.266  -0.951  0.00  0.00    -0.256 OA
ATOM     13  C   UNL d   1      22.501 -18.453  -0.143  0.00  0.00     0.498 A 
ATOM     14  F   UNL d   1      21.781 -18.210   0.978  0.00  0.00    -0.147 F 
ATOM     15  F   UNL d   1      21.870 -19.440  -0.828  0.00  0.00    -0.147 F 
ENDBRANCH   3   5
BRANCH   1  16
ATOM     16  C   UNL d   1      26.847 -13.568  -4.718  0.00  0.00     0.232 C 
BRANCH  16  17
ATOM     17  N   UNL d   1      27.869 -13.981  -5.767  0.00  0.00    -0.337 N 
ATOM     18  C   UNL d   1      28.628 -15.162  -5.773  0.00  0.00     0.110 A 
ATOM     19  C   UNL d   1      29.415 -15.154  -6.879  0.00  0.00     0.106 A 
ATOM     20  N   UNL d   1      29.135 -13.987  -7.525  0.00  0.00    -0.355 N 
ATOM     21  C   UNL d   1      28.209 -13.268  -6.872  0.00  0.00     0.079 A 
ATOM     22  H   UNL d   1      29.577 -13.700  -8.395  0.00  0.00     0.166 HD
ATOM     23  C   UNL d   1      27.701 -11.946  -7.334  0.00  0.00     0.089 C 
ENDBRANCH  16  17
ENDBRANCH   1  16
TORSDOF 3
ENDMDL
MODEL 5
REMARK VINA RESULT:    -6.449      1.960      2.794
REMARK INTER + INTRA:          -7.843
REMARK INTER:                  -7.343
REMARK INTRA:                  -0.499
REMARK CONF_INDEPENDENT:        0.895
REMARK UNBOUND:                -0.499
REMARK  3 active torsions:
REMARK  status: ('A' for Active; 'I' for Inactive)
REMARK    1  A    between atoms: N_6  and  C_7 
REMARK    2  A    between atoms: C_7  and  C_8 
REMARK       I    between atoms: C_8  and  N_10 
REMARK    3  A    between atoms: N_10  and  C_11 
ROOT
ATOM      1  C   UNL d   1      25.321 -15.630  -1.729  0.00  0.00     0.240 C 
ATOM      2  O   UNL d   1      24.947 -16.189  -2.767  0.00  0.00    -0.271 OA
ATOM      3  N   UNL d   1      24.820 -16.058  -0.510  0.00  0.00    -0.326 N 
ATOM      4  H   UNL d   1      24.830 -15.434   0.289  0.00  0.00     0.169 HD
ENDROOT
BRANCH   3   5
ATOM      5  C   UNL d   1      23.877 -17.138  -0.469  0.00  0.00     0.037 A 
ATOM      6  C   UNL d   1      24.278 -18.462  -0.167  0.00  0.00     0.032 A 
ATOM      7  C   UNL d   1      23.359 -19.526  -0.145  0.00  0.00     0.042 A 
ATOM      8  C   UNL d   1      22.044 -19.247  -0.452  0.00  0.00     0.111 A 
ATOM      9  C   UNL d   1      21.652 -17.964  -0.759  0.00  0.00     0.113 A 
ATOM     10  O   UNL d   1      21.009 -20.130  -0.498  0.00  0.00    -0.256 OA
ATOM     11  C   UNL d   1      22.533 -16.891  -0.758  0.00  0.00     0.069 A 
ATOM     12  O   UNL d   1      20.327 -17.883  -1.063  0.00  0.00    -0.256 OA
ATOM     13  C   UNL d   1      19.938 -19.255  -0.896  0.00  0.00     0.498 A 
ATOM     14  F   UNL d   1      18.952 -19.308   0.032  0.00  0.00    -0.147 F 
ATOM     15  F   UNL d   1      19.419 -19.700  -2.068  0.00  0.00    -0.147 F 
ENDBRANCH   3   5
BRANCH   1  16
ATOM     16  C   UNL d   1      26.302 -14.414  -1.776  0.00  0.00     0.232 C 
BRANCH  16  17
ATOM     17  N   UNL d   1      27.339 -14.393  -0.663  0.00  0.00    -0.337 N 
ATOM     18  C   UNL d   1      27.887 -13.253  -0.054  0.00  0.00     0.110 A 
ATOM     19  C   UNL d   1      28.769 -13.661   0.893  0.00  0.00     0.106 A 
ATOM     20  N   UNL d   1      28.752 -15.024   0.853  0.00  0.00    -0.355 N 
ATOM     21  C   UNL d   1      27.899 -15.482  -0.077  0.00  0.00     0.079 A 
ATOM     22  H   UNL d   1      29.320 -15.616   1.455  0.00  0.00     0.166 HD
ATOM     23  C   UNL d   1      27.667 -16.927  -0.355  0.00  0.00     0.089 C 
ENDBRANCH  16  17
ENDBRANCH   1  16
TORSDOF 3
ENDMDL
MODEL 6
REMARK VINA RESULT:    -6.349      3.961      7.488
REMARK INTER + INTRA:          -7.718
REMARK INTER:                  -7.244
REMARK INTRA:                  -0.474
REMARK CONF_INDEPENDENT:        0.895
REMARK UNBOUND:                -0.474
REMARK  3 active torsions:
REMARK  status: ('A' for Active; 'I' for Inactive)
REMARK    1  A    between atoms: N_6  and  C_7 
REMARK    2  A    between atoms: C_7  and  C_8 
REMARK       I    between atoms: C_8  and  N_10 
REMARK    3  A    between atoms: N_10  and  C_11 
ROOT
ATOM      1  C   UNL d   1      23.352 -18.119  -0.352  0.00  0.00     0.240 C 
ATOM      2  O   UNL d   1      23.688 -18.875  -1.272  0.00  0.00    -0.271 OA
ATOM      3  N   UNL d   1      23.945 -16.871  -0.249  0.00  0.00    -0.326 N 
ATOM      4  H   UNL d   1      23.954 -16.387   0.642  0.00  0.00     0.169 HD
ENDROOT
BRANCH   3   5
ATOM      5  C   UNL d   1      24.937 -16.475  -1.206  0.00  0.00     0.037 A 
ATOM      6  C   UNL d   1      26.319 -16.670  -0.965  0.00  0.00     0.032 A 
ATOM      7  C   UNL d   1      27.295 -16.265  -1.892  0.00  0.00     0.042 A 
ATOM      8  C   UNL d   1      26.868 -15.644  -3.047  0.00  0.00     0.111 A 
ATOM      9  C   UNL d   1      25.526 -15.441  -3.279  0.00  0.00     0.113 A 
ATOM     10  O   UNL d   1      27.647 -15.171  -4.058  0.00  0.00    -0.256 OA
ATOM     11  C   UNL d   1      24.542 -15.858  -2.395  0.00  0.00     0.069 A 
ATOM     12  O   UNL d   1      25.294 -14.789  -4.452  0.00  0.00    -0.256 OA
ATOM     13  C   UNL d   1      26.639 -14.625  -4.929  0.00  0.00     0.498 A 
ATOM     14  F   UNL d   1      26.734 -15.215  -6.145  0.00  0.00    -0.147 F 
ATOM     15  F   UNL d   1      26.875 -13.299  -5.098  0.00  0.00    -0.147 F 
ENDBRANCH   3   5
BRANCH   1  16
ATOM     16  C   UNL d   1      22.316 -18.574   0.727  0.00  0.00     0.232 C 
BRANCH  16  17
ATOM     17  N   UNL d   1      21.013 -19.120   0.162  0.00  0.00    -0.337 N 
ATOM     18  C   UNL d   1      20.601 -19.074  -1.179  0.00  0.00     0.110 A 
ATOM     19  C   UNL d   1      19.386 -19.672  -1.270  0.00  0.00     0.106 A 
ATOM     20  N   UNL d   1      19.073 -20.069  -0.004  0.00  0.00    -0.355 N 
ATOM     21  C   UNL d   1      20.038 -19.745   0.870  0.00  0.00     0.079 A 
ATOM     22  H   UNL d   1      18.211 -20.550   0.243  0.00  0.00     0.166 HD
ATOM     23  C   UNL d   1      19.978 -20.047   2.328  0.00  0.00     0.089 C 
ENDBRANCH  16  17
ENDBRANCH   1  16
TORSDOF 3
ENDMDL
MODEL 7
REMARK VINA RESULT:    -6.302      3.232      4.162
REMARK INTER + INTRA:          -7.612
REMARK INTER:                  -7.197
REMARK INTRA:                  -0.415
REMARK CONF_INDEPENDENT:        0.895
REMARK UNBOUND:                -0.415
REMARK  3 active torsions:
REMARK  status: ('A' for Active; 'I' for Inactive)
REMARK    1  A    between atoms: N_6  and  C_7 
REMARK    2  A    between atoms: C_7  and  C_8 
REMARK       I    between atoms: C_8  and  N_10 
REMARK    3  A    between atoms: N_10  and  C_11 
ROOT
ATOM      1  C   UNL d   1      27.015 -17.235  -0.637  0.00  0.00     0.240 C 
ATOM      2  O   UNL d   1      26.676 -16.744  -1.721  0.00  0.00    -0.271 OA
ATOM      3  N   UNL d   1      26.042 -17.733   0.215  0.00  0.00    -0.326 N 
ATOM      4  H   UNL d   1      26.234 -17.819   1.207  0.00  0.00     0.169 HD
ENDROOT
BRANCH   3   5
ATOM      5  C   UNL d   1      24.661 -17.670  -0.168  0.00  0.00     0.037 A 
ATOM      6  C   UNL d   1      24.049 -16.447  -0.537  0.00  0.00     0.032 A 
ATOM      7  C   UNL d   1      22.691 -16.378  -0.895  0.00  0.00     0.042 A 
ATOM      8  C   UNL d   1      21.956 -17.544  -0.855  0.00  0.00     0.111 A 
ATOM      9  C   UNL d   1      22.544 -18.733  -0.485  0.00  0.00     0.113 A 
ATOM     10  O   UNL d   1      20.635 -17.689  -1.151  0.00  0.00    -0.256 OA
ATOM     11  C   UNL d   1      23.888 -18.832  -0.157  0.00  0.00     0.069 A 
ATOM     12  O   UNL d   1      21.660 -19.769  -0.475  0.00  0.00    -0.256 OA
ATOM     13  C   UNL d   1      20.464 -19.095  -0.894  0.00  0.00     0.498 A 
ATOM     14  F   UNL d   1      20.006 -19.700  -2.017  0.00  0.00    -0.147 F 
ATOM     15  F   UNL d   1      19.521 -19.254   0.069  0.00  0.00    -0.147 F 
ENDBRANCH   3   5
BRANCH   1  16
ATOM     16  C   UNL d   1      28.512 -17.249  -0.191  0.00  0.00     0.232 C 
BRANCH  16  17
ATOM     17  N   UNL d   1      29.513 -17.121  -1.331  0.00  0.00    -0.337 N 
ATOM     18  C   UNL d   1      29.535 -16.118  -2.313  0.00  0.00     0.110 A 
ATOM     19  C   UNL d   1      30.584 -16.358  -3.140  0.00  0.00     0.106 A 
ATOM     20  N   UNL d   1      31.181 -17.487  -2.663  0.00  0.00    -0.355 N 
ATOM     21  C   UNL d   1      30.551 -17.960  -1.577  0.00  0.00     0.079 A 
ATOM     22  H   UNL d   1      32.002 -17.915  -3.084  0.00  0.00     0.166 HD
ATOM     23  C   UNL d   1      30.971 -19.183  -0.836  0.00  0.00     0.089 C 
ENDBRANCH  16  17
ENDBRANCH   1  16
TORSDOF 3
ENDMDL
MODEL 8
REMARK VINA RESULT:    -6.098      2.928      3.544
REMARK INTER + INTRA:          -7.530
REMARK INTER:                  -6.993
REMARK INTRA:                  -0.537
REMARK CONF_INDEPENDENT:        0.895
REMARK UNBOUND:                -0.537
REMARK  3 active torsions:
REMARK  status: ('A' for Active; 'I' for Inactive)
REMARK    1  A    between atoms: N_6  and  C_7 
REMARK    2  A    between atoms: C_7  and  C_8 
REMARK       I    between atoms: C_8  and  N_10 
REMARK    3  A    between atoms: N_10  and  C_11 
ROOT
ATOM      1  C   UNL d   1      27.036 -17.161  -0.719  0.00  0.00     0.240 C 
ATOM      2  O   UNL d   1      26.682 -16.724  -1.820  0.00  0.00    -0.271 OA
ATOM      3  N   UNL d   1      26.076 -17.622   0.168  0.00  0.00    -0.326 N 
ATOM      4  H   UNL d   1      26.281 -17.660   1.161  0.00  0.00     0.169 HD
ENDROOT
BRANCH   3   5
ATOM      5  C   UNL d   1      24.691 -17.583  -0.200  0.00  0.00     0.037 A 
ATOM      6  C   UNL d   1      24.051 -16.368  -0.552  0.00  0.00     0.032 A 
ATOM      7  C   UNL d   1      22.688 -16.324  -0.895  0.00  0.00     0.042 A 
ATOM      8  C   UNL d   1      21.976 -17.504  -0.858  0.00  0.00     0.111 A 
ATOM      9  C   UNL d   1      22.591 -18.684  -0.505  0.00  0.00     0.113 A 
ATOM     10  O   UNL d   1      20.655 -17.673  -1.142  0.00  0.00    -0.256 OA
ATOM     11  C   UNL d   1      23.941 -18.760  -0.191  0.00  0.00     0.069 A 
ATOM     12  O   UNL d   1      21.729 -19.738  -0.495  0.00  0.00    -0.256 OA
ATOM     13  C   UNL d   1      20.515 -19.084  -0.896  0.00  0.00     0.498 A 
ATOM     14  F   UNL d   1      20.057 -19.688  -2.020  0.00  0.00    -0.147 F 
ATOM     15  F   UNL d   1      19.585 -19.270   0.075  0.00  0.00    -0.147 F 
ENDBRANCH   3   5
BRANCH   1  16
ATOM     16  C   UNL d   1      28.539 -17.147  -0.292  0.00  0.00     0.232 C 
BRANCH  16  17
ATOM     17  N   UNL d   1      29.168 -15.763  -0.236  0.00  0.00    -0.337 N 
ATOM     18  C   UNL d   1      30.382 -15.374  -0.824  0.00  0.00     0.110 A 
ATOM     19  C   UNL d   1      30.585 -14.061  -0.548  0.00  0.00     0.106 A 
ATOM     20  N   UNL d   1      29.512 -13.668   0.194  0.00  0.00    -0.355 N 
ATOM     21  C   UNL d   1      28.650 -14.678   0.393  0.00  0.00     0.079 A 
ATOM     22  H   UNL d   1      29.385 -12.725   0.552  0.00  0.00     0.166 HD
ATOM     23  C   UNL d   1      27.385 -14.553   1.170  0.00  0.00     0.089 C 
ENDBRANCH  16  17
ENDBRANCH   1  16
TORSDOF 3
ENDMDL
