MODEL 1
REMARK VINA RESULT:   -31.487      0.000      0.000
REMARK INTER + INTRA:         -33.527
REMARK INTER:                 -32.978
REMARK INTRA:                  -0.549
REMARK CONF_INDEPENDENT:        1.492
REMARK UNBOUND:                -0.549
REMARK  5 active torsions:
REMARK  status: ('A' for Active; 'I' for Inactive)
REMARK    1  A    between atoms: C_7  and  C_8 
REMARK    2  A    between atoms: C_8  and  N_9 
REMARK       I    between atoms: N_9  and  C_10 
REMARK       I    between atoms: C_10  and  N_12 
REMARK    3  A    between atoms: N_12  and  C_13 
REMARK    4  A    between atoms: C_17  and  C_18 
REMARK       I    between atoms: C_18  and  N_20 
REMARK    5  A    between atoms: N_20  and  C_21 
ROOT
ATOM      1  N   UNL d   1      19.833 -19.317  -0.983  0.00  0.00    -0.191 NA
ATOM      2  C   UNL d   1      20.937 -19.010  -0.839  0.00  0.00     0.099 C 
ATOM      3  C   UNL d   1      22.301 -18.577  -0.727  0.00  0.00     0.045 A 
ATOM      4  C   UNL d   1      23.277 -19.381  -0.153  0.00  0.00     0.022 A 
ATOM      5  C   UNL d   1      24.605 -18.950  -0.145  0.00  0.00     0.002 A 
ATOM      6  C   UNL d   1      24.954 -17.714  -0.713  0.00  0.00     0.009 A 
ATOM      7  C   UNL d   1      23.970 -16.873  -1.270  0.00  0.00    -0.039 A 
ATOM      8  C   UNL d   1      22.647 -17.331  -1.251  0.00  0.00     0.031 A 
ENDROOT
BRANCH   7   9
ATOM      9  C   UNL d   1      24.340 -15.531  -1.879  0.00  0.00     0.162 C 
BRANCH   9  10
ATOM     10  N   UNL d   1      25.504 -15.549  -2.775  0.00  0.00    -0.339 N 
ATOM     11  C   UNL d   1      25.710 -14.553  -3.688  0.00  0.00     0.320 C 
ATOM     12  O   UNL d   1      24.938 -13.602  -3.763  0.00  0.00    -0.247 OA
ATOM     13  N   UNL d   1      26.828 -14.734  -4.496  0.00  0.00    -0.309 N 
ATOM     14  H   UNL d   1      27.333 -15.609  -4.494  0.00  0.00     0.170 HD
ATOM     15  H   UNL d   1      26.172 -16.294  -2.743  0.00  0.00     0.164 HD
BRANCH  13  16
ATOM     16  C   UNL d   1      27.219 -13.757  -5.450  0.00  0.00     0.037 A 
ATOM     17  C   UNL d   1      28.118 -14.041  -6.483  0.00  0.00     0.029 A 
ATOM     18  C   UNL d   1      28.524 -13.018  -7.354  0.00  0.00     0.003 A 
ATOM     19  C   UNL d   1      27.995 -11.729  -7.225  0.00  0.00     0.017 A 
ATOM     20  C   UNL d   1      27.105 -11.430  -6.186  0.00  0.00     0.034 A 
ATOM     21  C   UNL d   1      26.730 -12.454  -5.315  0.00  0.00     0.046 A 
BRANCH  20  22
ATOM     22  C   UNL d   1      26.624 -10.024  -6.016  0.00  0.00     0.256 C 
ATOM     23  O   UNL d   1      27.402  -9.113  -6.291  0.00  0.00    -0.267 OA
ATOM     24  N   UNL d   1      25.352  -9.825  -5.476  0.00  0.00    -0.323 N 
ATOM     25  H   UNL d   1      24.841 -10.599  -5.080  0.00  0.00     0.169 HD
BRANCH  24  26
ATOM     26  C   UNL d   1      24.814  -8.543  -5.240  0.00  0.00     0.036 A 
ATOM     27  C   UNL d   1      25.519  -7.606  -4.484  0.00  0.00     0.029 A 
ATOM     28  C   UNL d   1      24.984  -6.343  -4.242  0.00  0.00     0.004 A 
ATOM     29  C   UNL d   1      23.734  -6.008  -4.756  0.00  0.00     0.023 A 
ATOM     30  C   UNL d   1      23.035  -6.924  -5.549  0.00  0.00     0.046 A 
ATOM     31  C   UNL d   1      21.780  -6.537  -6.128  0.00  0.00     0.099 C 
ATOM     32  C   UNL d   1      23.579  -8.194  -5.798  0.00  0.00     0.052 A 
ATOM     33  N   UNL d   1      20.784  -6.199  -6.614  0.00  0.00    -0.191 NA
ENDBRANCH  24  26
ENDBRANCH  20  22
ENDBRANCH  13  16
ENDBRANCH   9  10
ENDBRANCH   7   9
TORSDOF 5
ENDMDL
MODEL 2
REMARK VINA RESULT:   -31.259      7.176     10.050
REMARK INTER + INTRA:         -33.406
REMARK INTER:                 -32.751
REMARK INTRA:                  -0.655
REMARK CONF_INDEPENDENT:        1.492
REMARK UNBOUND:                -0.655
REMARK  5 active torsions:
REMARK  status: ('A' for Active; 'I' for Inactive)
REMARK    1  A    between atoms: C_7  and  C_8 
REMARK    2  A    between atoms: C_8  and  N_9 
REMARK       I    between atoms: N_9  and  C_10 
REMARK       I    between atoms: C_10  and  N_12 
REMARK    3  A    between atoms: N_12  and  C_13 
REMARK    4  A    between atoms: C_17  and  C_18 
REMARK       I    between atoms: C_18  and  N_20 
REMARK    5  A    between atoms: N_20  and  C_21 
ROOT
ATOM      1  N   UNL d   1      19.905 -18.584  -0.896  0.00  0.00    -0.191 NA
ATOM      2  C   UNL d   1      21.043 -18.445  -0.757  0.00  0.00     0.099 C 
ATOM      3  C   UNL d   1      22.456 -18.216  -0.649  0.00  0.00     0.045 A 
ATOM      4  C   UNL d   1      23.317 -19.185  -0.150  0.00  0.00     0.022 A 
ATOM      5  C   UNL d   1      24.692 -18.945  -0.144  0.00  0.00     0.002 A 
ATOM      6  C   UNL d   1      25.205 -17.735  -0.639  0.00  0.00     0.009 A 
ATOM      7  C   UNL d   1      24.342 -16.730  -1.119  0.00  0.00    -0.039 A 
ATOM      8  C   UNL d   1      22.968 -16.999  -1.100  0.00  0.00     0.031 A 
ENDROOT
BRANCH   7   9
ATOM      9  C   UNL d   1      24.889 -15.415  -1.650  0.00  0.00     0.162 C 
BRANCH   9  10
ATOM     10  N   UNL d   1      26.354 -15.301  -1.651  0.00  0.00    -0.339 N 
ATOM     11  C   UNL d   1      27.050 -15.100  -0.492  0.00  0.00     0.320 C 
ATOM     12  O   UNL d   1      26.467 -15.037   0.586  0.00  0.00    -0.247 OA
ATOM     13  N   UNL d   1      28.424 -14.966  -0.661  0.00  0.00    -0.309 N 
ATOM     14  H   UNL d   1      28.827 -14.870  -1.583  0.00  0.00     0.170 HD
ATOM     15  H   UNL d   1      26.878 -15.361  -2.502  0.00  0.00     0.164 HD
BRANCH  13  16
ATOM     16  C   UNL d   1      29.297 -14.819   0.451  0.00  0.00     0.037 A 
ATOM     17  C   UNL d   1      30.622 -15.265   0.423  0.00  0.00     0.029 A 
ATOM     18  C   UNL d   1      31.417 -15.158   1.575  0.00  0.00     0.003 A 
ATOM     19  C   UNL d   1      30.906 -14.561   2.733  0.00  0.00     0.017 A 
ATOM     20  C   UNL d   1      29.576 -14.123   2.775  0.00  0.00     0.034 A 
ATOM     21  C   UNL d   1      28.794 -14.258   1.629  0.00  0.00     0.046 A 
BRANCH  20  22
ATOM     22  C   UNL d   1      29.029 -13.570   4.053  0.00  0.00     0.256 C 
ATOM     23  O   UNL d   1      27.986 -12.921   3.999  0.00  0.00    -0.267 OA
ATOM     24  N   UNL d   1      29.774 -13.750   5.220  0.00  0.00    -0.323 N 
ATOM     25  H   UNL d   1      30.716 -14.109   5.171  0.00  0.00     0.169 HD
BRANCH  24  26
ATOM     26  C   UNL d   1      29.369 -13.241   6.471  0.00  0.00     0.036 A 
ATOM     27  C   UNL d   1      28.920 -11.925   6.590  0.00  0.00     0.029 A 
ATOM     28  C   UNL d   1      28.530 -11.418   7.827  0.00  0.00     0.004 A 
ATOM     29  C   UNL d   1      28.588 -12.227   8.959  0.00  0.00     0.023 A 
ATOM     30  C   UNL d   1      28.999 -13.560   8.846  0.00  0.00     0.046 A 
ATOM     31  C   UNL d   1      28.986 -14.400  10.011  0.00  0.00     0.099 C 
ATOM     32  C   UNL d   1      29.385 -14.072   7.597  0.00  0.00     0.052 A 
ATOM     33  N   UNL d   1      28.940 -15.072  10.953  0.00  0.00    -0.191 NA
ENDBRANCH  24  26
ENDBRANCH  20  22
ENDBRANCH  13  16
ENDBRANCH   9  10
ENDBRANCH   7   9
TORSDOF 5
ENDMDL
MODEL 3
REMARK VINA RESULT:   -31.229      4.812      9.270
REMARK INTER + INTRA:         -33.454
REMARK INTER:                 -32.720
REMARK INTRA:                  -0.733
REMARK CONF_INDEPENDENT:        1.492
REMARK UNBOUND:                -0.733
REMARK  5 active torsions:
REMARK  status: ('A' for Active; 'I' for Inactive)
REMARK    1  A    between atoms: C_7  and  C_8 
REMARK    2  A    between atoms: C_8  and  N_9 
REMARK       I    between atoms: N_9  and  C_10 
REMARK       I    between atoms: C_10  and  N_12 
REMARK    3  A    between atoms: N_12  and  C_13 
REMARK    4  A    between atoms: C_17  and  C_18 
REMARK       I    between atoms: C_18  and  N_20 
REMARK    5  A    between atoms: N_20  and  C_21 
ROOT
ATOM      1  N   UNL d   1      19.841 -19.289  -1.034  0.00  0.00    -0.191 NA
ATOM      2  C   UNL d   1      20.941 -18.973  -0.877  0.00  0.00     0.099 C 
ATOM      3  C   UNL d   1      22.300 -18.528  -0.751  0.00  0.00     0.045 A 
ATOM      4  C   UNL d   1      23.277 -19.323  -0.167  0.00  0.00     0.022 A 
ATOM      5  C   UNL d   1      24.601 -18.881  -0.144  0.00  0.00     0.002 A 
ATOM      6  C   UNL d   1      24.945 -17.641  -0.707  0.00  0.00     0.009 A 
ATOM      7  C   UNL d   1      23.960 -16.808  -1.274  0.00  0.00    -0.039 A 
ATOM      8  C   UNL d   1      22.641 -17.279  -1.270  0.00  0.00     0.031 A 
ENDROOT
BRANCH   7   9
ATOM      9  C   UNL d   1      24.325 -15.463  -1.878  0.00  0.00     0.162 C 
BRANCH   9  10
ATOM     10  N   UNL d   1      25.760 -15.249  -2.111  0.00  0.00    -0.339 N 
ATOM     11  C   UNL d   1      26.268 -15.175  -3.378  0.00  0.00     0.320 C 
ATOM     12  O   UNL d   1      25.530 -15.259  -4.355  0.00  0.00    -0.247 OA
ATOM     13  N   UNL d   1      27.648 -15.017  -3.437  0.00  0.00    -0.309 N 
ATOM     14  H   UNL d   1      28.217 -15.112  -2.607  0.00  0.00     0.170 HD
ATOM     15  H   UNL d   1      26.402 -15.158  -1.349  0.00  0.00     0.164 HD
BRANCH  13  16
ATOM     16  C   UNL d   1      28.324 -14.857  -4.677  0.00  0.00     0.037 A 
ATOM     17  C   UNL d   1      28.161 -13.719  -5.474  0.00  0.00     0.029 A 
ATOM     18  C   UNL d   1      28.798 -13.646  -6.722  0.00  0.00     0.003 A 
ATOM     19  C   UNL d   1      29.636 -14.683  -7.149  0.00  0.00     0.017 A 
ATOM     20  C   UNL d   1      29.795 -15.832  -6.365  0.00  0.00     0.034 A 
ATOM     21  C   UNL d   1      29.136 -15.898  -5.138  0.00  0.00     0.046 A 
BRANCH  20  22
ATOM     22  C   UNL d   1      30.624 -16.964  -6.885  0.00  0.00     0.256 C 
ATOM     23  O   UNL d   1      31.544 -16.696  -7.655  0.00  0.00    -0.267 OA
ATOM     24  N   UNL d   1      30.255 -18.264  -6.535  0.00  0.00    -0.323 N 
ATOM     25  H   UNL d   1      29.376 -18.436  -6.071  0.00  0.00     0.169 HD
BRANCH  24  26
ATOM     26  C   UNL d   1      30.944 -19.404  -6.997  0.00  0.00     0.036 A 
ATOM     27  C   UNL d   1      31.167 -19.593  -8.362  0.00  0.00     0.029 A 
ATOM     28  C   UNL d   1      31.839 -20.724  -8.821  0.00  0.00     0.004 A 
ATOM     29  C   UNL d   1      32.292 -21.678  -7.914  0.00  0.00     0.023 A 
ATOM     30  C   UNL d   1      32.109 -21.481  -6.541  0.00  0.00     0.046 A 
ATOM     31  C   UNL d   1      32.643 -22.441  -5.616  0.00  0.00     0.099 C 
ATOM     32  C   UNL d   1      31.439 -20.337  -6.079  0.00  0.00     0.052 A 
ATOM     33  N   UNL d   1      33.107 -23.208  -4.883  0.00  0.00    -0.191 NA
ENDBRANCH  24  26
ENDBRANCH  20  22
ENDBRANCH  13  16
ENDBRANCH   9  10
ENDBRANCH   7   9
TORSDOF 5
ENDMDL
MODEL 4
REMARK VINA RESULT:   -30.362      3.757      9.299
REMARK INTER + INTRA:         -32.562
REMARK INTER:                 -31.854
REMARK INTRA:                  -0.708
REMARK CONF_INDEPENDENT:        1.492
REMARK UNBOUND:                -0.708
REMARK  5 active torsions:
REMARK  status: ('A' for Active; 'I' for Inactive)
REMARK    1  A    between atoms: C_7  and  C_8 
REMARK    2  A    between atoms: C_8  and  N_9 
REMARK       I    between atoms: N_9  and  C_10 
REMARK       I    between atoms: C_10  and  N_12 
REMARK    3  A    between atoms: N_12  and  C_13 
REMARK    4  A    between atoms: C_17  and  C_18 
REMARK       I    between atoms: C_18  and  N_20 
REMARK    5  A    between atoms: N_20  and  C_21 
ROOT
ATOM      1  N   UNL d   1      31.166  -9.796   0.942  0.00  0.00    -0.191 NA
ATOM      2  C   UNL d   1      30.049  -9.517   1.023  0.00  0.00     0.099 C 
ATOM      3  C   UNL d   1      28.671  -9.116   1.056  0.00  0.00     0.045 A 
ATOM      4  C   UNL d   1      27.926  -9.160   2.227  0.00  0.00     0.022 A 
ATOM      5  C   UNL d   1      26.615  -8.680   2.227  0.00  0.00     0.002 A 
ATOM      6  C   UNL d   1      26.051  -8.156   1.052  0.00  0.00     0.009 A 
ATOM      7  C   UNL d   1      26.782  -8.134  -0.152  0.00  0.00    -0.039 A 
ATOM      8  C   UNL d   1      28.091  -8.634  -0.118  0.00  0.00     0.031 A 
ENDROOT
BRANCH   7   9
ATOM      9  C   UNL d   1      26.176  -7.576  -1.428  0.00  0.00     0.162 C 
BRANCH   9  10
ATOM     10  N   UNL d   1      25.494  -8.559  -2.280  0.00  0.00    -0.339 N 
ATOM     11  C   UNL d   1      26.120  -9.707  -2.677  0.00  0.00     0.320 C 
ATOM     12  O   UNL d   1      27.263  -9.958  -2.307  0.00  0.00    -0.247 OA
ATOM     13  N   UNL d   1      25.364 -10.515  -3.519  0.00  0.00    -0.309 N 
ATOM     14  H   UNL d   1      24.495 -10.182  -3.914  0.00  0.00     0.170 HD
ATOM     15  H   UNL d   1      24.556  -8.410  -2.597  0.00  0.00     0.164 HD
BRANCH  13  16
ATOM     16  C   UNL d   1      25.844 -11.775  -3.967  0.00  0.00     0.037 A 
ATOM     17  C   UNL d   1      26.704 -11.898  -5.063  0.00  0.00     0.029 A 
ATOM     18  C   UNL d   1      27.090 -13.174  -5.505  0.00  0.00     0.003 A 
ATOM     19  C   UNL d   1      26.659 -14.318  -4.824  0.00  0.00     0.017 A 
ATOM     20  C   UNL d   1      25.787 -14.205  -3.734  0.00  0.00     0.034 A 
ATOM     21  C   UNL d   1      25.396 -12.931  -3.323  0.00  0.00     0.046 A 
BRANCH  20  22
ATOM     22  C   UNL d   1      25.270 -15.447  -3.079  0.00  0.00     0.256 C 
ATOM     23  O   UNL d   1      25.221 -16.474  -3.753  0.00  0.00    -0.267 OA
ATOM     24  N   UNL d   1      24.795 -15.351  -1.769  0.00  0.00    -0.323 N 
ATOM     25  H   UNL d   1      24.670 -14.447  -1.339  0.00  0.00     0.169 HD
BRANCH  24  26
ATOM     26  C   UNL d   1      24.255 -16.450  -1.071  0.00  0.00     0.036 A 
ATOM     27  C   UNL d   1      25.028 -17.152  -0.145  0.00  0.00     0.029 A 
ATOM     28  C   UNL d   1      24.498 -18.244   0.538  0.00  0.00     0.004 A 
ATOM     29  C   UNL d   1      23.186 -18.644   0.298  0.00  0.00     0.023 A 
ATOM     30  C   UNL d   1      22.389 -17.925  -0.598  0.00  0.00     0.046 A 
ATOM     31  C   UNL d   1      21.017 -18.308  -0.782  0.00  0.00     0.099 C 
ATOM     32  C   UNL d   1      22.921 -16.820  -1.280  0.00  0.00     0.052 A 
ATOM     33  N   UNL d   1      19.905 -18.611  -0.895  0.00  0.00    -0.191 NA
ENDBRANCH  24  26
ENDBRANCH  20  22
ENDBRANCH  13  16
ENDBRANCH   9  10
ENDBRANCH   7   9
TORSDOF 5
ENDMDL
MODEL 5
REMARK VINA RESULT:   -30.028      4.246      8.934
REMARK INTER + INTRA:         -32.293
REMARK INTER:                 -31.519
REMARK INTRA:                  -0.773
REMARK CONF_INDEPENDENT:        1.492
REMARK UNBOUND:                -0.773
REMARK  5 active torsions:
REMARK  status: ('A' for Active; 'I' for Inactive)
REMARK    1  A    between atoms: C_7  and  C_8 
REMARK    2  A    between atoms: C_8  and  N_9 
REMARK       I    between atoms: N_9  and  C_10 
REMARK       I    between atoms: C_10  and  N_12 
REMARK    3  A    between atoms: N_12  and  C_13 
REMARK    4  A    between atoms: C_17  and  C_18 
REMARK       I    between atoms: C_18  and  N_20 
REMARK    5  A    between atoms: N_20  and  C_21 
ROOT
ATOM      1  N   UNL d   1      31.370 -19.215  -2.116  0.00  0.00    -0.191 NA
ATOM      2  C   UNL d   1      31.294 -19.142  -3.266  0.00  0.00     0.099 C 
ATOM      3  C   UNL d   1      31.187 -18.968  -4.687  0.00  0.00     0.045 A 
ATOM      4  C   UNL d   1      30.756 -19.993  -5.518  0.00  0.00     0.022 A 
ATOM      5  C   UNL d   1      30.587 -19.747  -6.883  0.00  0.00     0.002 A 
ATOM      6  C   UNL d   1      30.851 -18.474  -7.413  0.00  0.00     0.009 A 
ATOM      7  C   UNL d   1      31.320 -17.432  -6.588  0.00  0.00    -0.039 A 
ATOM      8  C   UNL d   1      31.488 -17.716  -5.226  0.00  0.00     0.031 A 
ENDROOT
BRANCH   7   9
ATOM      9  C   UNL d   1      31.615 -16.054  -7.156  0.00  0.00     0.162 C 
BRANCH   9  10
ATOM     10  N   UNL d   1      31.152 -14.926  -6.336  0.00  0.00    -0.339 N 
ATOM     11  C   UNL d   1      29.889 -14.900  -5.815  0.00  0.00     0.320 C 
ATOM     12  O   UNL d   1      29.116 -15.835  -6.000  0.00  0.00    -0.247 OA
ATOM     13  N   UNL d   1      29.583 -13.746  -5.102  0.00  0.00    -0.309 N 
ATOM     14  H   UNL d   1      30.202 -12.947  -5.117  0.00  0.00     0.170 HD
ATOM     15  H   UNL d   1      31.749 -14.146  -6.143  0.00  0.00     0.164 HD
BRANCH  13  16
ATOM     16  C   UNL d   1      28.335 -13.591  -4.441  0.00  0.00     0.037 A 
ATOM     17  C   UNL d   1      27.605 -12.400  -4.495  0.00  0.00     0.029 A 
ATOM     18  C   UNL d   1      26.412 -12.280  -3.764  0.00  0.00     0.003 A 
ATOM     19  C   UNL d   1      25.925 -13.363  -3.025  0.00  0.00     0.017 A 
ATOM     20  C   UNL d   1      26.655 -14.556  -2.953  0.00  0.00     0.034 A 
ATOM     21  C   UNL d   1      27.850 -14.650  -3.667  0.00  0.00     0.046 A 
BRANCH  20  22
ATOM     22  C   UNL d   1      26.158 -15.667  -2.083  0.00  0.00     0.256 C 
ATOM     23  O   UNL d   1      26.986 -16.445  -1.615  0.00  0.00    -0.267 OA
ATOM     24  N   UNL d   1      24.778 -15.807  -1.921  0.00  0.00    -0.323 N 
ATOM     25  H   UNL d   1      24.142 -15.269  -2.490  0.00  0.00     0.169 HD
BRANCH  24  26
ATOM     26  C   UNL d   1      24.201 -16.839  -1.152  0.00  0.00     0.036 A 
ATOM     27  C   UNL d   1      24.942 -17.487  -0.163  0.00  0.00     0.029 A 
ATOM     28  C   UNL d   1      24.376 -18.513   0.590  0.00  0.00     0.004 A 
ATOM     29  C   UNL d   1      23.059 -18.900   0.356  0.00  0.00     0.023 A 
ATOM     30  C   UNL d   1      22.293 -18.232  -0.605  0.00  0.00     0.046 A 
ATOM     31  C   UNL d   1      20.916 -18.598  -0.785  0.00  0.00     0.099 C 
ATOM     32  C   UNL d   1      22.862 -17.193  -1.358  0.00  0.00     0.052 A 
ATOM     33  N   UNL d   1      19.799 -18.884  -0.895  0.00  0.00    -0.191 NA
ENDBRANCH  24  26
ENDBRANCH  20  22
ENDBRANCH  13  16
ENDBRANCH   9  10
ENDBRANCH   7   9
TORSDOF 5
ENDMDL
MODEL 6
REMARK VINA RESULT:   -29.758      3.238      7.244
REMARK INTER + INTRA:         -31.944
REMARK INTER:                 -31.250
REMARK INTRA:                  -0.694
REMARK CONF_INDEPENDENT:        1.492
REMARK UNBOUND:                -0.694
REMARK  5 active torsions:
REMARK  status: ('A' for Active; 'I' for Inactive)
REMARK    1  A    between atoms: C_7  and  C_8 
REMARK    2  A    between atoms: C_8  and  N_9 
REMARK       I    between atoms: N_9  and  C_10 
REMARK       I    between atoms: C_10  and  N_12 
REMARK    3  A    between atoms: N_12  and  C_13 
REMARK    4  A    between atoms: C_17  and  C_18 
REMARK       I    between atoms: C_18  and  N_20 
REMARK    5  A    between atoms: N_20  and  C_21 
ROOT
ATOM      1  N   UNL d   1      19.904 -18.575  -1.059  0.00  0.00    -0.191 NA
ATOM      2  C   UNL d   1      21.033 -18.439  -0.856  0.00  0.00     0.099 C 
ATOM      3  C   UNL d   1      22.435 -18.205  -0.659  0.00  0.00     0.045 A 
ATOM      4  C   UNL d   1      23.292 -19.214  -0.239  0.00  0.00     0.022 A 
ATOM      5  C   UNL d   1      24.662 -18.959  -0.145  0.00  0.00     0.002 A 
ATOM      6  C   UNL d   1      25.172 -17.692  -0.471  0.00  0.00     0.009 A 
ATOM      7  C   UNL d   1      24.312 -16.648  -0.868  0.00  0.00    -0.039 A 
ATOM      8  C   UNL d   1      22.943 -16.936  -0.941  0.00  0.00     0.031 A 
ENDROOT
BRANCH   7   9
ATOM      9  C   UNL d   1      24.857 -15.273  -1.215  0.00  0.00     0.162 C 
BRANCH   9  10
ATOM     10  N   UNL d   1      24.745 -14.894  -2.630  0.00  0.00    -0.339 N 
ATOM     11  C   UNL d   1      25.628 -14.022  -3.202  0.00  0.00     0.320 C 
ATOM     12  O   UNL d   1      26.556 -13.553  -2.550  0.00  0.00    -0.247 OA
ATOM     13  N   UNL d   1      25.364 -13.724  -4.534  0.00  0.00    -0.309 N 
ATOM     14  H   UNL d   1      24.500 -14.016  -4.970  0.00  0.00     0.170 HD
ATOM     15  H   UNL d   1      24.015 -15.260  -3.209  0.00  0.00     0.164 HD
BRANCH  13  16
ATOM     16  C   UNL d   1      26.226 -12.886  -5.292  0.00  0.00     0.037 A 
ATOM     17  C   UNL d   1      25.950 -11.533  -5.508  0.00  0.00     0.029 A 
ATOM     18  C   UNL d   1      26.800 -10.770  -6.325  0.00  0.00     0.003 A 
ATOM     19  C   UNL d   1      27.948 -11.346  -6.881  0.00  0.00     0.017 A 
ATOM     20  C   UNL d   1      28.226 -12.704  -6.683  0.00  0.00     0.034 A 
ATOM     21  C   UNL d   1      27.358 -13.452  -5.887  0.00  0.00     0.046 A 
BRANCH  20  22
ATOM     22  C   UNL d   1      29.410 -13.316  -7.362  0.00  0.00     0.256 C 
ATOM     23  O   UNL d   1      29.668 -12.950  -8.507  0.00  0.00    -0.267 OA
ATOM     24  N   UNL d   1      30.104 -14.325  -6.692  0.00  0.00    -0.323 N 
ATOM     25  H   UNL d   1      29.727 -14.725  -5.846  0.00  0.00     0.169 HD
BRANCH  24  26
ATOM     26  C   UNL d   1      31.212 -14.993  -7.253  0.00  0.00     0.036 A 
ATOM     27  C   UNL d   1      32.421 -14.323  -7.445  0.00  0.00     0.029 A 
ATOM     28  C   UNL d   1      33.513 -14.979  -8.010  0.00  0.00     0.004 A 
ATOM     29  C   UNL d   1      33.401 -16.315  -8.388  0.00  0.00     0.023 A 
ATOM     30  C   UNL d   1      32.207 -17.008  -8.164  0.00  0.00     0.046 A 
ATOM     31  C   UNL d   1      32.131 -18.402  -8.497  0.00  0.00     0.099 C 
ATOM     32  C   UNL d   1      31.110 -16.348  -7.589  0.00  0.00     0.052 A 
ATOM     33  N   UNL d   1      32.097 -19.534  -8.742  0.00  0.00    -0.191 NA
ENDBRANCH  24  26
ENDBRANCH  20  22
ENDBRANCH  13  16
ENDBRANCH   9  10
ENDBRANCH   7   9
TORSDOF 5
ENDMDL
MODEL 7
REMARK VINA RESULT:   -29.344      2.597     10.456
REMARK INTER + INTRA:         -31.508
REMARK INTER:                 -30.835
REMARK INTRA:                  -0.673
REMARK CONF_INDEPENDENT:        1.492
REMARK UNBOUND:                -0.673
REMARK  5 active torsions:
REMARK  status: ('A' for Active; 'I' for Inactive)
REMARK    1  A    between atoms: C_7  and  C_8 
REMARK    2  A    between atoms: C_8  and  N_9 
REMARK       I    between atoms: N_9  and  C_10 
REMARK       I    between atoms: C_10  and  N_12 
REMARK    3  A    between atoms: N_12  and  C_13 
REMARK    4  A    between atoms: C_17  and  C_18 
REMARK       I    between atoms: C_18  and  N_20 
REMARK    5  A    between atoms: N_20  and  C_21 
ROOT
ATOM      1  N   UNL d   1      30.528  -8.902  -6.637  0.00  0.00    -0.191 NA
ATOM      2  C   UNL d   1      29.597  -8.225  -6.731  0.00  0.00     0.099 C 
ATOM      3  C   UNL d   1      28.392  -7.453  -6.836  0.00  0.00     0.045 A 
ATOM      4  C   UNL d   1      28.340  -6.275  -7.570  0.00  0.00     0.022 A 
ATOM      5  C   UNL d   1      27.123  -5.605  -7.711  0.00  0.00     0.002 A 
ATOM      6  C   UNL d   1      25.958  -6.117  -7.118  0.00  0.00     0.009 A 
ATOM      7  C   UNL d   1      26.000  -7.293  -6.344  0.00  0.00    -0.039 A 
ATOM      8  C   UNL d   1      27.239  -7.933  -6.213  0.00  0.00     0.031 A 
ENDROOT
BRANCH   7   9
ATOM      9  C   UNL d   1      24.744  -7.849  -5.693  0.00  0.00     0.162 C 
BRANCH   9  10
ATOM     10  N   UNL d   1      24.797  -9.275  -5.345  0.00  0.00    -0.339 N 
ATOM     11  C   UNL d   1      25.602  -9.729  -4.339  0.00  0.00     0.320 C 
ATOM     12  O   UNL d   1      26.284  -8.948  -3.681  0.00  0.00    -0.247 OA
ATOM     13  N   UNL d   1      25.580 -11.108  -4.160  0.00  0.00    -0.309 N 
ATOM     14  H   UNL d   1      25.123 -11.711  -4.831  0.00  0.00     0.170 HD
ATOM     15  H   UNL d   1      24.249  -9.951  -5.841  0.00  0.00     0.164 HD
BRANCH  13  16
ATOM     16  C   UNL d   1      26.310 -11.732  -3.113  0.00  0.00     0.037 A 
ATOM     17  C   UNL d   1      27.562 -11.269  -2.697  0.00  0.00     0.029 A 
ATOM     18  C   UNL d   1      28.269 -11.968  -1.706  0.00  0.00     0.003 A 
ATOM     19  C   UNL d   1      27.705 -13.095  -1.098  0.00  0.00     0.017 A 
ATOM     20  C   UNL d   1      26.458 -13.575  -1.517  0.00  0.00     0.034 A 
ATOM     21  C   UNL d   1      25.780 -12.882  -2.519  0.00  0.00     0.046 A 
BRANCH  20  22
ATOM     22  C   UNL d   1      25.918 -14.834  -0.914  0.00  0.00     0.256 C 
ATOM     23  O   UNL d   1      26.417 -15.227   0.138  0.00  0.00    -0.267 OA
ATOM     24  N   UNL d   1      24.939 -15.534  -1.622  0.00  0.00    -0.323 N 
ATOM     25  H   UNL d   1      24.716 -15.277  -2.571  0.00  0.00     0.169 HD
BRANCH  24  26
ATOM     26  C   UNL d   1      24.388 -16.748  -1.163  0.00  0.00     0.036 A 
ATOM     27  C   UNL d   1      25.201 -17.723  -0.582  0.00  0.00     0.029 A 
ATOM     28  C   UNL d   1      24.659 -18.926  -0.138  0.00  0.00     0.004 A 
ATOM     29  C   UNL d   1      23.293 -19.165  -0.274  0.00  0.00     0.023 A 
ATOM     30  C   UNL d   1      22.462 -18.181  -0.819  0.00  0.00     0.046 A 
ATOM     31  C   UNL d   1      21.047 -18.416  -0.888  0.00  0.00     0.099 C 
ATOM     32  C   UNL d   1      23.008 -16.965  -1.259  0.00  0.00     0.052 A 
ATOM     33  N   UNL d   1      19.905 -18.609  -0.907  0.00  0.00    -0.191 NA
ENDBRANCH  24  26
ENDBRANCH  20  22
ENDBRANCH  13  16
ENDBRANCH   9  10
ENDBRANCH   7   9
TORSDOF 5
ENDMDL
MODEL 8
REMARK VINA RESULT:   -29.320      2.630     10.116
REMARK INTER + INTRA:         -31.358
REMARK INTER:                 -30.811
REMARK INTRA:                  -0.546
REMARK CONF_INDEPENDENT:        1.492
REMARK UNBOUND:                -0.546
REMARK  5 active torsions:
REMARK  status: ('A' for Active; 'I' for Inactive)
REMARK    1  A    between atoms: C_7  and  C_8 
REMARK    2  A    between atoms: C_8  and  N_9 
REMARK       I    between atoms: N_9  and  C_10 
REMARK       I    between atoms: C_10  and  N_12 
REMARK    3  A    between atoms: N_12  and  C_13 
REMARK    4  A    between atoms: C_17  and  C_18 
REMARK       I    between atoms: C_18  and  N_20 
REMARK    5  A    between atoms: N_20  and  C_21 
ROOT
ATOM      1  N   UNL d   1      29.720  -7.937  -6.991  0.00  0.00    -0.191 NA
ATOM      2  C   UNL d   1      29.451  -7.548  -5.937  0.00  0.00     0.099 C 
ATOM      3  C   UNL d   1      29.036  -7.076  -4.647  0.00  0.00     0.045 A 
ATOM      4  C   UNL d   1      29.818  -6.204  -3.902  0.00  0.00     0.022 A 
ATOM      5  C   UNL d   1      29.332  -5.706  -2.691  0.00  0.00     0.002 A 
ATOM      6  C   UNL d   1      28.061  -6.083  -2.228  0.00  0.00     0.009 A 
ATOM      7  C   UNL d   1      27.268  -6.993  -2.957  0.00  0.00    -0.039 A 
ATOM      8  C   UNL d   1      27.792  -7.480  -4.161  0.00  0.00     0.031 A 
ENDROOT
BRANCH   7   9
ATOM      9  C   UNL d   1      25.895  -7.411  -2.458  0.00  0.00     0.162 C 
BRANCH   9  10
ATOM     10  N   UNL d   1      25.367  -8.652  -3.041  0.00  0.00    -0.339 N 
ATOM     11  C   UNL d   1      26.159  -9.755  -3.192  0.00  0.00     0.320 C 
ATOM     12  O   UNL d   1      27.328  -9.744  -2.818  0.00  0.00    -0.247 OA
ATOM     13  N   UNL d   1      25.532 -10.836  -3.802  0.00  0.00    -0.309 N 
ATOM     14  H   UNL d   1      24.621 -10.733  -4.229  0.00  0.00     0.170 HD
ATOM     15  H   UNL d   1      24.417  -8.717  -3.348  0.00  0.00     0.164 HD
BRANCH  13  16
ATOM     16  C   UNL d   1      26.196 -12.080  -3.973  0.00  0.00     0.037 A 
ATOM     17  C   UNL d   1      27.187 -12.270  -4.941  0.00  0.00     0.029 A 
ATOM     18  C   UNL d   1      27.758 -13.541  -5.112  0.00  0.00     0.003 A 
ATOM     19  C   UNL d   1      27.378 -14.604  -4.285  0.00  0.00     0.017 A 
ATOM     20  C   UNL d   1      26.376 -14.427  -3.322  0.00  0.00     0.034 A 
ATOM     21  C   UNL d   1      25.803 -13.164  -3.182  0.00  0.00     0.046 A 
BRANCH  20  22
ATOM     22  C   UNL d   1      25.924 -15.602  -2.513  0.00  0.00     0.256 C 
ATOM     23  O   UNL d   1      26.602 -16.626  -2.558  0.00  0.00    -0.267 OA
ATOM     24  N   UNL d   1      24.716 -15.497  -1.820  0.00  0.00    -0.323 N 
ATOM     25  H   UNL d   1      24.104 -14.712  -1.982  0.00  0.00     0.169 HD
BRANCH  24  26
ATOM     26  C   UNL d   1      24.180 -16.554  -1.056  0.00  0.00     0.036 A 
ATOM     27  C   UNL d   1      24.931 -17.147  -0.039  0.00  0.00     0.029 A 
ATOM     28  C   UNL d   1      24.407 -18.198   0.709  0.00  0.00     0.004 A 
ATOM     29  C   UNL d   1      23.122 -18.665   0.444  0.00  0.00     0.023 A 
ATOM     30  C   UNL d   1      22.345 -18.053  -0.545  0.00  0.00     0.046 A 
ATOM     31  C   UNL d   1      20.998 -18.503  -0.758  0.00  0.00     0.099 C 
ATOM     32  C   UNL d   1      22.872 -16.990  -1.294  0.00  0.00     0.052 A 
ATOM     33  N   UNL d   1      19.903 -18.856  -0.896  0.00  0.00    -0.191 NA
ENDBRANCH  24  26
ENDBRANCH  20  22
ENDBRANCH  13  16
ENDBRANCH   9  10
ENDBRANCH   7   9
TORSDOF 5
ENDMDL
MODEL 9
REMARK VINA RESULT:   -29.270      4.870      9.094
REMARK INTER + INTRA:         -31.564
REMARK INTER:                 -30.762
REMARK INTRA:                  -0.802
REMARK CONF_INDEPENDENT:        1.492
REMARK UNBOUND:                -0.802
REMARK  5 active torsions:
REMARK  status: ('A' for Active; 'I' for Inactive)
REMARK    1  A    between atoms: C_7  and  C_8 
REMARK    2  A    between atoms: C_8  and  N_9 
REMARK       I    between atoms: N_9  and  C_10 
REMARK       I    between atoms: C_10  and  N_12 
REMARK    3  A    between atoms: N_12  and  C_13 
REMARK    4  A    between atoms: C_17  and  C_18 
REMARK       I    between atoms: C_18  and  N_20 
REMARK    5  A    between atoms: N_20  and  C_21 
ROOT
ATOM      1  N   UNL d   1      33.663 -14.057   1.225  0.00  0.00    -0.191 NA
ATOM      2  C   UNL d   1      32.619 -13.868   1.680  0.00  0.00     0.099 C 
ATOM      3  C   UNL d   1      31.330 -13.550   2.228  0.00  0.00     0.045 A 
ATOM      4  C   UNL d   1      30.751 -14.322   3.226  0.00  0.00     0.022 A 
ATOM      5  C   UNL d   1      29.535 -13.924   3.785  0.00  0.00     0.002 A 
ATOM      6  C   UNL d   1      28.901 -12.751   3.343  0.00  0.00     0.009 A 
ATOM      7  C   UNL d   1      29.460 -11.974   2.309  0.00  0.00    -0.039 A 
ATOM      8  C   UNL d   1      30.674 -12.409   1.764  0.00  0.00     0.031 A 
ENDROOT
BRANCH   7   9
ATOM      9  C   UNL d   1      28.775 -10.708   1.822  0.00  0.00     0.162 C 
BRANCH   9  10
ATOM     10  N   UNL d   1      28.685 -10.567   0.362  0.00  0.00    -0.339 N 
ATOM     11  C   UNL d   1      27.873 -11.378  -0.379  0.00  0.00     0.320 C 
ATOM     12  O   UNL d   1      27.175 -12.231   0.163  0.00  0.00    -0.247 OA
ATOM     13  N   UNL d   1      27.931 -11.156  -1.750  0.00  0.00    -0.309 N 
ATOM     14  H   UNL d   1      28.637 -10.551  -2.148  0.00  0.00     0.170 HD
ATOM     15  H   UNL d   1      29.222  -9.878  -0.127  0.00  0.00     0.164 HD
BRANCH  13  16
ATOM     16  C   UNL d   1      27.098 -11.869  -2.654  0.00  0.00     0.037 A 
ATOM     17  C   UNL d   1      26.590 -11.286  -3.819  0.00  0.00     0.029 A 
ATOM     18  C   UNL d   1      25.715 -12.016  -4.638  0.00  0.00     0.003 A 
ATOM     19  C   UNL d   1      25.390 -13.340  -4.322  0.00  0.00     0.017 A 
ATOM     20  C   UNL d   1      25.882 -13.928  -3.150  0.00  0.00     0.034 A 
ATOM     21  C   UNL d   1      26.732 -13.180  -2.335  0.00  0.00     0.046 A 
BRANCH  20  22
ATOM     22  C   UNL d   1      25.447 -15.313  -2.788  0.00  0.00     0.256 C 
ATOM     23  O   UNL d   1      25.680 -16.217  -3.588  0.00  0.00    -0.267 OA
ATOM     24  N   UNL d   1      24.727 -15.488  -1.604  0.00  0.00    -0.323 N 
ATOM     25  H   UNL d   1      24.388 -14.688  -1.092  0.00  0.00     0.169 HD
BRANCH  24  26
ATOM     26  C   UNL d   1      24.239 -16.743  -1.185  0.00  0.00     0.036 A 
ATOM     27  C   UNL d   1      25.107 -17.706  -0.669  0.00  0.00     0.029 A 
ATOM     28  C   UNL d   1      24.628 -18.949  -0.265  0.00  0.00     0.004 A 
ATOM     29  C   UNL d   1      23.270 -19.240  -0.376  0.00  0.00     0.023 A 
ATOM     30  C   UNL d   1      22.384 -18.269  -0.855  0.00  0.00     0.046 A 
ATOM     31  C   UNL d   1      20.979 -18.561  -0.897  0.00  0.00     0.099 C 
ATOM     32  C   UNL d   1      22.868 -17.014  -1.255  0.00  0.00     0.052 A 
ATOM     33  N   UNL d   1      19.846 -18.801  -0.896  0.00  0.00    -0.191 NA
ENDBRANCH  24  26
ENDBRANCH  20  22
ENDBRANCH  13  16
ENDBRANCH   9  10
ENDBRANCH   7   9
TORSDOF 5
ENDMDL
