MODEL 1
REMARK VINA RESULT:    -6.036      0.000      0.000
REMARK INTER + INTRA:          -7.698
REMARK INTER:                  -7.229
REMARK INTRA:                  -0.469
REMARK CONF_INDEPENDENT:        1.193
REMARK UNBOUND:                -0.469
REMARK  4 active torsions:
REMARK  status: ('A' for Active; 'I' for Inactive)
REMARK    1  A    between atoms: C_2  and  C_3 
REMARK    2  A    between atoms: C_3  and  C_4 
REMARK    3  A    between atoms: C_4  and  C_10 
REMARK    4  A    between atoms: N_5  and  N_6 
REMARK       I    between atoms: N_6  and  C_7 
REMARK       I    between atoms: C_7  and  N_8 
ROOT
ATOM      1  C   UNL d   1      25.411 -15.230  -2.884  0.00  0.00     0.060 C 
ATOM      2  N   UNL d   1      24.463 -14.369  -3.206  0.00  0.00    -0.175 NA
ENDROOT
BRANCH   1   3
ATOM      3  C   UNL d   1      26.827 -15.393  -3.493  0.00  0.00     0.061 C 
BRANCH   3   4
ATOM      4  C   UNL d   1      26.913 -15.205  -4.989  0.00  0.00     0.002 C 
ATOM      5  C   UNL d   1      28.219 -14.824  -5.614  0.00  0.00     0.005 C 
ENDBRANCH   3   4
ENDBRANCH   1   3
BRANCH   1   6
ATOM      6  C   UNL d   1      25.089 -16.230  -1.777  0.00  0.00    -0.035 C 
ATOM      7  C   UNL d   1      26.124 -16.854  -1.186  0.00  0.00    -0.018 C 
ATOM      8  C   UNL d   1      25.959 -17.953  -0.176  0.00  0.00     0.028 C 
ATOM      9  C   UNL d   1      24.541 -18.524  -0.143  0.00  0.00     0.004 C 
ATOM     10  C   UNL d   1      23.510 -17.404  -0.145  0.00  0.00     0.005 C 
ATOM     11  C   UNL d   1      23.655 -16.520  -1.396  0.00  0.00     0.040 C 
ENDBRANCH   1   6
BRANCH   2  12
ATOM     12  N   UNL d   1      24.629 -13.436  -4.186  0.00  0.00    -0.229 N 
ATOM     13  C   UNL d   1      25.522 -12.427  -4.258  0.00  0.00     0.334 C 
ATOM     14  N   UNL d   1      26.361 -12.286  -3.233  0.00  0.00    -0.351 N 
ATOM     15  O   UNL d   1      25.535 -11.681  -5.240  0.00  0.00    -0.246 OA
ATOM     16  H   UNL d   1      26.286 -12.950  -2.478  0.00  0.00     0.160 HD
ATOM     17  H   UNL d   1      27.043 -11.547  -3.266  0.00  0.00     0.160 HD
ATOM     18  H   UNL d   1      24.092 -13.392  -5.021  0.00  0.00     0.194 HD
ENDBRANCH   2  12
TORSDOF 4
ENDMDL
MODEL 2
REMARK VINA RESULT:    -5.744      4.086      5.966
REMARK INTER + INTRA:          -7.393
REMARK INTER:                  -6.937
REMARK INTRA:                  -0.456
REMARK CONF_INDEPENDENT:        1.193
REMARK UNBOUND:                -0.456
REMARK  4 active torsions:
REMARK  status: ('A' for Active; 'I' for Inactive)
REMARK    1  A    between atoms: C_2  and  C_3 
REMARK    2  A    between atoms: C_3  and  C_4 
REMARK    3  A    between atoms: C_4  and  C_10 
REMARK    4  A    between atoms: N_5  and  N_6 
REMARK       I    between atoms: N_6  and  C_7 
REMARK       I    between atoms: C_7  and  N_8 
ROOT
ATOM      1  C   UNL d   1      24.287 -17.476  -0.464  0.00  0.00     0.060 C 
ATOM      2  N   UNL d   1      23.060 -17.716  -0.888  0.00  0.00    -0.175 NA
ENDROOT
BRANCH   1   3
ATOM      3  C   UNL d   1      25.095 -18.200   0.643  0.00  0.00     0.061 C 
BRANCH   3   4
ATOM      4  C   UNL d   1      26.446 -18.723   0.219  0.00  0.00     0.002 C 
ATOM      5  C   UNL d   1      27.592 -17.772   0.059  0.00  0.00     0.005 C 
ENDBRANCH   3   4
ENDBRANCH   1   3
BRANCH   1   6
ATOM      6  C   UNL d   1      25.031 -16.318  -1.123  0.00  0.00    -0.035 C 
ATOM      7  C   UNL d   1      25.036 -16.270  -2.468  0.00  0.00    -0.018 C 
ATOM      8  C   UNL d   1      25.829 -15.268  -3.257  0.00  0.00     0.028 C 
ATOM      9  C   UNL d   1      26.882 -14.546  -2.416  0.00  0.00     0.004 C 
ATOM     10  C   UNL d   1      26.291 -14.094  -1.087  0.00  0.00     0.005 C 
ATOM     11  C   UNL d   1      25.755 -15.291  -0.283  0.00  0.00     0.040 C 
ENDBRANCH   1   6
BRANCH   2  12
ATOM     12  N   UNL d   1      22.293 -18.716  -0.368  0.00  0.00    -0.229 N 
ATOM     13  C   UNL d   1      20.972 -18.944  -0.521  0.00  0.00     0.334 C 
ATOM     14  N   UNL d   1      20.290 -18.077  -1.269  0.00  0.00    -0.351 N 
ATOM     15  O   UNL d   1      20.445 -19.920   0.019  0.00  0.00    -0.246 OA
ATOM     16  H   UNL d   1      20.806 -17.316  -1.682  0.00  0.00     0.160 HD
ATOM     17  H   UNL d   1      19.306 -18.230  -1.407  0.00  0.00     0.160 HD
ATOM     18  H   UNL d   1      22.636 -19.448   0.210  0.00  0.00     0.194 HD
ENDBRANCH   2  12
TORSDOF 4
ENDMDL
MODEL 3
REMARK VINA RESULT:    -5.710      1.566      2.486
REMARK INTER + INTRA:          -7.504
REMARK INTER:                  -6.903
REMARK INTRA:                  -0.601
REMARK CONF_INDEPENDENT:        1.193
REMARK UNBOUND:                -0.601
REMARK  4 active torsions:
REMARK  status: ('A' for Active; 'I' for Inactive)
REMARK    1  A    between atoms: C_2  and  C_3 
REMARK    2  A    between atoms: C_3  and  C_4 
REMARK    3  A    between atoms: C_4  and  C_10 
REMARK    4  A    between atoms: N_5  and  N_6 
REMARK       I    between atoms: N_6  and  C_7 
REMARK       I    between atoms: C_7  and  N_8 
ROOT
ATOM      1  C   UNL d   1      25.679 -15.731  -2.191  0.00  0.00     0.060 C 
ATOM      2  N   UNL d   1      25.268 -15.496  -3.424  0.00  0.00    -0.175 NA
ENDROOT
BRANCH   1   3
ATOM      3  C   UNL d   1      26.988 -15.276  -1.497  0.00  0.00     0.061 C 
BRANCH   3   4
ATOM      4  C   UNL d   1      26.803 -14.393  -0.286  0.00  0.00     0.002 C 
ATOM      5  C   UNL d   1      27.462 -14.762   1.007  0.00  0.00     0.005 C 
ENDBRANCH   3   4
ENDBRANCH   1   3
BRANCH   1   6
ATOM      6  C   UNL d   1      24.769 -16.583  -1.311  0.00  0.00    -0.035 C 
ATOM      7  C   UNL d   1      25.343 -17.576  -0.606  0.00  0.00    -0.018 C 
ATOM      8  C   UNL d   1      24.563 -18.575   0.200  0.00  0.00     0.028 C 
ATOM      9  C   UNL d   1      23.070 -18.572  -0.130  0.00  0.00     0.004 C 
ATOM     10  C   UNL d   1      22.537 -17.147  -0.199  0.00  0.00     0.005 C 
ATOM     11  C   UNL d   1      23.280 -16.329  -1.270  0.00  0.00     0.040 C 
ENDBRANCH   1   6
BRANCH   2  12
ATOM     12  N   UNL d   1      25.999 -14.758  -4.307  0.00  0.00    -0.229 N 
ATOM     13  C   UNL d   1      25.871 -13.457  -4.639  0.00  0.00     0.334 C 
ATOM     14  N   UNL d   1      24.890 -12.775  -4.050  0.00  0.00    -0.351 N 
ATOM     15  O   UNL d   1      26.642 -12.948  -5.457  0.00  0.00    -0.246 OA
ATOM     16  H   UNL d   1      24.316 -13.269  -3.385  0.00  0.00     0.160 HD
ATOM     17  H   UNL d   1      24.780 -11.800  -4.274  0.00  0.00     0.160 HD
ATOM     18  H   UNL d   1      26.768 -15.106  -4.832  0.00  0.00     0.194 HD
ENDBRANCH   2  12
TORSDOF 4
ENDMDL
MODEL 4
REMARK VINA RESULT:    -5.622      3.591      4.302
REMARK INTER + INTRA:          -7.372
REMARK INTER:                  -6.816
REMARK INTRA:                  -0.557
REMARK CONF_INDEPENDENT:        1.193
REMARK UNBOUND:                -0.557
REMARK  4 active torsions:
REMARK  status: ('A' for Active; 'I' for Inactive)
REMARK    1  A    between atoms: C_2  and  C_3 
REMARK    2  A    between atoms: C_3  and  C_4 
REMARK    3  A    between atoms: C_4  and  C_10 
REMARK    4  A    between atoms: N_5  and  N_6 
REMARK       I    between atoms: N_6  and  C_7 
REMARK       I    between atoms: C_7  and  N_8 
ROOT
ATOM      1  C   UNL d   1      26.144 -16.707  -0.480  0.00  0.00     0.060 C 
ATOM      2  N   UNL d   1      27.068 -17.388   0.172  0.00  0.00    -0.175 NA
ENDROOT
BRANCH   1   3
ATOM      3  C   UNL d   1      26.285 -15.381  -1.272  0.00  0.00     0.061 C 
BRANCH   3   4
ATOM      4  C   UNL d   1      26.036 -15.487  -2.757  0.00  0.00     0.002 C 
ATOM      5  C   UNL d   1      25.191 -14.458  -3.440  0.00  0.00     0.005 C 
ENDBRANCH   3   4
ENDBRANCH   1   3
BRANCH   1   6
ATOM      6  C   UNL d   1      24.724 -17.267  -0.450  0.00  0.00    -0.035 C 
ATOM      7  C   UNL d   1      24.579 -18.571  -0.151  0.00  0.00    -0.018 C 
ATOM      8  C   UNL d   1      23.263 -19.291  -0.208  0.00  0.00     0.028 C 
ATOM      9  C   UNL d   1      22.187 -18.506  -0.960  0.00  0.00     0.004 C 
ATOM     10  C   UNL d   1      22.178 -17.048  -0.519  0.00  0.00     0.005 C 
ATOM     11  C   UNL d   1      23.542 -16.384  -0.777  0.00  0.00     0.040 C 
ENDBRANCH   1   6
BRANCH   2  12
ATOM     12  N   UNL d   1      28.369 -16.981   0.226  0.00  0.00    -0.229 N 
ATOM     13  C   UNL d   1      29.248 -16.804  -0.782  0.00  0.00     0.334 C 
ATOM     14  N   UNL d   1      28.818 -17.072  -2.015  0.00  0.00    -0.351 N 
ATOM     15  O   UNL d   1      30.392 -16.412  -0.543  0.00  0.00    -0.246 OA
ATOM     16  H   UNL d   1      27.862 -17.375  -2.116  0.00  0.00     0.160 HD
ATOM     17  H   UNL d   1      29.451 -16.938  -2.785  0.00  0.00     0.160 HD
ATOM     18  H   UNL d   1      28.850 -16.739   1.061  0.00  0.00     0.194 HD
ENDBRANCH   2  12
TORSDOF 4
ENDMDL
MODEL 5
REMARK VINA RESULT:    -5.463      3.110      3.894
REMARK INTER + INTRA:          -7.254
REMARK INTER:                  -6.656
REMARK INTRA:                  -0.598
REMARK CONF_INDEPENDENT:        1.193
REMARK UNBOUND:                -0.598
REMARK  4 active torsions:
REMARK  status: ('A' for Active; 'I' for Inactive)
REMARK    1  A    between atoms: C_2  and  C_3 
REMARK    2  A    between atoms: C_3  and  C_4 
REMARK    3  A    between atoms: C_4  and  C_10 
REMARK    4  A    between atoms: N_5  and  N_6 
REMARK       I    between atoms: N_6  and  C_7 
REMARK       I    between atoms: C_7  and  N_8 
ROOT
ATOM      1  C   UNL d   1      25.804 -15.878  -0.883  0.00  0.00     0.060 C 
ATOM      2  N   UNL d   1      26.079 -15.147   0.182  0.00  0.00    -0.175 NA
ENDROOT
BRANCH   1   3
ATOM      3  C   UNL d   1      26.489 -15.871  -2.274  0.00  0.00     0.061 C 
BRANCH   3   4
ATOM      4  C   UNL d   1      25.606 -15.454  -3.426  0.00  0.00     0.002 C 
ATOM      5  C   UNL d   1      25.035 -14.070  -3.457  0.00  0.00     0.005 C 
ENDBRANCH   3   4
ENDBRANCH   1   3
BRANCH   1   6
ATOM      6  C   UNL d   1      24.641 -16.859  -0.765  0.00  0.00    -0.035 C 
ATOM      7  C   UNL d   1      23.400 -16.375  -0.955  0.00  0.00    -0.018 C 
ATOM      8  C   UNL d   1      22.155 -17.188  -0.745  0.00  0.00     0.028 C 
ATOM      9  C   UNL d   1      22.411 -18.483   0.026  0.00  0.00     0.004 C 
ATOM     10  C   UNL d   1      23.640 -19.199  -0.519  0.00  0.00     0.005 C 
ATOM     11  C   UNL d   1      24.891 -18.309  -0.415  0.00  0.00     0.040 C 
ENDBRANCH   1   6
BRANCH   2  12
ATOM     12  N   UNL d   1      27.087 -14.228   0.193  0.00  0.00    -0.229 N 
ATOM     13  C   UNL d   1      28.324 -14.329   0.721  0.00  0.00     0.334 C 
ATOM     14  N   UNL d   1      28.629 -15.469   1.338  0.00  0.00    -0.351 N 
ATOM     15  O   UNL d   1      29.117 -13.389   0.621  0.00  0.00    -0.246 OA
ATOM     16  H   UNL d   1      27.922 -16.188   1.360  0.00  0.00     0.160 HD
ATOM     17  H   UNL d   1      29.549 -15.573   1.731  0.00  0.00     0.160 HD
ATOM     18  H   UNL d   1      27.033 -13.326  -0.221  0.00  0.00     0.194 HD
ENDBRANCH   2  12
TORSDOF 4
ENDMDL
MODEL 6
REMARK VINA RESULT:    -5.333      1.860      2.428
REMARK INTER + INTRA:          -7.038
REMARK INTER:                  -6.526
REMARK INTRA:                  -0.513
REMARK CONF_INDEPENDENT:        1.193
REMARK UNBOUND:                -0.513
REMARK  4 active torsions:
REMARK  status: ('A' for Active; 'I' for Inactive)
REMARK    1  A    between atoms: C_2  and  C_3 
REMARK    2  A    between atoms: C_3  and  C_4 
REMARK    3  A    between atoms: C_4  and  C_10 
REMARK    4  A    between atoms: N_5  and  N_6 
REMARK       I    between atoms: N_6  and  C_7 
REMARK       I    between atoms: C_7  and  N_8 
ROOT
ATOM      1  C   UNL d   1      25.685 -15.546  -2.662  0.00  0.00     0.060 C 
ATOM      2  N   UNL d   1      25.554 -15.951  -3.913  0.00  0.00    -0.175 NA
ENDROOT
BRANCH   1   3
ATOM      3  C   UNL d   1      26.471 -14.329  -2.109  0.00  0.00     0.061 C 
BRANCH   3   4
ATOM      4  C   UNL d   1      26.147 -13.004  -2.754  0.00  0.00     0.002 C 
ATOM      5  C   UNL d   1      25.048 -12.923  -3.768  0.00  0.00     0.005 C 
ENDBRANCH   3   4
ENDBRANCH   1   3
BRANCH   1   6
ATOM      6  C   UNL d   1      24.996 -16.385  -1.590  0.00  0.00    -0.035 C 
ATOM      7  C   UNL d   1      25.765 -17.222  -0.870  0.00  0.00    -0.018 C 
ATOM      8  C   UNL d   1      25.214 -18.201   0.127  0.00  0.00     0.028 C 
ATOM      9  C   UNL d   1      23.703 -18.396  -0.004  0.00  0.00     0.004 C 
ATOM     10  C   UNL d   1      22.997 -17.055  -0.145  0.00  0.00     0.005 C 
ATOM     11  C   UNL d   1      23.502 -16.289  -1.380  0.00  0.00     0.040 C 
ENDBRANCH   1   6
BRANCH   2  12
ATOM     12  N   UNL d   1      26.133 -15.290  -4.956  0.00  0.00    -0.229 N 
ATOM     13  C   UNL d   1      27.438 -15.200  -5.287  0.00  0.00     0.334 C 
ATOM     14  N   UNL d   1      28.309 -15.820  -4.493  0.00  0.00    -0.351 N 
ATOM     15  O   UNL d   1      27.780 -14.563  -6.287  0.00  0.00    -0.246 OA
ATOM     16  H   UNL d   1      27.938 -16.328  -3.705  0.00  0.00     0.160 HD
ATOM     17  H   UNL d   1      29.287 -15.777  -4.724  0.00  0.00     0.160 HD
ATOM     18  H   UNL d   1      25.634 -14.776  -5.645  0.00  0.00     0.194 HD
ENDBRANCH   2  12
TORSDOF 4
ENDMDL
MODEL 7
REMARK VINA RESULT:    -5.322      3.674      5.056
REMARK INTER + INTRA:          -7.082
REMARK INTER:                  -6.515
REMARK INTRA:                  -0.566
REMARK CONF_INDEPENDENT:        1.193
REMARK UNBOUND:                -0.566
REMARK  4 active torsions:
REMARK  status: ('A' for Active; 'I' for Inactive)
REMARK    1  A    between atoms: C_2  and  C_3 
REMARK    2  A    between atoms: C_3  and  C_4 
REMARK    3  A    between atoms: C_4  and  C_10 
REMARK    4  A    between atoms: N_5  and  N_6 
REMARK       I    between atoms: N_6  and  C_7 
REMARK       I    between atoms: C_7  and  N_8 
ROOT
ATOM      1  C   UNL d   1      24.797 -16.302  -1.070  0.00  0.00     0.060 C 
ATOM      2  N   UNL d   1      23.980 -17.120  -0.432  0.00  0.00    -0.175 NA
ENDROOT
BRANCH   1   3
ATOM      3  C   UNL d   1      24.509 -15.387  -2.288  0.00  0.00     0.061 C 
BRANCH   3   4
ATOM      4  C   UNL d   1      25.601 -15.335  -3.329  0.00  0.00     0.002 C 
ATOM      5  C   UNL d   1      26.242 -14.025  -3.664  0.00  0.00     0.005 C 
ENDBRANCH   3   4
ENDBRANCH   1   3
BRANCH   1   6
ATOM      6  C   UNL d   1      26.240 -16.244  -0.574  0.00  0.00    -0.035 C 
ATOM      7  C   UNL d   1      26.617 -15.146   0.108  0.00  0.00    -0.018 C 
ATOM      8  C   UNL d   1      28.031 -14.889   0.545  0.00  0.00     0.028 C 
ATOM      9  C   UNL d   1      29.043 -15.803  -0.147  0.00  0.00     0.004 C 
ATOM     10  C   UNL d   1      28.553 -17.245  -0.148  0.00  0.00     0.005 C 
ATOM     11  C   UNL d   1      27.202 -17.370  -0.873  0.00  0.00     0.040 C 
ENDBRANCH   1   6
BRANCH   2  12
ATOM     12  N   UNL d   1      22.672 -17.266  -0.791  0.00  0.00    -0.229 N 
ATOM     13  C   UNL d   1      21.816 -18.266  -0.498  0.00  0.00     0.334 C 
ATOM     14  N   UNL d   1      22.291 -19.277   0.229  0.00  0.00    -0.351 N 
ATOM     15  O   UNL d   1      20.651 -18.222  -0.900  0.00  0.00    -0.246 OA
ATOM     16  H   UNL d   1      23.253 -19.223   0.525  0.00  0.00     0.160 HD
ATOM     17  H   UNL d   1      21.670 -20.031   0.470  0.00  0.00     0.160 HD
ATOM     18  H   UNL d   1      22.158 -16.608  -1.330  0.00  0.00     0.194 HD
ENDBRANCH   2  12
TORSDOF 4
ENDMDL
MODEL 8
REMARK VINA RESULT:    -5.299      1.289      1.959
REMARK INTER + INTRA:          -7.125
REMARK INTER:                  -6.492
REMARK INTRA:                  -0.632
REMARK CONF_INDEPENDENT:        1.193
REMARK UNBOUND:                -0.632
REMARK  4 active torsions:
REMARK  status: ('A' for Active; 'I' for Inactive)
REMARK    1  A    between atoms: C_2  and  C_3 
REMARK    2  A    between atoms: C_3  and  C_4 
REMARK    3  A    between atoms: C_4  and  C_10 
REMARK    4  A    between atoms: N_5  and  N_6 
REMARK       I    between atoms: N_6  and  C_7 
REMARK       I    between atoms: C_7  and  N_8 
ROOT
ATOM      1  C   UNL d   1      25.567 -14.861  -2.196  0.00  0.00     0.060 C 
ATOM      2  N   UNL d   1      24.770 -14.537  -3.198  0.00  0.00    -0.175 NA
ENDROOT
BRANCH   1   3
ATOM      3  C   UNL d   1      26.822 -14.120  -1.669  0.00  0.00     0.061 C 
BRANCH   3   4
ATOM      4  C   UNL d   1      28.122 -14.493  -2.341  0.00  0.00     0.002 C 
ATOM      5  C   UNL d   1      28.311 -15.882  -2.866  0.00  0.00     0.005 C 
ENDBRANCH   3   4
ENDBRANCH   1   3
BRANCH   1   6
ATOM      6  C   UNL d   1      25.244 -16.152  -1.447  0.00  0.00    -0.035 C 
ATOM      7  C   UNL d   1      24.029 -16.694  -1.644  0.00  0.00    -0.018 C 
ATOM      8  C   UNL d   1      23.522 -17.885  -0.883  0.00  0.00     0.028 C 
ATOM      9  C   UNL d   1      24.361 -18.201   0.356  0.00  0.00     0.004 C 
ATOM     10  C   UNL d   1      25.846 -18.152   0.026  0.00  0.00     0.005 C 
ATOM     11  C   UNL d   1      26.251 -16.764  -0.500  0.00  0.00     0.040 C 
ENDBRANCH   1   6
BRANCH   2  12
ATOM     12  N   UNL d   1      24.964 -13.415  -3.948  0.00  0.00    -0.229 N 
ATOM     13  C   UNL d   1      25.892 -13.176  -4.898  0.00  0.00     0.334 C 
ATOM     14  N   UNL d   1      26.765 -14.150  -5.151  0.00  0.00    -0.351 N 
ATOM     15  O   UNL d   1      25.907 -12.094  -5.490  0.00  0.00    -0.246 OA
ATOM     16  H   UNL d   1      26.669 -15.006  -4.627  0.00  0.00     0.160 HD
ATOM     17  H   UNL d   1      27.461 -14.001  -5.862  0.00  0.00     0.160 HD
ATOM     18  H   UNL d   1      24.406 -12.595  -3.891  0.00  0.00     0.194 HD
ENDBRANCH   2  12
TORSDOF 4
ENDMDL
MODEL 9
REMARK VINA RESULT:    -5.196      3.695      4.534
REMARK INTER + INTRA:          -7.038
REMARK INTER:                  -6.389
REMARK INTRA:                  -0.649
REMARK CONF_INDEPENDENT:        1.193
REMARK UNBOUND:                -0.649
REMARK  4 active torsions:
REMARK  status: ('A' for Active; 'I' for Inactive)
REMARK    1  A    between atoms: C_2  and  C_3 
REMARK    2  A    between atoms: C_3  and  C_4 
REMARK    3  A    between atoms: C_4  and  C_10 
REMARK    4  A    between atoms: N_5  and  N_6 
REMARK       I    between atoms: N_6  and  C_7 
REMARK       I    between atoms: C_7  and  N_8 
ROOT
ATOM      1  C   UNL d   1      26.240 -16.263  -1.179  0.00  0.00     0.060 C 
ATOM      2  N   UNL d   1      27.209 -17.060  -1.592  0.00  0.00    -0.175 NA
ENDROOT
BRANCH   1   3
ATOM      3  C   UNL d   1      26.279 -14.736  -0.916  0.00  0.00     0.061 C 
BRANCH   3   4
ATOM      4  C   UNL d   1      27.007 -14.315   0.337  0.00  0.00     0.002 C 
ATOM      5  C   UNL d   1      27.749 -15.338   1.140  0.00  0.00     0.005 C 
ENDBRANCH   3   4
ENDBRANCH   1   3
BRANCH   1   6
ATOM      6  C   UNL d   1      24.888 -16.912  -0.892  0.00  0.00    -0.035 C 
ATOM      7  C   UNL d   1      24.895 -18.148  -0.362  0.00  0.00    -0.018 C 
ATOM      8  C   UNL d   1      23.651 -18.962  -0.145  0.00  0.00     0.028 C 
ATOM      9  C   UNL d   1      22.439 -18.405  -0.892  0.00  0.00     0.004 C 
ATOM     10  C   UNL d   1      22.339 -16.897  -0.707  0.00  0.00     0.005 C 
ATOM     11  C   UNL d   1      23.603 -16.191  -1.228  0.00  0.00     0.040 C 
ENDBRANCH   1   6
BRANCH   2  12
ATOM     12  N   UNL d   1      28.462 -16.599  -1.870  0.00  0.00    -0.229 N 
ATOM     13  C   UNL d   1      29.621 -16.842  -1.223  0.00  0.00     0.334 C 
ATOM     14  N   UNL d   1      29.561 -17.627  -0.148  0.00  0.00    -0.351 N 
ATOM     15  O   UNL d   1      30.673 -16.344  -1.630  0.00  0.00    -0.246 OA
ATOM     16  H   UNL d   1      28.659 -18.000   0.104  0.00  0.00     0.160 HD
ATOM     17  H   UNL d   1      30.413 -17.832   0.346  0.00  0.00     0.160 HD
ATOM     18  H   UNL d   1      28.688 -16.005  -2.633  0.00  0.00     0.194 HD
ENDBRANCH   2  12
TORSDOF 4
ENDMDL
