MODEL 1
REMARK VINA RESULT:   -29.447      0.000      0.000
REMARK INTER + INTRA:         -34.099
REMARK INTER:                 -32.729
REMARK INTRA:                  -1.371
REMARK CONF_INDEPENDENT:        3.281
REMARK UNBOUND:                -1.371
REMARK  11 active torsions:
REMARK  status: ('A' for Active; 'I' for Inactive)
REMARK    1  A    between atoms: C_2  and  C_3 
REMARK    2  A    between atoms: C_3  and  C_4 
REMARK    3  A    between atoms: C_4  and  S_5 
REMARK    4  A    between atoms: S_5  and  C_6 
REMARK    5  A    between atoms: C_9  and  C_10 
REMARK       I    between atoms: C_10  and  N_12 
REMARK    6  A    between atoms: N_12  and  C_13 
REMARK    7  A    between atoms: C_13  and  C_14 
REMARK    8  A    between atoms: C_14  and  C_15 
REMARK    9  A    between atoms: C_14  and  N_25 
REMARK   10  A    between atoms: C_17  and  O_18 
REMARK   11  A    between atoms: C_22  and  O_23 
ROOT
ATOM      1  C   UNL d   1      26.063 -15.279  -2.695  0.00  0.00     0.241 C 
ENDROOT
BRANCH   1   2
ATOM      2  C   UNL d   1      24.691 -14.950  -1.990  0.00  0.00     0.161 C 
BRANCH   2   3
ATOM      3  N   UNL d   1      23.967 -16.146  -1.540  0.00  0.00    -0.354 N 
ATOM      4  C   UNL d   1      22.620 -16.140  -1.267  0.00  0.00     0.256 C 
ATOM      5  O   UNL d   1      21.977 -15.080  -1.317  0.00  0.00    -0.268 OA
ATOM      6  H   UNL d   1      24.446 -17.046  -1.550  0.00  0.00     0.162 HD
BRANCH   4   7
ATOM      7  C   UNL d   1      21.945 -17.410  -0.897  0.00  0.00     0.090 A 
ATOM      8  C   UNL d   1      20.632 -17.611  -1.269  0.00  0.00     0.139 A 
ATOM      9  N   UNL d   1      19.905 -18.711  -0.943  0.00  0.00    -0.234 NA
ATOM     10  C   UNL d   1      20.516 -19.656  -0.212  0.00  0.00     0.189 A 
ATOM     11  N   UNL d   1      21.788 -19.578   0.187  0.00  0.00    -0.210 NA
ATOM     12  C   UNL d   1      22.464 -18.464  -0.172  0.00  0.00     0.146 A 
ATOM     13 CL   UNL d   1      24.091 -18.539   0.408  0.00  0.00    -0.061 Cl
BRANCH  10  14
ATOM     14  S   UNL d   1      19.659 -21.179   0.081  0.00  0.00    -0.090 SA
BRANCH  14  15
ATOM     15  C   UNL d   1      18.130 -20.589   0.891  0.00  0.00     0.082 C 
BRANCH  15  16
ATOM     16  C   UNL d   1      18.512 -19.798   2.149  0.00  0.00     0.010 C 
BRANCH  16  17
ATOM     17  C   UNL d   1      19.915 -20.152   2.653  0.00  0.00    -0.004 C 
ATOM     18  C   UNL d   1      19.855 -20.853   4.003  0.00  0.00     0.005 C 
ENDBRANCH  16  17
ENDBRANCH  15  16
ENDBRANCH  14  15
ENDBRANCH  10  14
ENDBRANCH   4   7
ENDBRANCH   2   3
ENDBRANCH   1   2
BRANCH   1  19
ATOM     19  C   UNL d   1      26.518 -14.190  -3.727  0.00  0.00     0.010 C 
ATOM     20  C   UNL d   1      25.985 -12.864  -3.654  0.00  0.00     0.049 C 
ATOM     21  C   UNL d   1      26.310 -11.865  -4.593  0.00  0.00     0.069 C 
ATOM     22  C   UNL d   1      27.340 -12.090  -5.487  0.00  0.00     0.039 C 
ATOM     23  C   UNL d   1      27.866 -13.356  -5.602  0.00  0.00     0.040 C 
ATOM     24  C   UNL d   1      27.364 -14.417  -4.847  0.00  0.00     0.076 C 
BRANCH  21  25
ATOM     25  O   UNL d   1      25.551 -10.723  -4.587  0.00  0.00    -0.356 OA
ATOM     26  C   UNL d   1      25.763  -9.855  -5.711  0.00  0.00     0.210 C 
ENDBRANCH  21  25
BRANCH  24  27
ATOM     27  O   UNL d   1      27.766 -15.571  -5.482  0.00  0.00    -0.355 OA
ATOM     28  C   UNL d   1      29.116 -15.705  -5.767  0.00  0.00     0.210 C 
ENDBRANCH  24  27
ENDBRANCH   1  19
BRANCH   1  29
ATOM     29  N   UNL d   1      27.246 -15.769  -1.578  0.00  0.00    -0.061 N 
ATOM     30  C   UNL d   1      26.932 -17.127  -0.984  0.00  0.00     0.236 C 
ATOM     31  C   UNL d   1      28.034 -17.546  -0.014  0.00  0.00     0.028 C 
ATOM     32  C   UNL d   1      29.388 -17.666  -0.699  0.00  0.00     0.003 C 
ATOM     33  C   UNL d   1      29.792 -16.271  -1.066  0.00  0.00     0.028 C 
ATOM     34  C   UNL d   1      28.752 -15.784  -2.029  0.00  0.00     0.236 C 
ATOM     35  H   UNL d   1      27.180 -15.051  -0.847  0.00  0.00     0.280 HD
ENDBRANCH   1  29
TORSDOF 11
ENDMDL
MODEL 2
REMARK VINA RESULT:   -29.108      1.868      3.060
REMARK INTER + INTRA:         -33.750
REMARK INTER:                 -32.389
REMARK INTRA:                  -1.361
REMARK CONF_INDEPENDENT:        3.281
REMARK UNBOUND:                -1.361
REMARK  11 active torsions:
REMARK  status: ('A' for Active; 'I' for Inactive)
REMARK    1  A    between atoms: C_2  and  C_3 
REMARK    2  A    between atoms: C_3  and  C_4 
REMARK    3  A    between atoms: C_4  and  S_5 
REMARK    4  A    between atoms: S_5  and  C_6 
REMARK    5  A    between atoms: C_9  and  C_10 
REMARK       I    between atoms: C_10  and  N_12 
REMARK    6  A    between atoms: N_12  and  C_13 
REMARK    7  A    between atoms: C_13  and  C_14 
REMARK    8  A    between atoms: C_14  and  C_15 
REMARK    9  A    between atoms: C_14  and  N_25 
REMARK   10  A    between atoms: C_17  and  O_18 
REMARK   11  A    between atoms: C_22  and  O_23 
ROOT
ATOM      1  C   UNL d   1      26.370 -15.330  -1.919  0.00  0.00     0.241 C 
ENDROOT
BRANCH   1   2
ATOM      2  C   UNL d   1      24.809 -15.107  -1.961  0.00  0.00     0.161 C 
BRANCH   2   3
ATOM      3  N   UNL d   1      24.044 -16.267  -1.484  0.00  0.00    -0.354 N 
ATOM      4  C   UNL d   1      22.687 -16.223  -1.271  0.00  0.00     0.256 C 
ATOM      5  O   UNL d   1      22.067 -15.157  -1.403  0.00  0.00    -0.268 OA
ATOM      6  H   UNL d   1      24.506 -17.174  -1.427  0.00  0.00     0.162 HD
BRANCH   4   7
ATOM      7  C   UNL d   1      21.973 -17.461  -0.868  0.00  0.00     0.090 A 
ATOM      8  C   UNL d   1      20.666 -17.649  -1.268  0.00  0.00     0.139 A 
ATOM      9  N   UNL d   1      19.905 -18.718  -0.917  0.00  0.00    -0.234 NA
ATOM     10  C   UNL d   1      20.473 -19.644  -0.130  0.00  0.00     0.189 A 
ATOM     11  N   UNL d   1      21.736 -19.577   0.300  0.00  0.00    -0.210 NA
ATOM     12  C   UNL d   1      22.447 -18.496  -0.085  0.00  0.00     0.146 A 
ATOM     13 CL   UNL d   1      24.055 -18.582   0.543  0.00  0.00    -0.061 Cl
BRANCH  10  14
ATOM     14  S   UNL d   1      19.574 -21.134   0.201  0.00  0.00    -0.090 SA
BRANCH  14  15
ATOM     15  C   UNL d   1      18.043 -20.478   0.956  0.00  0.00     0.082 C 
BRANCH  15  16
ATOM     16  C   UNL d   1      18.362 -19.994   2.377  0.00  0.00     0.010 C 
BRANCH  16  17
ATOM     17  C   UNL d   1      19.758 -20.428   2.837  0.00  0.00    -0.004 C 
ATOM     18  C   UNL d   1      19.752 -20.831   4.306  0.00  0.00     0.005 C 
ENDBRANCH  16  17
ENDBRANCH  15  16
ENDBRANCH  14  15
ENDBRANCH  10  14
ENDBRANCH   4   7
ENDBRANCH   2   3
ENDBRANCH   1   2
BRANCH   1  19
ATOM     19  C   UNL d   1      27.060 -15.224  -3.323  0.00  0.00     0.010 C 
ATOM     20  C   UNL d   1      28.482 -15.342  -3.436  0.00  0.00     0.049 C 
ATOM     21  C   UNL d   1      29.158 -15.190  -4.662  0.00  0.00     0.069 C 
ATOM     22  C   UNL d   1      28.427 -15.145  -5.834  0.00  0.00     0.039 C 
ATOM     23  C   UNL d   1      27.059 -15.012  -5.770  0.00  0.00     0.040 C 
ATOM     24  C   UNL d   1      26.403 -14.901  -4.543  0.00  0.00     0.076 C 
BRANCH  21  25
ATOM     25  O   UNL d   1      30.523 -15.060  -4.618  0.00  0.00    -0.356 OA
ATOM     26  C   UNL d   1      31.135 -15.568  -3.422  0.00  0.00     0.210 C 
ENDBRANCH  21  25
BRANCH  24  27
ATOM     27  O   UNL d   1      25.168 -14.355  -4.810  0.00  0.00    -0.355 OA
ATOM     28  C   UNL d   1      25.026 -12.986  -4.641  0.00  0.00     0.210 C 
ENDBRANCH  24  27
ENDBRANCH   1  19
BRANCH   1  29
ATOM     29  N   UNL d   1      27.103 -14.434  -0.674  0.00  0.00    -0.061 N 
ATOM     30  C   UNL d   1      26.646 -12.990  -0.675  0.00  0.00     0.236 C 
ATOM     31  C   UNL d   1      27.300 -12.230   0.477  0.00  0.00     0.028 C 
ATOM     32  C   UNL d   1      26.927 -12.810   1.834  0.00  0.00     0.003 C 
ATOM     33  C   UNL d   1      27.595 -14.150   1.909  0.00  0.00     0.028 C 
ATOM     34  C   UNL d   1      27.000 -14.966   0.802  0.00  0.00     0.236 C 
ATOM     35  H   UNL d   1      28.100 -14.479  -0.919  0.00  0.00     0.280 HD
ENDBRANCH   1  29
TORSDOF 11
ENDMDL
MODEL 3
REMARK VINA RESULT:   -28.667      2.051      3.131
REMARK INTER + INTRA:         -33.275
REMARK INTER:                 -31.948
REMARK INTRA:                  -1.327
REMARK CONF_INDEPENDENT:        3.281
REMARK UNBOUND:                -1.327
REMARK  11 active torsions:
REMARK  status: ('A' for Active; 'I' for Inactive)
REMARK    1  A    between atoms: C_2  and  C_3 
REMARK    2  A    between atoms: C_3  and  C_4 
REMARK    3  A    between atoms: C_4  and  S_5 
REMARK    4  A    between atoms: S_5  and  C_6 
REMARK    5  A    between atoms: C_9  and  C_10 
REMARK       I    between atoms: C_10  and  N_12 
REMARK    6  A    between atoms: N_12  and  C_13 
REMARK    7  A    between atoms: C_13  and  C_14 
REMARK    8  A    between atoms: C_14  and  C_15 
REMARK    9  A    between atoms: C_14  and  N_25 
REMARK   10  A    between atoms: C_17  and  O_18 
REMARK   11  A    between atoms: C_22  and  O_23 
ROOT
ATOM      1  C   UNL d   1      26.318 -15.068  -1.333  0.00  0.00     0.241 C 
ENDROOT
BRANCH   1   2
ATOM      2  C   UNL d   1      24.846 -15.098  -1.900  0.00  0.00     0.161 C 
BRANCH   2   3
ATOM      3  N   UNL d   1      24.072 -16.260  -1.446  0.00  0.00    -0.354 N 
ATOM      4  C   UNL d   1      22.710 -16.221  -1.268  0.00  0.00     0.256 C 
ATOM      5  O   UNL d   1      22.091 -15.157  -1.413  0.00  0.00    -0.268 OA
ATOM      6  H   UNL d   1      24.535 -17.167  -1.380  0.00  0.00     0.162 HD
BRANCH   4   7
ATOM      7  C   UNL d   1      21.989 -17.462  -0.886  0.00  0.00     0.090 A 
ATOM      8  C   UNL d   1      20.671 -17.621  -1.261  0.00  0.00     0.139 A 
ATOM      9  N   UNL d   1      19.904 -18.690  -0.924  0.00  0.00    -0.234 NA
ATOM     10  C   UNL d   1      20.478 -19.648  -0.181  0.00  0.00     0.189 A 
ATOM     11  N   UNL d   1      21.752 -19.611   0.221  0.00  0.00    -0.210 NA
ATOM     12  C   UNL d   1      22.468 -18.526  -0.148  0.00  0.00     0.146 A 
ATOM     13 CL   UNL d   1      24.089 -18.653   0.439  0.00  0.00    -0.061 Cl
BRANCH  10  14
ATOM     14  S   UNL d   1      19.567 -21.136   0.126  0.00  0.00    -0.090 SA
BRANCH  14  15
ATOM     15  C   UNL d   1      18.033 -20.479   0.873  0.00  0.00     0.082 C 
BRANCH  15  16
ATOM     16  C   UNL d   1      18.324 -20.082   2.327  0.00  0.00     0.010 C 
BRANCH  16  17
ATOM     17  C   UNL d   1      19.776 -20.365   2.726  0.00  0.00    -0.004 C 
ATOM     18  C   UNL d   1      19.869 -20.821   4.176  0.00  0.00     0.005 C 
ENDBRANCH  16  17
ENDBRANCH  15  16
ENDBRANCH  14  15
ENDBRANCH  10  14
ENDBRANCH   4   7
ENDBRANCH   2   3
ENDBRANCH   1   2
BRANCH   1  19
ATOM     19  C   UNL d   1      27.401 -15.537  -2.366  0.00  0.00     0.010 C 
ATOM     20  C   UNL d   1      27.336 -15.095  -3.725  0.00  0.00     0.049 C 
ATOM     21  C   UNL d   1      28.244 -15.536  -4.708  0.00  0.00     0.069 C 
ATOM     22  C   UNL d   1      29.367 -16.242  -4.319  0.00  0.00     0.039 C 
ATOM     23  C   UNL d   1      29.459 -16.702  -3.026  0.00  0.00     0.040 C 
ATOM     24  C   UNL d   1      28.430 -16.485  -2.109  0.00  0.00     0.076 C 
BRANCH  21  25
ATOM     25  O   UNL d   1      27.938 -15.264  -6.017  0.00  0.00    -0.356 OA
ATOM     26  C   UNL d   1      28.159 -13.902  -6.414  0.00  0.00     0.210 C 
ENDBRANCH  21  25
BRANCH  24  27
ATOM     27  O   UNL d   1      28.609 -17.403  -1.099  0.00  0.00    -0.355 OA
ATOM     28  C   UNL d   1      27.489 -17.779  -0.373  0.00  0.00     0.210 C 
ENDBRANCH  24  27
ENDBRANCH   1  19
BRANCH   1  29
ATOM     29  N   UNL d   1      26.656 -13.610  -0.529  0.00  0.00    -0.061 N 
ATOM     30  C   UNL d   1      26.205 -13.645   0.916  0.00  0.00     0.236 C 
ATOM     31  C   UNL d   1      26.557 -12.332   1.611  0.00  0.00     0.028 C 
ATOM     32  C   UNL d   1      28.056 -12.072   1.624  0.00  0.00     0.003 C 
ATOM     33  C   UNL d   1      28.441 -11.800   0.201  0.00  0.00     0.028 C 
ATOM     34  C   UNL d   1      28.127 -13.055  -0.555  0.00  0.00     0.236 C 
ATOM     35  H   UNL d   1      26.091 -12.927  -1.049  0.00  0.00     0.280 HD
ENDBRANCH   1  29
TORSDOF 11
ENDMDL
MODEL 4
REMARK VINA RESULT:   -28.660      1.276      2.373
REMARK INTER + INTRA:         -33.584
REMARK INTER:                 -31.941
REMARK INTRA:                  -1.642
REMARK CONF_INDEPENDENT:        3.281
REMARK UNBOUND:                -1.642
REMARK  11 active torsions:
REMARK  status: ('A' for Active; 'I' for Inactive)
REMARK    1  A    between atoms: C_2  and  C_3 
REMARK    2  A    between atoms: C_3  and  C_4 
REMARK    3  A    between atoms: C_4  and  S_5 
REMARK    4  A    between atoms: S_5  and  C_6 
REMARK    5  A    between atoms: C_9  and  C_10 
REMARK       I    between atoms: C_10  and  N_12 
REMARK    6  A    between atoms: N_12  and  C_13 
REMARK    7  A    between atoms: C_13  and  C_14 
REMARK    8  A    between atoms: C_14  and  C_15 
REMARK    9  A    between atoms: C_14  and  N_25 
REMARK   10  A    between atoms: C_17  and  O_18 
REMARK   11  A    between atoms: C_22  and  O_23 
ROOT
ATOM      1  C   UNL d   1      26.259 -15.524  -2.465  0.00  0.00     0.241 C 
ENDROOT
BRANCH   1   2
ATOM      2  C   UNL d   1      24.771 -15.181  -2.070  0.00  0.00     0.161 C 
BRANCH   2   3
ATOM      3  N   UNL d   1      24.016 -16.342  -1.585  0.00  0.00    -0.354 N 
ATOM      4  C   UNL d   1      22.680 -16.280  -1.268  0.00  0.00     0.256 C 
ATOM      5  O   UNL d   1      22.079 -15.196  -1.309  0.00  0.00    -0.268 OA
ATOM      6  H   UNL d   1      24.458 -17.261  -1.600  0.00  0.00     0.162 HD
BRANCH   4   7
ATOM      7  C   UNL d   1      21.968 -17.518  -0.863  0.00  0.00     0.090 A 
ATOM      8  C   UNL d   1      20.664 -17.713  -1.270  0.00  0.00     0.139 A 
ATOM      9  N   UNL d   1      19.905 -18.782  -0.918  0.00  0.00    -0.234 NA
ATOM     10  C   UNL d   1      20.472 -19.703  -0.124  0.00  0.00     0.189 A 
ATOM     11  N   UNL d   1      21.732 -19.630   0.314  0.00  0.00    -0.210 NA
ATOM     12  C   UNL d   1      22.442 -18.547  -0.073  0.00  0.00     0.146 A 
ATOM     13 CL   UNL d   1      24.047 -18.625   0.565  0.00  0.00    -0.061 Cl
BRANCH  10  14
ATOM     14  S   UNL d   1      19.576 -21.194   0.210  0.00  0.00    -0.090 SA
BRANCH  14  15
ATOM     15  C   UNL d   1      18.095 -20.548   1.067  0.00  0.00     0.082 C 
BRANCH  15  16
ATOM     16  C   UNL d   1      18.538 -19.865   2.367  0.00  0.00     0.010 C 
BRANCH  16  17
ATOM     17  C   UNL d   1      19.868 -20.417   2.889  0.00  0.00    -0.004 C 
ATOM     18  C   UNL d   1      19.758 -20.827   4.352  0.00  0.00     0.005 C 
ENDBRANCH  16  17
ENDBRANCH  15  16
ENDBRANCH  14  15
ENDBRANCH  10  14
ENDBRANCH   4   7
ENDBRANCH   2   3
ENDBRANCH   1   2
BRANCH   1  19
ATOM     19  C   UNL d   1      26.866 -14.556  -3.540  0.00  0.00     0.010 C 
ATOM     20  C   UNL d   1      27.206 -15.049  -4.839  0.00  0.00     0.049 C 
ATOM     21  C   UNL d   1      27.813 -14.240  -5.820  0.00  0.00     0.069 C 
ATOM     22  C   UNL d   1      27.886 -12.874  -5.615  0.00  0.00     0.039 C 
ATOM     23  C   UNL d   1      27.587 -12.363  -4.375  0.00  0.00     0.040 C 
ATOM     24  C   UNL d   1      27.231 -13.200  -3.316  0.00  0.00     0.076 C 
BRANCH  21  25
ATOM     25  O   UNL d   1      28.333 -14.867  -6.923  0.00  0.00    -0.356 OA
ATOM     26  C   UNL d   1      29.759 -15.029  -6.904  0.00  0.00     0.210 C 
ENDBRANCH  21  25
BRANCH  24  27
ATOM     27  O   UNL d   1      27.426 -12.474  -2.163  0.00  0.00    -0.355 OA
ATOM     28  C   UNL d   1      28.209 -11.334  -2.252  0.00  0.00     0.210 C 
ENDBRANCH  24  27
ENDBRANCH   1  19
BRANCH   1  29
ATOM     29  N   UNL d   1      27.229 -15.798  -1.097  0.00  0.00    -0.061 N 
ATOM     30  C   UNL d   1      28.642 -16.191  -1.477  0.00  0.00     0.236 C 
ATOM     31  C   UNL d   1      29.489 -16.395  -0.223  0.00  0.00     0.028 C 
ATOM     32  C   UNL d   1      29.594 -15.126   0.612  0.00  0.00     0.003 C 
ATOM     33  C   UNL d   1      28.226 -14.889   1.178  0.00  0.00     0.028 C 
ATOM     34  C   UNL d   1      27.326 -14.675  -0.001  0.00  0.00     0.236 C 
ATOM     35  H   UNL d   1      26.762 -16.592  -0.643  0.00  0.00     0.280 HD
ENDBRANCH   1  29
TORSDOF 11
ENDMDL
MODEL 5
REMARK VINA RESULT:   -27.377      1.840      4.045
REMARK INTER + INTRA:         -31.946
REMARK INTER:                 -30.659
REMARK INTRA:                  -1.287
REMARK CONF_INDEPENDENT:        3.281
REMARK UNBOUND:                -1.287
REMARK  11 active torsions:
REMARK  status: ('A' for Active; 'I' for Inactive)
REMARK    1  A    between atoms: C_2  and  C_3 
REMARK    2  A    between atoms: C_3  and  C_4 
REMARK    3  A    between atoms: C_4  and  S_5 
REMARK    4  A    between atoms: S_5  and  C_6 
REMARK    5  A    between atoms: C_9  and  C_10 
REMARK       I    between atoms: C_10  and  N_12 
REMARK    6  A    between atoms: N_12  and  C_13 
REMARK    7  A    between atoms: C_13  and  C_14 
REMARK    8  A    between atoms: C_14  and  C_15 
REMARK    9  A    between atoms: C_14  and  N_25 
REMARK   10  A    between atoms: C_17  and  O_18 
REMARK   11  A    between atoms: C_22  and  O_23 
ROOT
ATOM      1  C   UNL d   1      25.918 -14.670  -1.183  0.00  0.00     0.241 C 
ENDROOT
BRANCH   1   2
ATOM      2  C   UNL d   1      24.682 -15.050  -2.088  0.00  0.00     0.161 C 
BRANCH   2   3
ATOM      3  N   UNL d   1      23.959 -16.237  -1.614  0.00  0.00    -0.354 N 
ATOM      4  C   UNL d   1      22.625 -16.210  -1.283  0.00  0.00     0.256 C 
ATOM      5  O   UNL d   1      21.999 -15.140  -1.300  0.00  0.00    -0.268 OA
ATOM      6  H   UNL d   1      24.422 -17.144  -1.650  0.00  0.00     0.162 HD
BRANCH   4   7
ATOM      7  C   UNL d   1      21.946 -17.471  -0.892  0.00  0.00     0.090 A 
ATOM      8  C   UNL d   1      20.636 -17.679  -1.270  0.00  0.00     0.139 A 
ATOM      9  N   UNL d   1      19.905 -18.771  -0.926  0.00  0.00    -0.234 NA
ATOM     10  C   UNL d   1      20.509 -19.701  -0.170  0.00  0.00     0.189 A 
ATOM     11  N   UNL d   1      21.779 -19.616   0.236  0.00  0.00    -0.210 NA
ATOM     12  C   UNL d   1      22.459 -18.511  -0.141  0.00  0.00     0.146 A 
ATOM     13 CL   UNL d   1      24.081 -18.576   0.453  0.00  0.00    -0.061 Cl
BRANCH  10  14
ATOM     14  S   UNL d   1      19.648 -21.217   0.147  0.00  0.00    -0.090 SA
BRANCH  14  15
ATOM     15  C   UNL d   1      18.028 -20.602   0.733  0.00  0.00     0.082 C 
BRANCH  15  16
ATOM     16  C   UNL d   1      18.210 -19.983   2.125  0.00  0.00     0.010 C 
BRANCH  16  17
ATOM     17  C   UNL d   1      19.501 -20.451   2.804  0.00  0.00    -0.004 C 
ATOM     18  C   UNL d   1      20.551 -19.347   2.810  0.00  0.00     0.005 C 
ENDBRANCH  16  17
ENDBRANCH  15  16
ENDBRANCH  14  15
ENDBRANCH  10  14
ENDBRANCH   4   7
ENDBRANCH   2   3
ENDBRANCH   1   2
BRANCH   1  19
ATOM     19  C   UNL d   1      27.129 -15.656  -1.324  0.00  0.00     0.010 C 
ATOM     20  C   UNL d   1      28.013 -15.553  -2.444  0.00  0.00     0.049 C 
ATOM     21  C   UNL d   1      29.077 -16.453  -2.654  0.00  0.00     0.069 C 
ATOM     22  C   UNL d   1      29.426 -17.330  -1.644  0.00  0.00     0.039 C 
ATOM     23  C   UNL d   1      28.593 -17.474  -0.559  0.00  0.00     0.040 C 
ATOM     24  C   UNL d   1      27.394 -16.764  -0.472  0.00  0.00     0.076 C 
BRANCH  21  25
ATOM     25  O   UNL d   1      29.692 -16.428  -3.879  0.00  0.00    -0.356 OA
ATOM     26  C   UNL d   1      28.958 -15.742  -4.905  0.00  0.00     0.210 C 
ENDBRANCH  21  25
BRANCH  24  27
ATOM     27  O   UNL d   1      26.616 -17.426   0.451  0.00  0.00    -0.355 OA
ATOM     28  C   UNL d   1      27.050 -18.673   0.874  0.00  0.00     0.210 C 
ENDBRANCH  24  27
ENDBRANCH   1  19
BRANCH   1  29
ATOM     29  N   UNL d   1      26.302 -13.019  -1.299  0.00  0.00    -0.061 N 
ATOM     30  C   UNL d   1      27.202 -12.570  -0.167  0.00  0.00     0.236 C 
ATOM     31  C   UNL d   1      27.551 -11.091  -0.326  0.00  0.00     0.028 C 
ATOM     32  C   UNL d   1      28.299 -10.813  -1.622  0.00  0.00     0.003 C 
ATOM     33  C   UNL d   1      27.310 -11.034  -2.726  0.00  0.00     0.028 C 
ATOM     34  C   UNL d   1      26.916 -12.477  -2.641  0.00  0.00     0.236 C 
ATOM     35  H   UNL d   1      25.384 -12.565  -1.209  0.00  0.00     0.280 HD
ENDBRANCH   1  29
TORSDOF 11
ENDMDL
