MODEL 1
REMARK VINA RESULT:    -7.537      0.000      0.000
REMARK INTER + INTRA:          -9.723
REMARK INTER:                  -8.431
REMARK INTRA:                  -1.292
REMARK CONF_INDEPENDENT:        0.895
REMARK UNBOUND:                -1.292
REMARK  3 active torsions:
REMARK  status: ('A' for Active; 'I' for Inactive)
REMARK    1  A    between atoms: C_9  and  N_10 
REMARK    2  A    between atoms: C_20  and  C_21 
REMARK    3  A    between atoms: C_26  and  N_27 
ROOT
ATOM      1  N   UNL d   1      28.358 -11.763  -0.778  0.00  0.00    -0.196 NA
ATOM      2  C   UNL d   1      28.766 -12.600  -1.489  0.00  0.00     0.074 C 
ATOM      3  C   UNL d   1      29.161 -13.689  -2.395  0.00  0.00     0.198 C 
ATOM      4  C   UNL d   1      29.575 -14.833  -1.510  0.00  0.00     0.242 C 
ATOM      5  O   UNL d   1      30.732 -15.232  -1.440  0.00  0.00    -0.272 OA
ATOM      6  N   UNL d   1      28.515 -15.355  -0.770  0.00  0.00    -0.309 N 
ATOM      7  C   UNL d   1      27.254 -15.556  -1.311  0.00  0.00     0.162 A 
ATOM      8  N   UNL d   1      26.329 -16.275  -0.582  0.00  0.00    -0.046 NA
ATOM      9  C   UNL d   1      25.201 -16.599  -1.158  0.00  0.00     0.707 A 
ATOM     10  N   UNL d   1      24.933 -16.209  -2.444  0.00  0.00    -0.154 N 
ATOM     11  C   UNL d   1      25.775 -15.468  -3.202  0.00  0.00     0.270 A 
ATOM     12  O   UNL d   1      25.492 -15.149  -4.351  0.00  0.00    -0.267 OA
ATOM     13  C   UNL d   1      27.035 -15.092  -2.549  0.00  0.00     0.067 A 
ATOM     14  C   UNL d   1      28.037 -14.252  -3.291  0.00  0.00     0.090 C 
ATOM     15  H   UNL d   1      28.726 -15.750   0.137  0.00  0.00     0.170 HD
ATOM     16  H   UNL d   1      24.033 -16.394  -2.855  0.00  0.00     0.187 HD
ENDROOT
BRANCH  14  17
ATOM     17  C   UNL d   1      27.387 -13.151  -4.112  0.00  0.00    -0.015 C 
ATOM     18  C   UNL d   1      26.642 -12.182  -3.403  0.00  0.00     0.010 C 
ATOM     19  C   UNL d   1      26.226 -11.008  -3.995  0.00  0.00     0.001 C 
ATOM     20  C   UNL d   1      26.129 -10.977  -5.369  0.00  0.00     0.002 C 
ATOM     21  C   UNL d   1      26.656 -12.025  -6.125  0.00  0.00     0.037 C 
ATOM     22  C   UNL d   1      27.396 -13.053  -5.514  0.00  0.00     0.110 C 
BRANCH  22  23
ATOM     23  N   UNL d   1      28.129 -13.980  -6.407  0.00  0.00    -0.115 N 
ATOM     24  O   UNL d   1      27.964 -15.195  -6.228  0.00  0.00    -0.532 OA
ATOM     25  O   UNL d   1      28.811 -13.524  -7.331  0.00  0.00    -0.532 OA
ENDBRANCH  22  23
ENDBRANCH  14  17
BRANCH   9  26
ATOM     26  N   UNL d   1      24.164 -17.296  -0.560  0.00  0.00    -0.216 N 
ATOM     27  C   UNL d   1      24.310 -18.618   0.065  0.00  0.00     0.141 C 
ATOM     28  C   UNL d   1      23.266 -19.578  -0.516  0.00  0.00     0.020 C 
ATOM     29  C   UNL d   1      21.848 -19.023  -0.371  0.00  0.00     0.003 C 
ATOM     30  C   UNL d   1      21.770 -17.586  -0.895  0.00  0.00     0.020 C 
ATOM     31  C   UNL d   1      22.863 -16.691  -0.285  0.00  0.00     0.141 C 
ENDBRANCH   9  26
TORSDOF 3
ENDMDL
MODEL 2
REMARK VINA RESULT:    -7.243      3.318      6.554
REMARK INTER + INTRA:          -9.376
REMARK INTER:                  -8.138
REMARK INTRA:                  -1.238
REMARK CONF_INDEPENDENT:        0.895
REMARK UNBOUND:                -1.238
REMARK  3 active torsions:
REMARK  status: ('A' for Active; 'I' for Inactive)
REMARK    1  A    between atoms: C_9  and  N_10 
REMARK    2  A    between atoms: C_20  and  C_21 
REMARK    3  A    between atoms: C_26  and  N_27 
ROOT
ATOM      1  N   UNL d   1      26.168 -13.292   1.464  0.00  0.00    -0.196 NA
ATOM      2  C   UNL d   1      26.655 -13.309   0.398  0.00  0.00     0.074 C 
ATOM      3  C   UNL d   1      27.319 -13.439  -0.908  0.00  0.00     0.198 C 
ATOM      4  C   UNL d   1      28.579 -12.624  -0.813  0.00  0.00     0.242 C 
ATOM      5  O   UNL d   1      28.755 -11.597  -1.460  0.00  0.00    -0.272 OA
ATOM      6  N   UNL d   1      29.493 -13.146   0.102  0.00  0.00    -0.309 N 
ATOM      7  C   UNL d   1      29.752 -14.504   0.206  0.00  0.00     0.162 A 
ATOM      8  N   UNL d   1      30.820 -14.917   0.976  0.00  0.00    -0.046 NA
ATOM      9  C   UNL d   1      31.158 -16.180   0.943  0.00  0.00     0.707 A 
ATOM     10  N   UNL d   1      30.450 -17.076   0.187  0.00  0.00    -0.154 N 
ATOM     11  C   UNL d   1      29.368 -16.750  -0.559  0.00  0.00     0.270 A 
ATOM     12  O   UNL d   1      28.770 -17.588  -1.225  0.00  0.00    -0.267 OA
ATOM     13  C   UNL d   1      28.980 -15.334  -0.510  0.00  0.00     0.067 A 
ATOM     14  C   UNL d   1      27.780 -14.863  -1.284  0.00  0.00     0.090 C 
ATOM     15  H   UNL d   1      30.101 -12.495   0.582  0.00  0.00     0.170 HD
ATOM     16  H   UNL d   1      30.665 -18.058   0.226  0.00  0.00     0.187 HD
ENDROOT
BRANCH  14  17
ATOM     17  C   UNL d   1      26.623 -15.846  -1.229  0.00  0.00    -0.015 C 
ATOM     18  C   UNL d   1      26.474 -16.590  -0.036  0.00  0.00     0.010 C 
ATOM     19  C   UNL d   1      25.331 -17.315   0.230  0.00  0.00     0.001 C 
ATOM     20  C   UNL d   1      24.542 -17.691  -0.835  0.00  0.00     0.002 C 
ATOM     21  C   UNL d   1      24.782 -17.153  -2.100  0.00  0.00     0.037 C 
ATOM     22  C   UNL d   1      25.738 -16.137  -2.281  0.00  0.00     0.110 C 
BRANCH  22  23
ATOM     23  N   UNL d   1      25.752 -15.450  -3.593  0.00  0.00    -0.115 N 
ATOM     24  O   UNL d   1      24.795 -14.711  -3.861  0.00  0.00    -0.532 OA
ATOM     25  O   UNL d   1      26.732 -15.575  -4.336  0.00  0.00    -0.532 OA
ENDBRANCH  22  23
ENDBRANCH  14  17
BRANCH   9  26
ATOM     26  N   UNL d   1      32.187 -16.755   1.671  0.00  0.00    -0.216 N 
ATOM     27  C   UNL d   1      33.150 -15.996   2.480  0.00  0.00     0.141 C 
ATOM     28  C   UNL d   1      34.577 -16.390   2.080  0.00  0.00     0.020 C 
ATOM     29  C   UNL d   1      34.795 -17.900   2.186  0.00  0.00     0.003 C 
ATOM     30  C   UNL d   1      33.685 -18.662   1.457  0.00  0.00     0.020 C 
ATOM     31  C   UNL d   1      32.285 -18.196   1.893  0.00  0.00     0.141 C 
ENDBRANCH   9  26
TORSDOF 3
ENDMDL
MODEL 3
REMARK VINA RESULT:    -7.200      1.897      2.825
REMARK INTER + INTRA:          -9.759
REMARK INTER:                  -8.095
REMARK INTRA:                  -1.664
REMARK CONF_INDEPENDENT:        0.895
REMARK UNBOUND:                -1.664
REMARK  3 active torsions:
REMARK  status: ('A' for Active; 'I' for Inactive)
REMARK    1  A    between atoms: C_9  and  N_10 
REMARK    2  A    between atoms: C_20  and  C_21 
REMARK    3  A    between atoms: C_26  and  N_27 
ROOT
ATOM      1  N   UNL d   1      29.631 -12.637  -3.088  0.00  0.00    -0.196 NA
ATOM      2  C   UNL d   1      29.114 -13.119  -4.023  0.00  0.00     0.074 C 
ATOM      3  C   UNL d   1      28.359 -13.725  -5.131  0.00  0.00     0.198 C 
ATOM      4  C   UNL d   1      28.618 -15.204  -5.045  0.00  0.00     0.242 C 
ATOM      5  O   UNL d   1      29.258 -15.816  -5.894  0.00  0.00    -0.272 OA
ATOM      6  N   UNL d   1      28.083 -15.781  -3.894  0.00  0.00    -0.309 N 
ATOM      7  C   UNL d   1      26.826 -15.452  -3.409  0.00  0.00     0.162 A 
ATOM      8  N   UNL d   1      26.284 -16.221  -2.399  0.00  0.00    -0.046 NA
ATOM      9  C   UNL d   1      25.041 -16.009  -2.056  0.00  0.00     0.707 A 
ATOM     10  N   UNL d   1      24.303 -15.028  -2.664  0.00  0.00    -0.154 N 
ATOM     11  C   UNL d   1      24.781 -14.209  -3.631  0.00  0.00     0.270 A 
ATOM     12  O   UNL d   1      24.079 -13.349  -4.149  0.00  0.00    -0.267 OA
ATOM     13  C   UNL d   1      26.183 -14.438  -4.004  0.00  0.00     0.067 A 
ATOM     14  C   UNL d   1      26.825 -13.574  -5.054  0.00  0.00     0.090 C 
ATOM     15  H   UNL d   1      28.562 -16.582  -3.504  0.00  0.00     0.170 HD
ATOM     16  H   UNL d   1      23.373 -14.817  -2.343  0.00  0.00     0.187 HD
ENDROOT
BRANCH  14  17
ATOM     17  C   UNL d   1      26.423 -12.113  -4.938  0.00  0.00    -0.015 C 
ATOM     18  C   UNL d   1      26.106 -11.441  -6.141  0.00  0.00     0.010 C 
ATOM     19  C   UNL d   1      25.489 -10.208  -6.143  0.00  0.00     0.001 C 
ATOM     20  C   UNL d   1      25.597  -9.430  -5.011  0.00  0.00     0.002 C 
ATOM     21  C   UNL d   1      26.114  -9.980  -3.838  0.00  0.00     0.037 C 
ATOM     22  C   UNL d   1      26.413 -11.352  -3.756  0.00  0.00     0.110 C 
BRANCH  22  23
ATOM     23  N   UNL d   1      26.715 -11.898  -2.413  0.00  0.00    -0.115 N 
ATOM     24  O   UNL d   1      27.731 -11.478  -1.841  0.00  0.00    -0.532 OA
ATOM     25  O   UNL d   1      25.924 -12.685  -1.883  0.00  0.00    -0.532 OA
ENDBRANCH  22  23
ENDBRANCH  14  17
BRANCH   9  26
ATOM     26  N   UNL d   1      24.359 -16.677  -1.052  0.00  0.00    -0.216 N 
ATOM     27  C   UNL d   1      24.980 -17.640  -0.131  0.00  0.00     0.141 C 
ATOM     28  C   UNL d   1      24.184 -18.949  -0.145  0.00  0.00     0.020 C 
ATOM     29  C   UNL d   1      22.707 -18.713   0.175  0.00  0.00     0.003 C 
ATOM     30  C   UNL d   1      22.132 -17.596  -0.701  0.00  0.00     0.020 C 
ATOM     31  C   UNL d   1      22.998 -16.325  -0.655  0.00  0.00     0.141 C 
ENDBRANCH   9  26
TORSDOF 3
ENDMDL
MODEL 4
REMARK VINA RESULT:    -7.076      3.726      5.532
REMARK INTER + INTRA:          -9.088
REMARK INTER:                  -7.971
REMARK INTRA:                  -1.117
REMARK CONF_INDEPENDENT:        0.895
REMARK UNBOUND:                -1.117
REMARK  3 active torsions:
REMARK  status: ('A' for Active; 'I' for Inactive)
REMARK    1  A    between atoms: C_9  and  N_10 
REMARK    2  A    between atoms: C_20  and  C_21 
REMARK    3  A    between atoms: C_26  and  N_27 
ROOT
ATOM      1  N   UNL d   1      29.604 -16.846  -2.183  0.00  0.00    -0.196 NA
ATOM      2  C   UNL d   1      28.451 -16.742  -1.996  0.00  0.00     0.074 C 
ATOM      3  C   UNL d   1      27.030 -16.506  -1.700  0.00  0.00     0.198 C 
ATOM      4  C   UNL d   1      26.721 -17.330  -0.480  0.00  0.00     0.242 C 
ATOM      5  O   UNL d   1      25.972 -18.300  -0.507  0.00  0.00    -0.272 OA
ATOM      6  N   UNL d   1      27.398 -16.888   0.656  0.00  0.00    -0.309 N 
ATOM      7  C   UNL d   1      27.537 -15.544   0.968  0.00  0.00     0.162 A 
ATOM      8  N   UNL d   1      28.024 -15.200   2.212  0.00  0.00    -0.046 NA
ATOM      9  C   UNL d   1      28.003 -13.940   2.561  0.00  0.00     0.707 A 
ATOM     10  N   UNL d   1      27.536 -12.982   1.700  0.00  0.00    -0.154 N 
ATOM     11  C   UNL d   1      27.083 -13.242   0.451  0.00  0.00     0.270 A 
ATOM     12  O   UNL d   1      26.669 -12.349  -0.281  0.00  0.00    -0.267 OA
ATOM     13  C   UNL d   1      27.121 -14.655   0.054  0.00  0.00     0.067 A 
ATOM     14  C   UNL d   1      26.660 -15.057  -1.319  0.00  0.00     0.090 C 
ATOM     15  H   UNL d   1      27.645 -17.579   1.353  0.00  0.00     0.170 HD
ATOM     16  H   UNL d   1      27.595 -12.007   1.942  0.00  0.00     0.187 HD
ENDROOT
BRANCH  14  17
ATOM     17  C   UNL d   1      27.098 -14.078  -2.395  0.00  0.00    -0.015 C 
ATOM     18  C   UNL d   1      28.304 -13.376  -2.166  0.00  0.00     0.010 C 
ATOM     19  C   UNL d   1      28.931 -12.662  -3.166  0.00  0.00     0.001 C 
ATOM     20  C   UNL d   1      28.172 -12.252  -4.239  0.00  0.00     0.002 C 
ATOM     21  C   UNL d   1      26.877 -12.746  -4.403  0.00  0.00     0.037 C 
ATOM     22  C   UNL d   1      26.378 -13.753  -3.557  0.00  0.00     0.110 C 
BRANCH  22  23
ATOM     23  N   UNL d   1      25.103 -14.394  -3.951  0.00  0.00    -0.115 N 
ATOM     24  O   UNL d   1      25.155 -15.291  -4.805  0.00  0.00    -0.532 OA
ATOM     25  O   UNL d   1      24.057 -14.074  -3.377  0.00  0.00    -0.532 OA
ENDBRANCH  22  23
ENDBRANCH  14  17
BRANCH   9  26
ATOM     26  N   UNL d   1      28.473 -13.430   3.760  0.00  0.00    -0.216 N 
ATOM     27  C   UNL d   1      29.201 -14.219   4.763  0.00  0.00     0.141 C 
ATOM     28  C   UNL d   1      28.526 -14.057   6.130  0.00  0.00     0.020 C 
ATOM     29  C   UNL d   1      28.405 -12.585   6.528  0.00  0.00     0.003 C 
ATOM     30  C   UNL d   1      27.780 -11.765   5.395  0.00  0.00     0.020 C 
ATOM     31  C   UNL d   1      28.494 -11.999   4.053  0.00  0.00     0.141 C 
ENDBRANCH   9  26
TORSDOF 3
ENDMDL
MODEL 5
REMARK VINA RESULT:    -6.927      2.305      6.541
REMARK INTER + INTRA:          -9.702
REMARK INTER:                  -7.822
REMARK INTRA:                  -1.880
REMARK CONF_INDEPENDENT:        0.895
REMARK UNBOUND:                -1.880
REMARK  3 active torsions:
REMARK  status: ('A' for Active; 'I' for Inactive)
REMARK    1  A    between atoms: C_9  and  N_10 
REMARK    2  A    between atoms: C_20  and  C_21 
REMARK    3  A    between atoms: C_26  and  N_27 
ROOT
ATOM      1  N   UNL d   1      29.136 -16.611  -4.506  0.00  0.00    -0.196 NA
ATOM      2  C   UNL d   1      29.210 -15.883  -3.591  0.00  0.00     0.074 C 
ATOM      3  C   UNL d   1      29.196 -14.916  -2.483  0.00  0.00     0.198 C 
ATOM      4  C   UNL d   1      30.095 -13.788  -2.909  0.00  0.00     0.242 C 
ATOM      5  O   UNL d   1      31.164 -13.547  -2.358  0.00  0.00    -0.272 OA
ATOM      6  N   UNL d   1      29.593 -13.081  -4.001  0.00  0.00    -0.309 N 
ATOM      7  C   UNL d   1      28.254 -12.743  -4.121  0.00  0.00     0.162 A 
ATOM      8  N   UNL d   1      27.881 -11.860  -5.114  0.00  0.00    -0.046 NA
ATOM      9  C   UNL d   1      26.650 -11.420  -5.124  0.00  0.00     0.707 A 
ATOM     10  N   UNL d   1      25.745 -11.849  -4.189  0.00  0.00    -0.154 N 
ATOM     11  C   UNL d   1      26.029 -12.744  -3.213  0.00  0.00     0.270 A 
ATOM     12  O   UNL d   1      25.186 -13.092  -2.395  0.00  0.00    -0.267 OA
ATOM     13  C   UNL d   1      27.408 -13.248  -3.212  0.00  0.00     0.067 A 
ATOM     14  C   UNL d   1      27.831 -14.261  -2.185  0.00  0.00     0.090 C 
ATOM     15  H   UNL d   1      30.262 -12.662  -4.636  0.00  0.00     0.170 HD
ATOM     16  H   UNL d   1      24.780 -11.569  -4.248  0.00  0.00     0.187 HD
ENDROOT
BRANCH  14  17
ATOM     17  C   UNL d   1      26.764 -15.312  -1.924  0.00  0.00    -0.015 C 
ATOM     18  C   UNL d   1      26.707 -15.851  -0.618  0.00  0.00     0.010 C 
ATOM     19  C   UNL d   1      25.637 -16.611  -0.192  0.00  0.00     0.001 C 
ATOM     20  C   UNL d   1      24.860 -17.225  -1.149  0.00  0.00     0.002 C 
ATOM     21  C   UNL d   1      25.023 -16.892  -2.494  0.00  0.00     0.037 C 
ATOM     22  C   UNL d   1      25.884 -15.848  -2.879  0.00  0.00     0.110 C 
BRANCH  22  23
ATOM     23  N   UNL d   1      25.808 -15.396  -4.287  0.00  0.00    -0.115 N 
ATOM     24  O   UNL d   1      24.790 -14.784  -4.636  0.00  0.00    -0.532 OA
ATOM     25  O   UNL d   1      26.774 -15.575  -5.037  0.00  0.00    -0.532 OA
ENDBRANCH  22  23
ENDBRANCH  14  17
BRANCH   9  26
ATOM     26  N   UNL d   1      26.113 -10.552  -6.061  0.00  0.00    -0.216 N 
ATOM     27  C   UNL d   1      26.281 -10.700  -7.513  0.00  0.00     0.141 C 
ATOM     28  C   UNL d   1      26.815  -9.390  -8.103  0.00  0.00     0.020 C 
ATOM     29  C   UNL d   1      25.920  -8.203  -7.741  0.00  0.00     0.003 C 
ATOM     30  C   UNL d   1      25.643  -8.170  -6.236  0.00  0.00     0.020 C 
ATOM     31  C   UNL d   1      25.134  -9.525  -5.714  0.00  0.00     0.141 C 
ENDBRANCH   9  26
TORSDOF 3
ENDMDL
MODEL 6
REMARK VINA RESULT:    -6.858      3.343      5.434
REMARK INTER + INTRA:          -9.535
REMARK INTER:                  -7.752
REMARK INTRA:                  -1.782
REMARK CONF_INDEPENDENT:        0.895
REMARK UNBOUND:                -1.782
REMARK  3 active torsions:
REMARK  status: ('A' for Active; 'I' for Inactive)
REMARK    1  A    between atoms: C_9  and  N_10 
REMARK    2  A    between atoms: C_20  and  C_21 
REMARK    3  A    between atoms: C_26  and  N_27 
ROOT
ATOM      1  N   UNL d   1      24.792 -16.163  -2.071  0.00  0.00    -0.196 NA
ATOM      2  C   UNL d   1      25.690 -15.589  -1.582  0.00  0.00     0.074 C 
ATOM      3  C   UNL d   1      26.874 -14.874  -1.081  0.00  0.00     0.198 C 
ATOM      4  C   UNL d   1      27.732 -15.915  -0.416  0.00  0.00     0.242 C 
ATOM      5  O   UNL d   1      27.932 -15.936   0.794  0.00  0.00    -0.272 OA
ATOM      6  N   UNL d   1      28.239 -16.852  -1.315  0.00  0.00    -0.309 N 
ATOM      7  C   UNL d   1      28.734 -16.500  -2.562  0.00  0.00     0.162 A 
ATOM      8  N   UNL d   1      29.414 -17.450  -3.296  0.00  0.00    -0.046 NA
ATOM      9  C   UNL d   1      30.015 -17.073  -4.394  0.00  0.00     0.707 A 
ATOM     10  N   UNL d   1      29.946 -15.773  -4.820  0.00  0.00    -0.154 N 
ATOM     11  C   UNL d   1      29.264 -14.798  -4.173  0.00  0.00     0.270 A 
ATOM     12  O   UNL d   1      29.238 -13.646  -4.591  0.00  0.00    -0.267 OA
ATOM     13  C   UNL d   1      28.576 -15.226  -2.948  0.00  0.00     0.067 A 
ATOM     14  C   UNL d   1      27.771 -14.232  -2.159  0.00  0.00     0.090 C 
ATOM     15  H   UNL d   1      28.401 -17.791  -0.973  0.00  0.00     0.170 HD
ATOM     16  H   UNL d   1      30.344 -15.504  -5.705  0.00  0.00     0.187 HD
ENDROOT
BRANCH  14  17
ATOM     17  C   UNL d   1      26.975 -13.287  -3.044  0.00  0.00    -0.015 C 
ATOM     18  C   UNL d   1      26.830 -11.957  -2.588  0.00  0.00     0.010 C 
ATOM     19  C   UNL d   1      26.357 -10.954  -3.410  0.00  0.00     0.001 C 
ATOM     20  C   UNL d   1      25.603 -11.318  -4.503  0.00  0.00     0.002 C 
ATOM     21  C   UNL d   1      25.527 -12.661  -4.878  0.00  0.00     0.037 C 
ATOM     22  C   UNL d   1      26.308 -13.635  -4.231  0.00  0.00     0.110 C 
BRANCH  22  23
ATOM     23  N   UNL d   1      26.358 -14.979  -4.850  0.00  0.00    -0.115 N 
ATOM     24  O   UNL d   1      25.530 -15.816  -4.464  0.00  0.00    -0.532 OA
ATOM     25  O   UNL d   1      27.160 -15.200  -5.764  0.00  0.00    -0.532 OA
ENDBRANCH  22  23
ENDBRANCH  14  17
BRANCH   9  26
ATOM     26  N   UNL d   1      30.717 -17.904  -5.252  0.00  0.00    -0.216 N 
ATOM     27  C   UNL d   1      31.581 -17.426  -6.341  0.00  0.00     0.141 C 
ATOM     28  C   UNL d   1      31.173 -18.104  -7.654  0.00  0.00     0.020 C 
ATOM     29  C   UNL d   1      31.190 -19.629  -7.528  0.00  0.00     0.003 C 
ATOM     30  C   UNL d   1      30.405 -20.082  -6.294  0.00  0.00     0.020 C 
ATOM     31  C   UNL d   1      30.853 -19.340  -5.022  0.00  0.00     0.141 C 
ENDBRANCH   9  26
TORSDOF 3
ENDMDL
MODEL 7
REMARK VINA RESULT:    -6.721      1.875      4.200
REMARK INTER + INTRA:          -9.027
REMARK INTER:                  -7.616
REMARK INTRA:                  -1.410
REMARK CONF_INDEPENDENT:        0.895
REMARK UNBOUND:                -1.410
REMARK  3 active torsions:
REMARK  status: ('A' for Active; 'I' for Inactive)
REMARK    1  A    between atoms: C_9  and  N_10 
REMARK    2  A    between atoms: C_20  and  C_21 
REMARK    3  A    between atoms: C_26  and  N_27 
ROOT
ATOM      1  N   UNL d   1      27.894 -15.284  -6.171  0.00  0.00    -0.196 NA
ATOM      2  C   UNL d   1      27.700 -14.326  -5.525  0.00  0.00     0.074 C 
ATOM      3  C   UNL d   1      27.449 -13.199  -4.613  0.00  0.00     0.198 C 
ATOM      4  C   UNL d   1      25.975 -12.912  -4.710  0.00  0.00     0.242 C 
ATOM      5  O   UNL d   1      25.532 -11.879  -5.200  0.00  0.00    -0.272 OA
ATOM      6  N   UNL d   1      25.188 -13.950  -4.214  0.00  0.00    -0.309 N 
ATOM      7  C   UNL d   1      25.502 -14.634  -3.049  0.00  0.00     0.162 A 
ATOM      8  N   UNL d   1      24.563 -15.492  -2.513  0.00  0.00    -0.046 NA
ATOM      9  C   UNL d   1      24.796 -16.010  -1.335  0.00  0.00     0.707 A 
ATOM     10  N   UNL d   1      25.957 -15.731  -0.664  0.00  0.00    -0.154 N 
ATOM     11  C   UNL d   1      26.939 -14.933  -1.147  0.00  0.00     0.270 A 
ATOM     12  O   UNL d   1      27.958 -14.708  -0.504  0.00  0.00    -0.267 OA
ATOM     13  C   UNL d   1      26.683 -14.364  -2.476  0.00  0.00     0.067 A 
ATOM     14  C   UNL d   1      27.713 -13.478  -3.119  0.00  0.00     0.090 C 
ATOM     15  H   UNL d   1      24.277 -14.089  -4.632  0.00  0.00     0.170 HD
ATOM     16  H   UNL d   1      26.167 -16.193   0.205  0.00  0.00     0.187 HD
ENDROOT
BRANCH  14  17
ATOM     17  C   UNL d   1      29.133 -13.972  -2.896  0.00  0.00    -0.015 C 
ATOM     18  C   UNL d   1      29.375 -15.345  -3.134  0.00  0.00     0.010 C 
ATOM     19  C   UNL d   1      30.654 -15.854  -3.215  0.00  0.00     0.001 C 
ATOM     20  C   UNL d   1      31.671 -15.141  -2.619  0.00  0.00     0.002 C 
ATOM     21  C   UNL d   1      31.434 -13.845  -2.158  0.00  0.00     0.037 C 
ATOM     22  C   UNL d   1      30.205 -13.208  -2.405  0.00  0.00     0.110 C 
BRANCH  22  23
ATOM     23  N   UNL d   1      30.125 -11.759  -2.108  0.00  0.00    -0.115 N 
ATOM     24  O   UNL d   1      30.611 -10.979  -2.939  0.00  0.00    -0.532 OA
ATOM     25  O   UNL d   1      29.526 -11.376  -1.098  0.00  0.00    -0.532 OA
ENDBRANCH  22  23
ENDBRANCH  14  17
BRANCH   9  26
ATOM     26  N   UNL d   1      23.970 -16.902  -0.672  0.00  0.00    -0.216 N 
ATOM     27  C   UNL d   1      24.439 -18.129  -0.014  0.00  0.00     0.141 C 
ATOM     28  C   UNL d   1      23.626 -19.325  -0.520  0.00  0.00     0.020 C 
ATOM     29  C   UNL d   1      22.124 -19.105  -0.331  0.00  0.00     0.003 C 
ATOM     30  C   UNL d   1      21.698 -17.747  -0.895  0.00  0.00     0.020 C 
ATOM     31  C   UNL d   1      22.575 -16.601  -0.360  0.00  0.00     0.141 C 
ENDBRANCH   9  26
TORSDOF 3
ENDMDL
MODEL 8
REMARK VINA RESULT:    -6.706      8.245     10.186
REMARK INTER + INTRA:          -9.017
REMARK INTER:                  -7.601
REMARK INTRA:                  -1.416
REMARK CONF_INDEPENDENT:        0.895
REMARK UNBOUND:                -1.416
REMARK  3 active torsions:
REMARK  status: ('A' for Active; 'I' for Inactive)
REMARK    1  A    between atoms: C_9  and  N_10 
REMARK    2  A    between atoms: C_20  and  C_21 
REMARK    3  A    between atoms: C_26  and  N_27 
ROOT
ATOM      1  N   UNL d   1      31.304 -12.743   2.566  0.00  0.00    -0.196 NA
ATOM      2  C   UNL d   1      30.139 -12.689   2.684  0.00  0.00     0.074 C 
ATOM      3  C   UNL d   1      28.697 -12.595   2.954  0.00  0.00     0.198 C 
ATOM      4  C   UNL d   1      28.228 -14.005   3.189  0.00  0.00     0.242 C 
ATOM      5  O   UNL d   1      27.472 -14.589   2.420  0.00  0.00    -0.272 OA
ATOM      6  N   UNL d   1      28.768 -14.568   4.344  0.00  0.00    -0.309 N 
ATOM      7  C   UNL d   1      28.889 -13.863   5.533  0.00  0.00     0.162 A 
ATOM      8  N   UNL d   1      29.226 -14.553   6.679  0.00  0.00    -0.046 NA
ATOM      9  C   UNL d   1      29.182 -13.918   7.821  0.00  0.00     0.707 A 
ATOM     10  N   UNL d   1      28.839 -12.593   7.874  0.00  0.00    -0.154 N 
ATOM     11  C   UNL d   1      28.537 -11.844   6.787  0.00  0.00     0.270 A 
ATOM     12  O   UNL d   1      28.230 -10.662   6.886  0.00  0.00    -0.267 OA
ATOM     13  C   UNL d   1      28.601 -12.554   5.503  0.00  0.00     0.067 A 
ATOM     14  C   UNL d   1      28.305 -11.816   4.227  0.00  0.00     0.090 C 
ATOM     15  H   UNL d   1      28.917 -15.569   4.353  0.00  0.00     0.170 HD
ATOM     16  H   UNL d   1      28.883 -12.089   8.744  0.00  0.00     0.187 HD
ENDROOT
BRANCH  14  17
ATOM     17  C   UNL d   1      28.887 -10.413   4.212  0.00  0.00    -0.015 C 
ATOM     18  C   UNL d   1      30.226 -10.273   4.646  0.00  0.00     0.010 C 
ATOM     19  C   UNL d   1      30.939  -9.110   4.439  0.00  0.00     0.001 C 
ATOM     20  C   UNL d   1      30.230  -7.947   4.235  0.00  0.00     0.002 C 
ATOM     21  C   UNL d   1      28.853  -8.001   4.018  0.00  0.00     0.037 C 
ATOM     22  C   UNL d   1      28.194  -9.236   3.881  0.00  0.00     0.110 C 
BRANCH  22  23
ATOM     23  N   UNL d   1      26.792  -9.203   3.405  0.00  0.00    -0.115 N 
ATOM     24  O   UNL d   1      26.282  -8.092   3.208  0.00  0.00    -0.532 OA
ATOM     25  O   UNL d   1      26.208 -10.263   3.155  0.00  0.00    -0.532 OA
ENDBRANCH  22  23
ENDBRANCH  14  17
BRANCH   9  26
ATOM     26  N   UNL d   1      29.510 -14.458   9.054  0.00  0.00    -0.216 N 
ATOM     27  C   UNL d   1      28.526 -14.847  10.074  0.00  0.00     0.141 C 
ATOM     28  C   UNL d   1      28.881 -14.182  11.408  0.00  0.00     0.020 C 
ATOM     29  C   UNL d   1      30.314 -14.505  11.835  0.00  0.00     0.003 C 
ATOM     30  C   UNL d   1      31.297 -14.230  10.692  0.00  0.00     0.020 C 
ATOM     31  C   UNL d   1      30.860 -14.909   9.382  0.00  0.00     0.141 C 
ENDBRANCH   9  26
TORSDOF 3
ENDMDL
MODEL 9
REMARK VINA RESULT:    -6.455      2.503      6.368
REMARK INTER + INTRA:          -9.077
REMARK INTER:                  -7.350
REMARK INTRA:                  -1.727
REMARK CONF_INDEPENDENT:        0.895
REMARK UNBOUND:                -1.727
REMARK  3 active torsions:
REMARK  status: ('A' for Active; 'I' for Inactive)
REMARK    1  A    between atoms: C_9  and  N_10 
REMARK    2  A    between atoms: C_20  and  C_21 
REMARK    3  A    between atoms: C_26  and  N_27 
ROOT
ATOM      1  N   UNL d   1      26.960 -15.385  -5.356  0.00  0.00    -0.196 NA
ATOM      2  C   UNL d   1      27.729 -15.572  -4.492  0.00  0.00     0.074 C 
ATOM      3  C   UNL d   1      28.628 -15.727  -3.337  0.00  0.00     0.198 C 
ATOM      4  C   UNL d   1      29.773 -14.782  -3.577  0.00  0.00     0.242 C 
ATOM      5  O   UNL d   1      30.916 -15.168  -3.800  0.00  0.00    -0.272 OA
ATOM      6  N   UNL d   1      29.385 -13.443  -3.545  0.00  0.00    -0.309 N 
ATOM      7  C   UNL d   1      28.497 -12.945  -2.603  0.00  0.00     0.162 A 
ATOM      8  N   UNL d   1      28.336 -11.578  -2.504  0.00  0.00    -0.046 NA
ATOM      9  C   UNL d   1      27.625 -11.107  -1.514  0.00  0.00     0.707 A 
ATOM     10  N   UNL d   1      27.029 -11.951  -0.615  0.00  0.00    -0.154 N 
ATOM     11  C   UNL d   1      27.110 -13.301  -0.674  0.00  0.00     0.270 A 
ATOM     12  O   UNL d   1      26.563 -14.015   0.159  0.00  0.00    -0.267 OA
ATOM     13  C   UNL d   1      27.896 -13.830  -1.796  0.00  0.00     0.067 A 
ATOM     14  C   UNL d   1      28.037 -15.316  -1.972  0.00  0.00     0.090 C 
ATOM     15  H   UNL d   1      29.899 -12.792  -4.124  0.00  0.00     0.170 HD
ATOM     16  H   UNL d   1      26.419 -11.588   0.099  0.00  0.00     0.187 HD
ENDROOT
BRANCH  14  17
ATOM     17  C   UNL d   1      26.747 -16.066  -1.685  0.00  0.00    -0.015 C 
ATOM     18  C   UNL d   1      26.845 -17.216  -0.868  0.00  0.00     0.010 C 
ATOM     19  C   UNL d   1      25.729 -17.825  -0.333  0.00  0.00     0.001 C 
ATOM     20  C   UNL d   1      24.517 -17.608  -0.949  0.00  0.00     0.002 C 
ATOM     21  C   UNL d   1      24.405 -16.624  -1.933  0.00  0.00     0.037 C 
ATOM     22  C   UNL d   1      25.482 -15.765  -2.219  0.00  0.00     0.110 C 
BRANCH  22  23
ATOM     23  N   UNL d   1      25.202 -14.598  -3.087  0.00  0.00    -0.115 N 
ATOM     24  O   UNL d   1      24.781 -14.825  -4.229  0.00  0.00    -0.532 OA
ATOM     25  O   UNL d   1      25.324 -13.456  -2.631  0.00  0.00    -0.532 OA
ENDBRANCH  22  23
ENDBRANCH  14  17
BRANCH   9  26
ATOM     26  N   UNL d   1      27.351  -9.768  -1.287  0.00  0.00    -0.216 N 
ATOM     27  C   UNL d   1      27.675  -9.058  -0.042  0.00  0.00     0.141 C 
ATOM     28  C   UNL d   1      26.420  -8.357   0.490  0.00  0.00     0.020 C 
ATOM     29  C   UNL d   1      25.804  -7.431  -0.561  0.00  0.00     0.003 C 
ATOM     30  C   UNL d   1      25.621  -8.165  -1.893  0.00  0.00     0.020 C 
ATOM     31  C   UNL d   1      26.915  -8.862  -2.348  0.00  0.00     0.141 C 
ENDBRANCH   9  26
TORSDOF 3
ENDMDL
