MODEL 1
REMARK VINA RESULT:    -7.403      0.000      0.000
REMARK INTER + INTRA:         -11.549
REMARK INTER:                 -10.386
REMARK INTRA:                  -1.163
REMARK CONF_INDEPENDENT:        2.983
REMARK UNBOUND:                -1.163
REMARK  10 active torsions:
REMARK  status: ('A' for Active; 'I' for Inactive)
REMARK    1  A    between atoms: O_2  and  C_3 
REMARK    2  A    between atoms: C_5  and  O_6 
REMARK    3  A    between atoms: C_8  and  C_9 
REMARK       I    between atoms: C_9  and  N_11 
REMARK    4  A    between atoms: N_11  and  N_12 
REMARK    5  A    between atoms: N_12  and  C_13 
REMARK    6  A    between atoms: C_13  and  N_15 
REMARK    7  A    between atoms: N_15  and  C_16 
REMARK    8  A    between atoms: C_16  and  C_17 
REMARK    9  A    between atoms: C_17  and  C_18 
REMARK   10  A    between atoms: C_22  and  O_23 
ROOT
ATOM      1  C   UNL d   1      24.847 -16.535  -1.203  0.00  0.00     0.273 C 
ATOM      2  O   UNL d   1      24.967 -17.185  -0.184  0.00  0.00    -0.266 OA
ATOM      3  N   UNL d   1      23.534 -16.212  -1.513  0.00  0.00    -0.264 N 
ATOM      4  H   UNL d   1      23.206 -15.573  -2.224  0.00  0.00     0.190 HD
ENDROOT
BRANCH   1   5
ATOM      5  C   UNL d   1      26.001 -16.029  -2.097  0.00  0.00     0.069 C 
ATOM      6  C   UNL d   1      25.874 -15.279  -3.287  0.00  0.00     0.086 C 
ATOM      7  C   UNL d   1      27.025 -15.056  -4.117  0.00  0.00     0.077 C 
ATOM      8  C   UNL d   1      28.346 -15.413  -3.755  0.00  0.00     0.104 C 
ATOM      9  C   UNL d   1      28.479 -16.076  -2.527  0.00  0.00     0.102 C 
ATOM     10  C   UNL d   1      27.321 -16.368  -1.745  0.00  0.00     0.059 C 
BRANCH   6  11
ATOM     11  O   UNL d   1      24.782 -14.598  -3.789  0.00  0.00    -0.355 OA
ATOM     12  C   UNL d   1      24.998 -13.329  -4.384  0.00  0.00     0.210 C 
ENDBRANCH   6  11
BRANCH   8  13
ATOM     13  O   UNL d   1      29.307 -14.788  -4.525  0.00  0.00    -0.353 OA
ATOM     14  C   UNL d   1      29.216 -14.584  -5.938  0.00  0.00     0.210 C 
ENDBRANCH   8  13
BRANCH   9  15
ATOM     15  O   UNL d   1      29.586 -16.504  -1.833  0.00  0.00    -0.353 OA
ATOM     16  C   UNL d   1      29.349 -17.051  -0.567  0.00  0.00     0.210 C 
ENDBRANCH   9  15
ENDBRANCH   1   5
BRANCH   3  17
ATOM     17  N   UNL d   1      22.543 -16.724  -0.617  0.00  0.00    -0.274 N 
ATOM     18  H   UNL d   1      22.237 -16.066   0.102  0.00  0.00     0.189 HD
BRANCH  17  19
ATOM     19  C   UNL d   1      22.056 -17.999  -0.781  0.00  0.00     0.186 C 
ATOM     20  S   UNL d   1      23.038 -19.344  -0.516  0.00  0.00    -0.040 SA
BRANCH  19  21
ATOM     21  N   UNL d   1      20.726 -18.061  -1.170  0.00  0.00    -0.366 N 
ATOM     22  H   UNL d   1      20.216 -17.213  -1.393  0.00  0.00     0.161 HD
BRANCH  21  23
ATOM     23  C   UNL d   1      20.003 -19.323  -1.170  0.00  0.00     0.122 C 
BRANCH  23  24
ATOM     24  C   UNL d   1      20.251 -20.244   0.019  0.00  0.00     0.023 C 
BRANCH  24  25
ATOM     25  C   UNL d   1      19.133 -20.097   1.078  0.00  0.00    -0.021 C 
ATOM     26  C   UNL d   1      18.104 -21.229   0.988  0.00  0.00     0.009 C 
ATOM     27  C   UNL d   1      19.736 -20.078   2.483  0.00  0.00     0.009 C 
ENDBRANCH  24  25
ENDBRANCH  23  24
ENDBRANCH  21  23
ENDBRANCH  19  21
ENDBRANCH  17  19
ENDBRANCH   3  17
TORSDOF 10
ENDMDL
MODEL 2
REMARK VINA RESULT:    -6.821      2.402      3.145
REMARK INTER + INTRA:         -11.398
REMARK INTER:                  -9.804
REMARK INTRA:                  -1.594
REMARK CONF_INDEPENDENT:        2.983
REMARK UNBOUND:                -1.594
REMARK  10 active torsions:
REMARK  status: ('A' for Active; 'I' for Inactive)
REMARK    1  A    between atoms: O_2  and  C_3 
REMARK    2  A    between atoms: C_5  and  O_6 
REMARK    3  A    between atoms: C_8  and  C_9 
REMARK       I    between atoms: C_9  and  N_11 
REMARK    4  A    between atoms: N_11  and  N_12 
REMARK    5  A    between atoms: N_12  and  C_13 
REMARK    6  A    between atoms: C_13  and  N_15 
REMARK    7  A    between atoms: N_15  and  C_16 
REMARK    8  A    between atoms: C_16  and  C_17 
REMARK    9  A    between atoms: C_17  and  C_18 
REMARK   10  A    between atoms: C_22  and  O_23 
ROOT
ATOM      1  C   UNL d   1      24.857 -14.656  -2.933  0.00  0.00     0.273 C 
ATOM      2  O   UNL d   1      23.662 -14.451  -2.853  0.00  0.00    -0.266 OA
ATOM      3  N   UNL d   1      25.324 -15.611  -2.042  0.00  0.00    -0.264 N 
ATOM      4  H   UNL d   1      26.240 -16.039  -2.020  0.00  0.00     0.190 HD
ENDROOT
BRANCH   1   5
ATOM      5  C   UNL d   1      25.826 -13.995  -3.939  0.00  0.00     0.069 C 
ATOM      6  C   UNL d   1      25.946 -12.613  -4.204  0.00  0.00     0.086 C 
ATOM      7  C   UNL d   1      26.746 -12.166  -5.311  0.00  0.00     0.077 C 
ATOM      8  C   UNL d   1      27.566 -13.014  -6.093  0.00  0.00     0.104 C 
ATOM      9  C   UNL d   1      27.515 -14.376  -5.764  0.00  0.00     0.102 C 
ATOM     10  C   UNL d   1      26.655 -14.825  -4.716  0.00  0.00     0.059 C 
BRANCH   6  11
ATOM     11  O   UNL d   1      25.470 -11.532  -3.489  0.00  0.00    -0.355 OA
ATOM     12  C   UNL d   1      26.100 -10.275  -3.675  0.00  0.00     0.210 C 
ENDBRANCH   6  11
BRANCH   8  13
ATOM     13  O   UNL d   1      28.497 -12.326  -6.844  0.00  0.00    -0.353 OA
ATOM     14  C   UNL d   1      29.485 -12.934  -7.681  0.00  0.00     0.210 C 
ENDBRANCH   8  13
BRANCH   9  15
ATOM     15  O   UNL d   1      28.207 -15.461  -6.247  0.00  0.00    -0.353 OA
ATOM     16  C   UNL d   1      29.394 -15.784  -5.580  0.00  0.00     0.210 C 
ENDBRANCH   9  15
ENDBRANCH   1   5
BRANCH   3  17
ATOM     17  N   UNL d   1      24.344 -16.165  -1.159  0.00  0.00    -0.274 N 
ATOM     18  H   UNL d   1      23.417 -15.741  -1.231  0.00  0.00     0.189 HD
BRANCH  17  19
ATOM     19  C   UNL d   1      24.676 -17.206  -0.326  0.00  0.00     0.186 C 
ATOM     20  S   UNL d   1      26.288 -17.603  -0.031  0.00  0.00    -0.040 SA
BRANCH  19  21
ATOM     21  N   UNL d   1      23.589 -17.869   0.227  0.00  0.00    -0.366 N 
ATOM     22  H   UNL d   1      23.675 -18.339   1.121  0.00  0.00     0.161 HD
BRANCH  21  23
ATOM     23  C   UNL d   1      22.338 -17.994  -0.504  0.00  0.00     0.122 C 
BRANCH  23  24
ATOM     24  C   UNL d   1      21.674 -19.366  -0.480  0.00  0.00     0.023 C 
BRANCH  24  25
ATOM     25  C   UNL d   1      20.267 -19.291   0.159  0.00  0.00    -0.021 C 
ATOM     26  C   UNL d   1      19.155 -19.327  -0.895  0.00  0.00     0.009 C 
ATOM     27  C   UNL d   1      20.068 -20.448   1.138  0.00  0.00     0.009 C 
ENDBRANCH  24  25
ENDBRANCH  23  24
ENDBRANCH  21  23
ENDBRANCH  19  21
ENDBRANCH  17  19
ENDBRANCH   3  17
TORSDOF 10
ENDMDL
MODEL 3
REMARK VINA RESULT:    -6.470      2.373      4.318
REMARK INTER + INTRA:         -11.390
REMARK INTER:                  -9.453
REMARK INTRA:                  -1.937
REMARK CONF_INDEPENDENT:        2.983
REMARK UNBOUND:                -1.937
REMARK  10 active torsions:
REMARK  status: ('A' for Active; 'I' for Inactive)
REMARK    1  A    between atoms: O_2  and  C_3 
REMARK    2  A    between atoms: C_5  and  O_6 
REMARK    3  A    between atoms: C_8  and  C_9 
REMARK       I    between atoms: C_9  and  N_11 
REMARK    4  A    between atoms: N_11  and  N_12 
REMARK    5  A    between atoms: N_12  and  C_13 
REMARK    6  A    between atoms: C_13  and  N_15 
REMARK    7  A    between atoms: N_15  and  C_16 
REMARK    8  A    between atoms: C_16  and  C_17 
REMARK    9  A    between atoms: C_17  and  C_18 
REMARK   10  A    between atoms: C_22  and  O_23 
ROOT
ATOM      1  C   UNL d   1      25.136 -14.542  -3.391  0.00  0.00     0.273 C 
ATOM      2  O   UNL d   1      23.993 -14.245  -3.105  0.00  0.00    -0.266 OA
ATOM      3  N   UNL d   1      25.623 -15.637  -2.693  0.00  0.00    -0.264 N 
ATOM      4  H   UNL d   1      26.482 -16.144  -2.859  0.00  0.00     0.190 HD
ENDROOT
BRANCH   1   5
ATOM      5  C   UNL d   1      26.014 -13.851  -4.458  0.00  0.00     0.069 C 
ATOM      6  C   UNL d   1      27.192 -14.369  -5.040  0.00  0.00     0.086 C 
ATOM      7  C   UNL d   1      28.009 -13.526  -5.867  0.00  0.00     0.077 C 
ATOM      8  C   UNL d   1      27.645 -12.221  -6.278  0.00  0.00     0.104 C 
ATOM      9  C   UNL d   1      26.427 -11.746  -5.772  0.00  0.00     0.102 C 
ATOM     10  C   UNL d   1      25.658 -12.557  -4.884  0.00  0.00     0.059 C 
BRANCH   6  11
ATOM     11  O   UNL d   1      27.689 -15.657  -5.027  0.00  0.00    -0.355 OA
ATOM     12  C   UNL d   1      28.789 -15.943  -4.179  0.00  0.00     0.210 C 
ENDBRANCH   6  11
BRANCH   8  13
ATOM     13  O   UNL d   1      28.398 -11.757  -7.338  0.00  0.00    -0.353 OA
ATOM     14  C   UNL d   1      27.926 -11.625  -8.681  0.00  0.00     0.210 C 
ENDBRANCH   8  13
BRANCH   9  15
ATOM     15  O   UNL d   1      25.732 -10.582  -6.002  0.00  0.00    -0.353 OA
ATOM     16  C   UNL d   1      25.526  -9.755  -4.892  0.00  0.00     0.210 C 
ENDBRANCH   9  15
ENDBRANCH   1   5
BRANCH   3  17
ATOM     17  N   UNL d   1      24.727 -16.207  -1.733  0.00  0.00    -0.274 N 
ATOM     18  H   UNL d   1      23.767 -15.862  -1.788  0.00  0.00     0.189 HD
BRANCH  17  19
ATOM     19  C   UNL d   1      25.175 -17.163  -0.854  0.00  0.00     0.186 C 
ATOM     20  S   UNL d   1      26.825 -17.416  -0.612  0.00  0.00    -0.040 SA
BRANCH  19  21
ATOM     21  N   UNL d   1      24.169 -17.870  -0.210  0.00  0.00    -0.366 N 
ATOM     22  H   UNL d   1      24.169 -17.958   0.800  0.00  0.00     0.161 HD
BRANCH  21  23
ATOM     23  C   UNL d   1      23.152 -18.583  -0.968  0.00  0.00     0.122 C 
BRANCH  23  24
ATOM     24  C   UNL d   1      21.706 -18.185  -0.701  0.00  0.00     0.023 C 
BRANCH  24  25
ATOM     25  C   UNL d   1      20.884 -19.391  -0.188  0.00  0.00    -0.021 C 
ATOM     26  C   UNL d   1      20.650 -19.324   1.325  0.00  0.00     0.009 C 
ATOM     27  C   UNL d   1      19.533 -19.453  -0.902  0.00  0.00     0.009 C 
ENDBRANCH  24  25
ENDBRANCH  23  24
ENDBRANCH  21  23
ENDBRANCH  19  21
ENDBRANCH  17  19
ENDBRANCH   3  17
TORSDOF 10
ENDMDL
MODEL 4
REMARK VINA RESULT:    -6.397      1.529      2.798
REMARK INTER + INTRA:         -11.023
REMARK INTER:                  -9.380
REMARK INTRA:                  -1.643
REMARK CONF_INDEPENDENT:        2.983
REMARK UNBOUND:                -1.643
REMARK  10 active torsions:
REMARK  status: ('A' for Active; 'I' for Inactive)
REMARK    1  A    between atoms: O_2  and  C_3 
REMARK    2  A    between atoms: C_5  and  O_6 
REMARK    3  A    between atoms: C_8  and  C_9 
REMARK       I    between atoms: C_9  and  N_11 
REMARK    4  A    between atoms: N_11  and  N_12 
REMARK    5  A    between atoms: N_12  and  C_13 
REMARK    6  A    between atoms: C_13  and  N_15 
REMARK    7  A    between atoms: N_15  and  C_16 
REMARK    8  A    between atoms: C_16  and  C_17 
REMARK    9  A    between atoms: C_17  and  C_18 
REMARK   10  A    between atoms: C_22  and  O_23 
ROOT
ATOM      1  C   UNL d   1      24.990 -15.342  -2.427  0.00  0.00     0.273 C 
ATOM      2  O   UNL d   1      24.046 -14.649  -2.752  0.00  0.00    -0.266 OA
ATOM      3  N   UNL d   1      24.647 -16.415  -1.618  0.00  0.00    -0.264 N 
ATOM      4  H   UNL d   1      25.231 -17.192  -1.341  0.00  0.00     0.190 HD
ENDROOT
BRANCH   1   5
ATOM      5  C   UNL d   1      26.456 -15.145  -2.872  0.00  0.00     0.069 C 
ATOM      6  C   UNL d   1      27.553 -14.842  -2.036  0.00  0.00     0.086 C 
ATOM      7  C   UNL d   1      28.818 -14.488  -2.618  0.00  0.00     0.077 C 
ATOM      8  C   UNL d   1      29.104 -14.563  -4.003  0.00  0.00     0.104 C 
ATOM      9  C   UNL d   1      28.036 -14.956  -4.821  0.00  0.00     0.102 C 
ATOM     10  C   UNL d   1      26.757 -15.227  -4.244  0.00  0.00     0.059 C 
BRANCH   6  11
ATOM     11  O   UNL d   1      27.662 -14.914  -0.661  0.00  0.00    -0.355 OA
ATOM     12  C   UNL d   1      27.434 -16.165  -0.034  0.00  0.00     0.210 C 
ENDBRANCH   6  11
BRANCH   8  13
ATOM     13  O   UNL d   1      30.456 -14.526  -4.280  0.00  0.00    -0.353 OA
ATOM     14  C   UNL d   1      31.226 -13.332  -4.438  0.00  0.00     0.210 C 
ENDBRANCH   8  13
BRANCH   9  15
ATOM     15  O   UNL d   1      27.959 -15.200  -6.171  0.00  0.00    -0.353 OA
ATOM     16  C   UNL d   1      28.530 -14.235  -7.008  0.00  0.00     0.210 C 
ENDBRANCH   9  15
ENDBRANCH   1   5
BRANCH   3  17
ATOM     17  N   UNL d   1      23.262 -16.509  -1.270  0.00  0.00    -0.274 N 
ATOM     18  H   UNL d   1      22.697 -15.705  -1.546  0.00  0.00     0.189 HD
BRANCH  17  19
ATOM     19  C   UNL d   1      22.783 -17.635  -0.642  0.00  0.00     0.186 C 
ATOM     20  S   UNL d   1      23.781 -18.571   0.344  0.00  0.00    -0.040 SA
BRANCH  19  21
ATOM     21  N   UNL d   1      21.446 -17.908  -0.893  0.00  0.00    -0.366 N 
ATOM     22  H   UNL d   1      20.822 -17.173  -1.208  0.00  0.00     0.161 HD
BRANCH  21  23
ATOM     23  C   UNL d   1      20.885 -19.221  -0.615  0.00  0.00     0.122 C 
BRANCH  23  24
ATOM     24  C   UNL d   1      19.364 -19.315  -0.585  0.00  0.00     0.023 C 
BRANCH  24  25
ATOM     25  C   UNL d   1      18.866 -19.829   0.786  0.00  0.00    -0.021 C 
ATOM     26  C   UNL d   1      18.186 -21.197   0.673  0.00  0.00     0.009 C 
ATOM     27  C   UNL d   1      20.032 -19.928   1.770  0.00  0.00     0.009 C 
ENDBRANCH  24  25
ENDBRANCH  23  24
ENDBRANCH  21  23
ENDBRANCH  19  21
ENDBRANCH  17  19
ENDBRANCH   3  17
TORSDOF 10
ENDMDL
MODEL 5
REMARK VINA RESULT:    -6.182      1.502      3.299
REMARK INTER + INTRA:         -11.136
REMARK INTER:                  -9.165
REMARK INTRA:                  -1.971
REMARK CONF_INDEPENDENT:        2.983
REMARK UNBOUND:                -1.971
REMARK  10 active torsions:
REMARK  status: ('A' for Active; 'I' for Inactive)
REMARK    1  A    between atoms: O_2  and  C_3 
REMARK    2  A    between atoms: C_5  and  O_6 
REMARK    3  A    between atoms: C_8  and  C_9 
REMARK       I    between atoms: C_9  and  N_11 
REMARK    4  A    between atoms: N_11  and  N_12 
REMARK    5  A    between atoms: N_12  and  C_13 
REMARK    6  A    between atoms: C_13  and  N_15 
REMARK    7  A    between atoms: N_15  and  C_16 
REMARK    8  A    between atoms: C_16  and  C_17 
REMARK    9  A    between atoms: C_17  and  C_18 
REMARK   10  A    between atoms: C_22  and  O_23 
ROOT
ATOM      1  C   UNL d   1      25.165 -15.090  -3.005  0.00  0.00     0.273 C 
ATOM      2  O   UNL d   1      24.156 -14.450  -3.225  0.00  0.00    -0.266 OA
ATOM      3  N   UNL d   1      25.020 -16.043  -2.009  0.00  0.00    -0.264 N 
ATOM      4  H   UNL d   1      25.670 -16.775  -1.753  0.00  0.00     0.190 HD
ENDROOT
BRANCH   1   5
ATOM      5  C   UNL d   1      26.508 -14.953  -3.756  0.00  0.00     0.069 C 
ATOM      6  C   UNL d   1      27.728 -15.578  -3.415  0.00  0.00     0.086 C 
ATOM      7  C   UNL d   1      28.939 -15.195  -4.087  0.00  0.00     0.077 C 
ATOM      8  C   UNL d   1      28.988 -14.321  -5.199  0.00  0.00     0.104 C 
ATOM      9  C   UNL d   1      27.759 -13.774  -5.593  0.00  0.00     0.102 C 
ATOM     10  C   UNL d   1      26.570 -14.094  -4.870  0.00  0.00     0.059 C 
BRANCH   6  11
ATOM     11  O   UNL d   1      27.971 -16.628  -2.551  0.00  0.00    -0.355 OA
ATOM     12  C   UNL d   1      28.558 -16.340  -1.293  0.00  0.00     0.210 C 
ENDBRANCH   6  11
BRANCH   8  13
ATOM     13  O   UNL d   1      30.182 -14.386  -5.888  0.00  0.00    -0.353 OA
ATOM     14  C   UNL d   1      30.534 -15.413  -6.818  0.00  0.00     0.210 C 
ENDBRANCH   8  13
BRANCH   9  15
ATOM     15  O   UNL d   1      27.415 -12.959  -6.646  0.00  0.00    -0.353 OA
ATOM     16  C   UNL d   1      27.159 -11.619  -6.334  0.00  0.00     0.210 C 
ENDBRANCH   9  15
ENDBRANCH   1   5
BRANCH   3  17
ATOM     17  N   UNL d   1      23.734 -16.092  -1.382  0.00  0.00    -0.274 N 
ATOM     18  H   UNL d   1      23.182 -15.237  -1.474  0.00  0.00     0.189 HD
BRANCH  17  19
ATOM     19  C   UNL d   1      23.318 -17.239  -0.749  0.00  0.00     0.186 C 
ATOM     20  S   UNL d   1      24.404 -18.201   0.110  0.00  0.00    -0.040 SA
BRANCH  19  21
ATOM     21  N   UNL d   1      21.963 -17.511  -0.885  0.00  0.00    -0.366 N 
ATOM     22  H   UNL d   1      21.287 -16.756  -0.897  0.00  0.00     0.161 HD
BRANCH  21  23
ATOM     23  C   UNL d   1      21.473 -18.880  -0.909  0.00  0.00     0.122 C 
BRANCH  23  24
ATOM     24  C   UNL d   1      19.991 -19.074  -0.612  0.00  0.00     0.023 C 
BRANCH  24  25
ATOM     25  C   UNL d   1      19.775 -20.203   0.423  0.00  0.00    -0.021 C 
ATOM     26  C   UNL d   1      19.919 -19.698   1.862  0.00  0.00     0.009 C 
ATOM     27  C   UNL d   1      18.389 -20.825   0.246  0.00  0.00     0.009 C 
ENDBRANCH  24  25
ENDBRANCH  23  24
ENDBRANCH  21  23
ENDBRANCH  19  21
ENDBRANCH  17  19
ENDBRANCH   3  17
TORSDOF 10
ENDMDL
MODEL 6
REMARK VINA RESULT:    -5.879      1.675      2.273
REMARK INTER + INTRA:         -10.856
REMARK INTER:                  -8.862
REMARK INTRA:                  -1.994
REMARK CONF_INDEPENDENT:        2.983
REMARK UNBOUND:                -1.994
REMARK  10 active torsions:
REMARK  status: ('A' for Active; 'I' for Inactive)
REMARK    1  A    between atoms: O_2  and  C_3 
REMARK    2  A    between atoms: C_5  and  O_6 
REMARK    3  A    between atoms: C_8  and  C_9 
REMARK       I    between atoms: C_9  and  N_11 
REMARK    4  A    between atoms: N_11  and  N_12 
REMARK    5  A    between atoms: N_12  and  C_13 
REMARK    6  A    between atoms: C_13  and  N_15 
REMARK    7  A    between atoms: N_15  and  C_16 
REMARK    8  A    between atoms: C_16  and  C_17 
REMARK    9  A    between atoms: C_17  and  C_18 
REMARK   10  A    between atoms: C_22  and  O_23 
ROOT
ATOM      1  C   UNL d   1      26.825 -16.325  -1.950  0.00  0.00     0.273 C 
ATOM      2  O   UNL d   1      27.461 -16.771  -1.015  0.00  0.00    -0.266 OA
ATOM      3  N   UNL d   1      25.452 -16.463  -1.812  0.00  0.00    -0.264 N 
ATOM      4  H   UNL d   1      24.729 -16.051  -2.387  0.00  0.00     0.190 HD
ENDROOT
BRANCH   1   5
ATOM      5  C   UNL d   1      27.412 -15.611  -3.188  0.00  0.00     0.069 C 
ATOM      6  C   UNL d   1      26.685 -15.104  -4.287  0.00  0.00     0.086 C 
ATOM      7  C   UNL d   1      27.385 -14.648  -5.456  0.00  0.00     0.077 C 
ATOM      8  C   UNL d   1      28.793 -14.525  -5.542  0.00  0.00     0.104 C 
ATOM      9  C   UNL d   1      29.507 -14.943  -4.411  0.00  0.00     0.102 C 
ATOM     10  C   UNL d   1      28.810 -15.473  -3.282  0.00  0.00     0.059 C 
BRANCH   6  11
ATOM     11  O   UNL d   1      25.331 -14.870  -4.417  0.00  0.00    -0.355 OA
ATOM     12  C   UNL d   1      24.780 -13.738  -3.765  0.00  0.00     0.210 C 
ENDBRANCH   6  11
BRANCH   8  13
ATOM     13  O   UNL d   1      29.205 -13.742  -6.602  0.00  0.00    -0.353 OA
ATOM     14  C   UNL d   1      30.408 -13.943  -7.347  0.00  0.00     0.210 C 
ENDBRANCH   8  13
BRANCH   9  15
ATOM     15  O   UNL d   1      30.848 -14.909  -4.110  0.00  0.00    -0.353 OA
ATOM     16  C   UNL d   1      31.190 -14.362  -2.868  0.00  0.00     0.210 C 
ENDBRANCH   9  15
ENDBRANCH   1   5
BRANCH   3  17
ATOM     17  N   UNL d   1      25.013 -17.132  -0.626  0.00  0.00    -0.274 N 
ATOM     18  H   UNL d   1      25.750 -17.316   0.058  0.00  0.00     0.189 HD
BRANCH  17  19
ATOM     19  C   UNL d   1      23.686 -17.449  -0.463  0.00  0.00     0.186 C 
ATOM     20  S   UNL d   1      22.495 -16.257  -0.521  0.00  0.00    -0.040 SA
BRANCH  19  21
ATOM     21  N   UNL d   1      23.438 -18.799  -0.256  0.00  0.00    -0.366 N 
ATOM     22  H   UNL d   1      24.189 -19.423   0.016  0.00  0.00     0.161 HD
BRANCH  21  23
ATOM     23  C   UNL d   1      22.126 -19.369  -0.521  0.00  0.00     0.122 C 
BRANCH  23  24
ATOM     24  C   UNL d   1      21.077 -19.188   0.569  0.00  0.00     0.023 C 
BRANCH  24  25
ATOM     25  C   UNL d   1      19.871 -20.130   0.341  0.00  0.00    -0.021 C 
ATOM     26  C   UNL d   1      18.932 -20.164   1.551  0.00  0.00     0.009 C 
ATOM     27  C   UNL d   1      19.083 -19.692  -0.894  0.00  0.00     0.009 C 
ENDBRANCH  24  25
ENDBRANCH  23  24
ENDBRANCH  21  23
ENDBRANCH  19  21
ENDBRANCH  17  19
ENDBRANCH   3  17
TORSDOF 10
ENDMDL
MODEL 7
REMARK VINA RESULT:    -5.867      3.897      8.237
REMARK INTER + INTRA:         -11.062
REMARK INTER:                  -8.850
REMARK INTRA:                  -2.212
REMARK CONF_INDEPENDENT:        2.983
REMARK UNBOUND:                -2.212
REMARK  10 active torsions:
REMARK  status: ('A' for Active; 'I' for Inactive)
REMARK    1  A    between atoms: O_2  and  C_3 
REMARK    2  A    between atoms: C_5  and  O_6 
REMARK    3  A    between atoms: C_8  and  C_9 
REMARK       I    between atoms: C_9  and  N_11 
REMARK    4  A    between atoms: N_11  and  N_12 
REMARK    5  A    between atoms: N_12  and  C_13 
REMARK    6  A    between atoms: C_13  and  N_15 
REMARK    7  A    between atoms: N_15  and  C_16 
REMARK    8  A    between atoms: C_16  and  C_17 
REMARK    9  A    between atoms: C_17  and  C_18 
REMARK   10  A    between atoms: C_22  and  O_23 
ROOT
ATOM      1  C   UNL d   1      27.772 -15.809  -3.091  0.00  0.00     0.273 C 
ATOM      2  O   UNL d   1      28.869 -16.176  -2.720  0.00  0.00    -0.266 OA
ATOM      3  N   UNL d   1      27.788 -15.114  -4.291  0.00  0.00    -0.264 N 
ATOM      4  H   UNL d   1      26.996 -14.837  -4.855  0.00  0.00     0.190 HD
ENDROOT
BRANCH   1   5
ATOM      5  C   UNL d   1      26.431 -16.095  -2.379  0.00  0.00     0.069 C 
ATOM      6  C   UNL d   1      25.177 -15.524  -2.690  0.00  0.00     0.086 C 
ATOM      7  C   UNL d   1      24.061 -15.732  -1.810  0.00  0.00     0.077 C 
ATOM      8  C   UNL d   1      24.077 -16.610  -0.700  0.00  0.00     0.104 C 
ATOM      9  C   UNL d   1      25.300 -17.247  -0.450  0.00  0.00     0.102 C 
ATOM     10  C   UNL d   1      26.430 -16.973  -1.279  0.00  0.00     0.059 C 
BRANCH   6  11
ATOM     11  O   UNL d   1      24.780 -14.825  -3.812  0.00  0.00    -0.355 OA
ATOM     12  C   UNL d   1      25.072 -13.438  -3.877  0.00  0.00     0.210 C 
ENDBRANCH   6  11
BRANCH   8  13
ATOM     13  O   UNL d   1      22.814 -16.917  -0.233  0.00  0.00    -0.353 OA
ATOM     14  C   UNL d   1      22.246 -18.228  -0.213  0.00  0.00     0.210 C 
ENDBRANCH   8  13
BRANCH   9  15
ATOM     15  O   UNL d   1      25.665 -18.195   0.476  0.00  0.00    -0.353 OA
ATOM     16  C   UNL d   1      27.030 -18.498   0.546  0.00  0.00     0.210 C 
ENDBRANCH   9  15
ENDBRANCH   1   5
BRANCH   3  17
ATOM     17  N   UNL d   1      29.080 -14.910  -4.871  0.00  0.00    -0.274 N 
ATOM     18  H   UNL d   1      29.864 -15.134  -4.255  0.00  0.00     0.189 HD
BRANCH  17  19
ATOM     19  C   UNL d   1      29.193 -14.477  -6.170  0.00  0.00     0.186 C 
ATOM     20  S   UNL d   1      28.574 -12.981  -6.644  0.00  0.00    -0.040 SA
BRANCH  19  21
ATOM     21  N   UNL d   1      29.845 -15.362  -7.017  0.00  0.00    -0.366 N 
ATOM     22  H   UNL d   1      29.607 -15.400  -8.002  0.00  0.00     0.161 HD
BRANCH  21  23
ATOM     23  C   UNL d   1      30.806 -16.323  -6.500  0.00  0.00     0.122 C 
BRANCH  23  24
ATOM     24  C   UNL d   1      30.933 -17.634  -7.266  0.00  0.00     0.023 C 
BRANCH  24  25
ATOM     25  C   UNL d   1      31.054 -18.834  -6.299  0.00  0.00    -0.021 C 
ATOM     26  C   UNL d   1      30.405 -18.545  -4.941  0.00  0.00     0.009 C 
ATOM     27  C   UNL d   1      30.405 -20.075  -6.911  0.00  0.00     0.009 C 
ENDBRANCH  24  25
ENDBRANCH  23  24
ENDBRANCH  21  23
ENDBRANCH  19  21
ENDBRANCH  17  19
ENDBRANCH   3  17
TORSDOF 10
ENDMDL
MODEL 8
REMARK VINA RESULT:    -5.730      3.824      7.950
REMARK INTER + INTRA:         -11.279
REMARK INTER:                  -8.713
REMARK INTRA:                  -2.565
REMARK CONF_INDEPENDENT:        2.983
REMARK UNBOUND:                -2.565
REMARK  10 active torsions:
REMARK  status: ('A' for Active; 'I' for Inactive)
REMARK    1  A    between atoms: O_2  and  C_3 
REMARK    2  A    between atoms: C_5  and  O_6 
REMARK    3  A    between atoms: C_8  and  C_9 
REMARK       I    between atoms: C_9  and  N_11 
REMARK    4  A    between atoms: N_11  and  N_12 
REMARK    5  A    between atoms: N_12  and  C_13 
REMARK    6  A    between atoms: C_13  and  N_15 
REMARK    7  A    between atoms: N_15  and  C_16 
REMARK    8  A    between atoms: C_16  and  C_17 
REMARK    9  A    between atoms: C_17  and  C_18 
REMARK   10  A    between atoms: C_22  and  O_23 
ROOT
ATOM      1  C   UNL d   1      24.888 -14.149  -3.233  0.00  0.00     0.273 C 
ATOM      2  O   UNL d   1      23.869 -14.040  -3.886  0.00  0.00    -0.266 OA
ATOM      3  N   UNL d   1      25.832 -13.167  -3.495  0.00  0.00    -0.264 N 
ATOM      4  H   UNL d   1      26.683 -12.976  -2.984  0.00  0.00     0.190 HD
ENDROOT
BRANCH   1   5
ATOM      5  C   UNL d   1      25.164 -15.220  -2.154  0.00  0.00     0.069 C 
ATOM      6  C   UNL d   1      26.426 -15.582  -1.634  0.00  0.00     0.086 C 
ATOM      7  C   UNL d   1      26.544 -16.735  -0.785  0.00  0.00     0.077 C 
ATOM      8  C   UNL d   1      25.443 -17.476  -0.292  0.00  0.00     0.104 C 
ATOM      9  C   UNL d   1      24.183 -17.054  -0.738  0.00  0.00     0.102 C 
ATOM     10  C   UNL d   1      24.077 -15.958  -1.647  0.00  0.00     0.059 C 
BRANCH   6  11
ATOM     11  O   UNL d   1      27.640 -14.932  -1.731  0.00  0.00    -0.355 OA
ATOM     12  C   UNL d   1      28.825 -15.705  -1.640  0.00  0.00     0.210 C 
ENDBRANCH   6  11
BRANCH   8  13
ATOM     13  O   UNL d   1      25.771 -18.294   0.770  0.00  0.00    -0.353 OA
ATOM     14  C   UNL d   1      27.030 -18.951   0.937  0.00  0.00     0.210 C 
ENDBRANCH   8  13
BRANCH   9  15
ATOM     15  O   UNL d   1      22.912 -17.477  -0.425  0.00  0.00    -0.353 OA
ATOM     16  C   UNL d   1      22.466 -18.631  -1.080  0.00  0.00     0.210 C 
ENDBRANCH   9  15
ENDBRANCH   1   5
BRANCH   3  17
ATOM     17  N   UNL d   1      25.474 -12.221  -4.506  0.00  0.00    -0.274 N 
ATOM     18  H   UNL d   1      24.469 -12.093  -4.635  0.00  0.00     0.189 HD
BRANCH  17  19
ATOM     19  C   UNL d   1      26.452 -11.543  -5.194  0.00  0.00     0.186 C 
ATOM     20  S   UNL d   1      26.095 -10.708  -6.615  0.00  0.00    -0.040 SA
BRANCH  19  21
ATOM     21  N   UNL d   1      27.714 -11.614  -4.620  0.00  0.00    -0.366 N 
ATOM     22  H   UNL d   1      28.128 -10.796  -4.187  0.00  0.00     0.161 HD
BRANCH  21  23
ATOM     23  C   UNL d   1      28.512 -12.827  -4.714  0.00  0.00     0.122 C 
BRANCH  23  24
ATOM     24  C   UNL d   1      28.635 -13.451  -6.099  0.00  0.00     0.023 C 
BRANCH  24  25
ATOM     25  C   UNL d   1      28.315 -14.964  -6.057  0.00  0.00    -0.021 C 
ATOM     26  C   UNL d   1      29.388 -15.756  -5.302  0.00  0.00     0.009 C 
ATOM     27  C   UNL d   1      26.957 -15.200  -5.395  0.00  0.00     0.009 C 
ENDBRANCH  24  25
ENDBRANCH  23  24
ENDBRANCH  21  23
ENDBRANCH  19  21
ENDBRANCH  17  19
ENDBRANCH   3  17
TORSDOF 10
ENDMDL
MODEL 9
REMARK VINA RESULT:    -5.460      3.916      7.932
REMARK INTER + INTRA:         -10.882
REMARK INTER:                  -8.443
REMARK INTRA:                  -2.440
REMARK CONF_INDEPENDENT:        2.983
REMARK UNBOUND:                -2.440
REMARK  10 active torsions:
REMARK  status: ('A' for Active; 'I' for Inactive)
REMARK    1  A    between atoms: O_2  and  C_3 
REMARK    2  A    between atoms: C_5  and  O_6 
REMARK    3  A    between atoms: C_8  and  C_9 
REMARK       I    between atoms: C_9  and  N_11 
REMARK    4  A    between atoms: N_11  and  N_12 
REMARK    5  A    between atoms: N_12  and  C_13 
REMARK    6  A    between atoms: C_13  and  N_15 
REMARK    7  A    between atoms: N_15  and  C_16 
REMARK    8  A    between atoms: C_16  and  C_17 
REMARK    9  A    between atoms: C_17  and  C_18 
REMARK   10  A    between atoms: C_22  and  O_23 
ROOT
ATOM      1  C   UNL d   1      28.073 -15.935  -3.069  0.00  0.00     0.273 C 
ATOM      2  O   UNL d   1      29.149 -16.123  -2.536  0.00  0.00    -0.266 OA
ATOM      3  N   UNL d   1      28.164 -15.555  -4.400  0.00  0.00    -0.264 N 
ATOM      4  H   UNL d   1      27.414 -15.480  -5.074  0.00  0.00     0.190 HD
ENDROOT
BRANCH   1   5
ATOM      5  C   UNL d   1      26.689 -16.131  -2.412  0.00  0.00     0.069 C 
ATOM      6  C   UNL d   1      25.474 -15.539  -2.822  0.00  0.00     0.086 C 
ATOM      7  C   UNL d   1      24.307 -15.655  -1.991  0.00  0.00     0.077 C 
ATOM      8  C   UNL d   1      24.235 -16.462  -0.831  0.00  0.00     0.104 C 
ATOM      9  C   UNL d   1      25.420 -17.124  -0.480  0.00  0.00     0.102 C 
ATOM     10  C   UNL d   1      26.599 -16.939  -1.263  0.00  0.00     0.059 C 
BRANCH   6  11
ATOM     11  O   UNL d   1      25.159 -14.897  -4.004  0.00  0.00    -0.355 OA
ATOM     12  C   UNL d   1      24.401 -13.700  -3.936  0.00  0.00     0.210 C 
ENDBRANCH   6  11
BRANCH   8  13
ATOM     13  O   UNL d   1      22.940 -16.697  -0.414  0.00  0.00    -0.353 OA
ATOM     14  C   UNL d   1      22.160 -17.840  -0.773  0.00  0.00     0.210 C 
ENDBRANCH   8  13
BRANCH   9  15
ATOM     15  O   UNL d   1      25.703 -18.025   0.519  0.00  0.00    -0.353 OA
ATOM     16  C   UNL d   1      27.032 -18.456   0.605  0.00  0.00     0.210 C 
ENDBRANCH   9  15
ENDBRANCH   1   5
BRANCH   3  17
ATOM     17  N   UNL d   1      29.492 -15.409  -4.912  0.00  0.00    -0.274 N 
ATOM     18  H   UNL d   1      30.207 -15.245  -4.202  0.00  0.00     0.189 HD
BRANCH  17  19
ATOM     19  C   UNL d   1      29.728 -15.524  -6.261  0.00  0.00     0.186 C 
ATOM     20  S   UNL d   1      30.708 -16.753  -6.870  0.00  0.00    -0.040 SA
BRANCH  19  21
ATOM     21  N   UNL d   1      29.099 -14.561  -7.039  0.00  0.00    -0.366 N 
ATOM     22  H   UNL d   1      28.919 -14.733  -8.022  0.00  0.00     0.161 HD
BRANCH  21  23
ATOM     23  C   UNL d   1      28.778 -13.251  -6.494  0.00  0.00     0.122 C 
BRANCH  23  24
ATOM     24  C   UNL d   1      27.375 -13.079  -5.925  0.00  0.00     0.023 C 
BRANCH  24  25
ATOM     25  C   UNL d   1      27.262 -11.768  -5.112  0.00  0.00    -0.021 C 
ATOM     26  C   UNL d   1      25.931 -11.050  -5.364  0.00  0.00     0.009 C 
ATOM     27  C   UNL d   1      27.400 -12.059  -3.618  0.00  0.00     0.009 C 
ENDBRANCH  24  25
ENDBRANCH  23  24
ENDBRANCH  21  23
ENDBRANCH  19  21
ENDBRANCH  17  19
ENDBRANCH   3  17
TORSDOF 10
ENDMDL
