MODEL 1
REMARK VINA RESULT:    -8.457      0.000      0.000
REMARK INTER + INTRA:         -12.552
REMARK INTER:                 -10.844
REMARK INTRA:                  -1.709
REMARK CONF_INDEPENDENT:        2.386
REMARK UNBOUND:                -1.709
REMARK  8 active torsions:
REMARK  status: ('A' for Active; 'I' for Inactive)
REMARK    1  A    between atoms: C_2  and  C_3 
REMARK    2  A    between atoms: C_3  and  C_4 
REMARK    3  A    between atoms: C_4  and  N_5 
REMARK       I    between atoms: N_5  and  C_6 
REMARK       I    between atoms: C_6  and  N_8 
REMARK    4  A    between atoms: N_8  and  N_9 
REMARK       I    between atoms: N_9  and  C_10 
REMARK    5  A    between atoms: C_10  and  C_12 
REMARK    6  A    between atoms: C_12  and  C_13 
REMARK    7  A    between atoms: C_17  and  O_18 
REMARK    8  A    between atoms: O_18  and  C_19 
ROOT
ATOM      1  N   UNL d   1      24.060 -17.476  -0.144  0.00  0.00    -0.266 N 
ATOM      2  C   UNL d   1      25.396 -17.558   0.232  0.00  0.00     0.240 C 
ATOM      3  O   UNL d   1      25.824 -18.579   0.777  0.00  0.00    -0.272 OA
ATOM      4  H   UNL d   1      23.629 -16.664  -0.581  0.00  0.00     0.190 HD
ENDROOT
BRANCH   2   5
ATOM      5  C   UNL d   1      26.277 -16.316  -0.073  0.00  0.00     0.143 C 
BRANCH   5   6
ATOM      6  C   UNL d   1      26.597 -16.179  -1.559  0.00  0.00    -0.047 C 
ATOM      7  C   UNL d   1      27.898 -16.347  -2.036  0.00  0.00     0.007 C 
ATOM      8  C   UNL d   1      28.249 -15.863  -3.300  0.00  0.00     0.003 C 
ATOM      9  C   UNL d   1      27.290 -15.265  -4.124  0.00  0.00     0.037 C 
ATOM     10  C   UNL d   1      25.968 -15.164  -3.690  0.00  0.00     0.069 C 
ATOM     11  C   UNL d   1      25.625 -15.695  -2.441  0.00  0.00     0.044 C 
BRANCH  10  12
ATOM     12  O   UNL d   1      25.115 -14.455  -4.500  0.00  0.00    -0.347 OA
BRANCH  12  13
ATOM     13  C   UNL d   1      25.202 -13.020  -4.463  0.00  0.00     0.120 C 
ATOM     14  C   UNL d   1      25.527 -12.466  -3.066  0.00  0.00     0.040 C 
ATOM     15  C   UNL d   1      26.334 -12.586  -5.395  0.00  0.00     0.040 C 
ENDBRANCH  12  13
ENDBRANCH  10  12
ENDBRANCH   5   6
ENDBRANCH   2   5
BRANCH   1  16
ATOM     16  N   UNL d   1      23.196 -18.602   0.086  0.00  0.00    -0.249 N 
ATOM     17  C   UNL d   1      21.877 -18.549  -0.330  0.00  0.00     0.334 C 
ATOM     18  N   UNL d   1      21.132 -19.684  -0.072  0.00  0.00    -0.342 N 
ATOM     19  O   UNL d   1      21.412 -17.553  -0.891  0.00  0.00    -0.246 OA
ATOM     20  H   UNL d   1      21.563 -20.473   0.389  0.00  0.00     0.164 HD
ATOM     21  H   UNL d   1      23.621 -19.402   0.548  0.00  0.00     0.192 HD
BRANCH  18  22
ATOM     22  C   UNL d   1      19.719 -19.772  -0.455  0.00  0.00     0.124 C 
BRANCH  22  23
ATOM     23  C   UNL d   1      18.914 -20.818   0.331  0.00  0.00     0.019 C 
BRANCH  23  24
ATOM     24  C   UNL d   1      18.623 -20.366   1.774  0.00  0.00    -0.003 C 
ATOM     25  C   UNL d   1      19.908 -20.083   2.544  0.00  0.00     0.005 C 
ENDBRANCH  23  24
ENDBRANCH  22  23
ENDBRANCH  18  22
ENDBRANCH   1  16
TORSDOF 8
ENDMDL
MODEL 2
REMARK VINA RESULT:    -8.264      1.395      2.261
REMARK INTER + INTRA:         -12.399
REMARK INTER:                 -10.651
REMARK INTRA:                  -1.748
REMARK CONF_INDEPENDENT:        2.386
REMARK UNBOUND:                -1.748
REMARK  8 active torsions:
REMARK  status: ('A' for Active; 'I' for Inactive)
REMARK    1  A    between atoms: C_2  and  C_3 
REMARK    2  A    between atoms: C_3  and  C_4 
REMARK    3  A    between atoms: C_4  and  N_5 
REMARK       I    between atoms: N_5  and  C_6 
REMARK       I    between atoms: C_6  and  N_8 
REMARK    4  A    between atoms: N_8  and  N_9 
REMARK       I    between atoms: N_9  and  C_10 
REMARK    5  A    between atoms: C_10  and  C_12 
REMARK    6  A    between atoms: C_12  and  C_13 
REMARK    7  A    between atoms: C_17  and  O_18 
REMARK    8  A    between atoms: O_18  and  C_19 
ROOT
ATOM      1  N   UNL d   1      24.645 -17.212  -0.298  0.00  0.00    -0.266 N 
ATOM      2  C   UNL d   1      26.015 -17.442  -0.255  0.00  0.00     0.240 C 
ATOM      3  O   UNL d   1      26.448 -18.571  -0.006  0.00  0.00    -0.272 OA
ATOM      4  H   UNL d   1      24.213 -16.309  -0.479  0.00  0.00     0.190 HD
ENDROOT
BRANCH   2   5
ATOM      5  C   UNL d   1      26.929 -16.218  -0.535  0.00  0.00     0.143 C 
BRANCH   5   6
ATOM      6  C   UNL d   1      26.526 -15.466  -1.800  0.00  0.00    -0.047 C 
ATOM      7  C   UNL d   1      25.291 -14.822  -1.895  0.00  0.00     0.007 C 
ATOM      8  C   UNL d   1      24.779 -14.469  -3.148  0.00  0.00     0.003 C 
ATOM      9  C   UNL d   1      25.524 -14.697  -4.310  0.00  0.00     0.037 C 
ATOM     10  C   UNL d   1      26.794 -15.267  -4.220  0.00  0.00     0.069 C 
ATOM     11  C   UNL d   1      27.309 -15.572  -2.955  0.00  0.00     0.044 C 
BRANCH  10  12
ATOM     12  O   UNL d   1      27.407 -15.575  -5.410  0.00  0.00    -0.347 OA
BRANCH  12  13
ATOM     13  C   UNL d   1      28.740 -15.078  -5.619  0.00  0.00     0.120 C 
ATOM     14  C   UNL d   1      29.782 -16.193  -5.807  0.00  0.00     0.040 C 
ATOM     15  C   UNL d   1      28.742 -14.240  -6.898  0.00  0.00     0.040 C 
ENDBRANCH  12  13
ENDBRANCH  10  12
ENDBRANCH   5   6
ENDBRANCH   2   5
BRANCH   1  16
ATOM     16  N   UNL d   1      23.743 -18.310  -0.074  0.00  0.00    -0.249 N 
ATOM     17  C   UNL d   1      22.407 -18.177  -0.409  0.00  0.00     0.334 C 
ATOM     18  N   UNL d   1      21.625 -19.290  -0.166  0.00  0.00    -0.342 N 
ATOM     19  O   UNL d   1      21.958 -17.134  -0.892  0.00  0.00    -0.246 OA
ATOM     20  H   UNL d   1      22.043 -20.121   0.230  0.00  0.00     0.164 HD
ATOM     21  H   UNL d   1      24.155 -19.151   0.322  0.00  0.00     0.192 HD
BRANCH  18  22
ATOM     22  C   UNL d   1      20.190 -19.295  -0.469  0.00  0.00     0.124 C 
BRANCH  22  23
ATOM     23  C   UNL d   1      19.414 -20.462   0.161  0.00  0.00     0.019 C 
BRANCH  23  24
ATOM     24  C   UNL d   1      18.841 -20.102   1.544  0.00  0.00    -0.003 C 
ATOM     25  C   UNL d   1      19.927 -20.078   2.613  0.00  0.00     0.005 C 
ENDBRANCH  23  24
ENDBRANCH  22  23
ENDBRANCH  18  22
ENDBRANCH   1  16
TORSDOF 8
ENDMDL
MODEL 3
REMARK VINA RESULT:    -8.121      1.425      2.157
REMARK INTER + INTRA:         -12.261
REMARK INTER:                 -10.508
REMARK INTRA:                  -1.754
REMARK CONF_INDEPENDENT:        2.386
REMARK UNBOUND:                -1.754
REMARK  8 active torsions:
REMARK  status: ('A' for Active; 'I' for Inactive)
REMARK    1  A    between atoms: C_2  and  C_3 
REMARK    2  A    between atoms: C_3  and  C_4 
REMARK    3  A    between atoms: C_4  and  N_5 
REMARK       I    between atoms: N_5  and  C_6 
REMARK       I    between atoms: C_6  and  N_8 
REMARK    4  A    between atoms: N_8  and  N_9 
REMARK       I    between atoms: N_9  and  C_10 
REMARK    5  A    between atoms: C_10  and  C_12 
REMARK    6  A    between atoms: C_12  and  C_13 
REMARK    7  A    between atoms: C_17  and  O_18 
REMARK    8  A    between atoms: O_18  and  C_19 
ROOT
ATOM      1  N   UNL d   1      24.830 -17.852  -0.906  0.00  0.00    -0.266 N 
ATOM      2  C   UNL d   1      26.014 -17.502  -0.266  0.00  0.00     0.240 C 
ATOM      3  O   UNL d   1      26.120 -17.632   0.957  0.00  0.00    -0.272 OA
ATOM      4  H   UNL d   1      24.661 -17.758  -1.905  0.00  0.00     0.190 HD
ENDROOT
BRANCH   2   5
ATOM      5  C   UNL d   1      27.153 -16.956  -1.171  0.00  0.00     0.143 C 
BRANCH   5   6
ATOM      6  C   UNL d   1      26.660 -15.899  -2.155  0.00  0.00    -0.047 C 
ATOM      7  C   UNL d   1      25.494 -15.171  -1.910  0.00  0.00     0.007 C 
ATOM      8  C   UNL d   1      24.855 -14.496  -2.955  0.00  0.00     0.003 C 
ATOM      9  C   UNL d   1      25.409 -14.489  -4.239  0.00  0.00     0.037 C 
ATOM     10  C   UNL d   1      26.617 -15.146  -4.479  0.00  0.00     0.069 C 
ATOM     11  C   UNL d   1      27.265 -15.778  -3.411  0.00  0.00     0.044 C 
BRANCH  10  12
ATOM     12  O   UNL d   1      27.030 -15.199  -5.787  0.00  0.00    -0.347 OA
BRANCH  12  13
ATOM     13  C   UNL d   1      28.148 -14.379  -6.166  0.00  0.00     0.120 C 
ATOM     14  C   UNL d   1      28.419 -13.228  -5.183  0.00  0.00     0.040 C 
ATOM     15  C   UNL d   1      29.399 -15.258  -6.187  0.00  0.00     0.040 C 
ENDBRANCH  12  13
ENDBRANCH  10  12
ENDBRANCH   5   6
ENDBRANCH   2   5
BRANCH   1  16
ATOM     16  N   UNL d   1      23.746 -18.388  -0.129  0.00  0.00    -0.249 N 
ATOM     17  C   UNL d   1      22.631 -18.897  -0.771  0.00  0.00     0.334 C 
ATOM     18  N   UNL d   1      21.649 -19.398   0.062  0.00  0.00    -0.342 N 
ATOM     19  O   UNL d   1      22.532 -18.898  -2.001  0.00  0.00    -0.246 OA
ATOM     20  H   UNL d   1      21.780 -19.375   1.064  0.00  0.00     0.164 HD
ATOM     21  H   UNL d   1      23.870 -18.371   0.880  0.00  0.00     0.192 HD
BRANCH  18  22
ATOM     22  C   UNL d   1      20.409 -19.968  -0.476  0.00  0.00     0.124 C 
BRANCH  22  23
ATOM     23  C   UNL d   1      19.140 -19.557   0.285  0.00  0.00     0.019 C 
BRANCH  23  24
ATOM     24  C   UNL d   1      18.822 -20.515   1.448  0.00  0.00    -0.003 C 
ATOM     25  C   UNL d   1      17.804 -21.574   1.042  0.00  0.00     0.005 C 
ENDBRANCH  23  24
ENDBRANCH  22  23
ENDBRANCH  18  22
ENDBRANCH   1  16
TORSDOF 8
ENDMDL
MODEL 4
REMARK VINA RESULT:    -7.602      3.892      8.714
REMARK INTER + INTRA:         -11.654
REMARK INTER:                  -9.989
REMARK INTRA:                  -1.666
REMARK CONF_INDEPENDENT:        2.386
REMARK UNBOUND:                -1.666
REMARK  8 active torsions:
REMARK  status: ('A' for Active; 'I' for Inactive)
REMARK    1  A    between atoms: C_2  and  C_3 
REMARK    2  A    between atoms: C_3  and  C_4 
REMARK    3  A    between atoms: C_4  and  N_5 
REMARK       I    between atoms: N_5  and  C_6 
REMARK       I    between atoms: C_6  and  N_8 
REMARK    4  A    between atoms: N_8  and  N_9 
REMARK       I    between atoms: N_9  and  C_10 
REMARK    5  A    between atoms: C_10  and  C_12 
REMARK    6  A    between atoms: C_12  and  C_13 
REMARK    7  A    between atoms: C_17  and  O_18 
REMARK    8  A    between atoms: O_18  and  C_19 
ROOT
ATOM      1  N   UNL d   1      26.281 -13.029  -3.511  0.00  0.00    -0.266 N 
ATOM      2  C   UNL d   1      25.762 -14.303  -3.714  0.00  0.00     0.240 C 
ATOM      3  O   UNL d   1      24.635 -14.443  -4.198  0.00  0.00    -0.272 OA
ATOM      4  H   UNL d   1      27.193 -12.832  -3.103  0.00  0.00     0.190 HD
ENDROOT
BRANCH   2   5
ATOM      5  C   UNL d   1      26.672 -15.493  -3.304  0.00  0.00     0.143 C 
BRANCH   5   6
ATOM      6  C   UNL d   1      26.236 -16.134  -1.990  0.00  0.00    -0.047 C 
ATOM      7  C   UNL d   1      27.109 -16.224  -0.904  0.00  0.00     0.007 C 
ATOM      8  C   UNL d   1      26.846 -17.122   0.135  0.00  0.00     0.003 C 
ATOM      9  C   UNL d   1      25.678 -17.890   0.132  0.00  0.00     0.037 C 
ATOM     10  C   UNL d   1      24.757 -17.751  -0.908  0.00  0.00     0.069 C 
ATOM     11  C   UNL d   1      25.015 -16.815  -1.916  0.00  0.00     0.044 C 
BRANCH  10  12
ATOM     12  O   UNL d   1      23.700 -18.627  -0.905  0.00  0.00    -0.347 OA
BRANCH  12  13
ATOM     13  C   UNL d   1      22.475 -18.190  -0.294  0.00  0.00     0.120 C 
ATOM     14  C   UNL d   1      22.181 -16.697  -0.521  0.00  0.00     0.040 C 
ATOM     15  C   UNL d   1      21.322 -18.976  -0.921  0.00  0.00     0.040 C 
ENDBRANCH  12  13
ENDBRANCH  10  12
ENDBRANCH   5   6
ENDBRANCH   2   5
BRANCH   1  16
ATOM     16  N   UNL d   1      25.500 -11.884  -3.894  0.00  0.00    -0.249 N 
ATOM     17  C   UNL d   1      25.973 -10.612  -3.624  0.00  0.00     0.334 C 
ATOM     18  N   UNL d   1      25.155  -9.579  -4.040  0.00  0.00    -0.342 N 
ATOM     19  O   UNL d   1      27.050 -10.427  -3.052  0.00  0.00    -0.246 OA
ATOM     20  H   UNL d   1      24.283  -9.786  -4.506  0.00  0.00     0.164 HD
ATOM     21  H   UNL d   1      24.621 -12.082  -4.366  0.00  0.00     0.192 HD
BRANCH  18  22
ATOM     22  C   UNL d   1      25.525  -8.177  -3.820  0.00  0.00     0.124 C 
BRANCH  22  23
ATOM     23  C   UNL d   1      24.890  -7.191  -4.813  0.00  0.00     0.019 C 
BRANCH  23  24
ATOM     24  C   UNL d   1      23.671  -7.795  -5.534  0.00  0.00    -0.003 C 
ATOM     25  C   UNL d   1      22.437  -6.912  -5.387  0.00  0.00     0.005 C 
ENDBRANCH  23  24
ENDBRANCH  22  23
ENDBRANCH  18  22
ENDBRANCH   1  16
TORSDOF 8
ENDMDL
MODEL 5
REMARK VINA RESULT:    -7.566      1.348      1.767
REMARK INTER + INTRA:         -11.696
REMARK INTER:                  -9.952
REMARK INTRA:                  -1.744
REMARK CONF_INDEPENDENT:        2.386
REMARK UNBOUND:                -1.744
REMARK  8 active torsions:
REMARK  status: ('A' for Active; 'I' for Inactive)
REMARK    1  A    between atoms: C_2  and  C_3 
REMARK    2  A    between atoms: C_3  and  C_4 
REMARK    3  A    between atoms: C_4  and  N_5 
REMARK       I    between atoms: N_5  and  C_6 
REMARK       I    between atoms: C_6  and  N_8 
REMARK    4  A    between atoms: N_8  and  N_9 
REMARK       I    between atoms: N_9  and  C_10 
REMARK    5  A    between atoms: C_10  and  C_12 
REMARK    6  A    between atoms: C_12  and  C_13 
REMARK    7  A    between atoms: C_17  and  O_18 
REMARK    8  A    between atoms: O_18  and  C_19 
ROOT
ATOM      1  N   UNL d   1      25.158 -17.901  -0.278  0.00  0.00    -0.266 N 
ATOM      2  C   UNL d   1      26.313 -17.997   0.490  0.00  0.00     0.240 C 
ATOM      3  O   UNL d   1      26.287 -18.576   1.579  0.00  0.00    -0.272 OA
ATOM      4  H   UNL d   1      25.096 -17.426  -1.176  0.00  0.00     0.190 HD
ENDROOT
BRANCH   2   5
ATOM      5  C   UNL d   1      27.593 -17.347  -0.104  0.00  0.00     0.143 C 
BRANCH   5   6
ATOM      6  C   UNL d   1      27.314 -15.991  -0.745  0.00  0.00    -0.047 C 
ATOM      7  C   UNL d   1      27.610 -14.801  -0.076  0.00  0.00     0.007 C 
ATOM      8  C   UNL d   1      27.023 -13.600  -0.489  0.00  0.00     0.003 C 
ATOM      9  C   UNL d   1      26.188 -13.566  -1.611  0.00  0.00     0.037 C 
ATOM     10  C   UNL d   1      25.949 -14.734  -2.335  0.00  0.00     0.069 C 
ATOM     11  C   UNL d   1      26.581 -15.917  -1.934  0.00  0.00     0.044 C 
BRANCH  10  12
ATOM     12  O   UNL d   1      25.022 -14.644  -3.344  0.00  0.00    -0.347 OA
BRANCH  12  13
ATOM     13  C   UNL d   1      25.498 -14.294  -4.655  0.00  0.00     0.120 C 
ATOM     14  C   UNL d   1      26.725 -13.367  -4.630  0.00  0.00     0.040 C 
ATOM     15  C   UNL d   1      25.918 -15.578  -5.370  0.00  0.00     0.040 C 
ENDBRANCH  12  13
ENDBRANCH  10  12
ENDBRANCH   5   6
ENDBRANCH   2   5
BRANCH   1  16
ATOM     16  N   UNL d   1      23.944 -18.505   0.202  0.00  0.00    -0.249 N 
ATOM     17  C   UNL d   1      22.871 -18.660  -0.657  0.00  0.00     0.334 C 
ATOM     18  N   UNL d   1      21.756 -19.259  -0.104  0.00  0.00    -0.342 N 
ATOM     19  O   UNL d   1      22.918 -18.284  -1.832  0.00  0.00    -0.246 OA
ATOM     20  H   UNL d   1      21.770 -19.550   0.864  0.00  0.00     0.164 HD
ATOM     21  H   UNL d   1      23.950 -18.803   1.174  0.00  0.00     0.192 HD
BRANCH  18  22
ATOM     22  C   UNL d   1      20.541 -19.487  -0.894  0.00  0.00     0.124 C 
BRANCH  22  23
ATOM     23  C   UNL d   1      19.259 -19.629  -0.058  0.00  0.00     0.019 C 
BRANCH  23  24
ATOM     24  C   UNL d   1      19.402 -20.687   1.051  0.00  0.00    -0.003 C 
ATOM     25  C   UNL d   1      19.873 -20.067   2.362  0.00  0.00     0.005 C 
ENDBRANCH  23  24
ENDBRANCH  22  23
ENDBRANCH  18  22
ENDBRANCH   1  16
TORSDOF 8
ENDMDL
MODEL 6
REMARK VINA RESULT:    -7.365      1.344      1.711
REMARK INTER + INTRA:         -11.476
REMARK INTER:                  -9.751
REMARK INTRA:                  -1.725
REMARK CONF_INDEPENDENT:        2.386
REMARK UNBOUND:                -1.725
REMARK  8 active torsions:
REMARK  status: ('A' for Active; 'I' for Inactive)
REMARK    1  A    between atoms: C_2  and  C_3 
REMARK    2  A    between atoms: C_3  and  C_4 
REMARK    3  A    between atoms: C_4  and  N_5 
REMARK       I    between atoms: N_5  and  C_6 
REMARK       I    between atoms: C_6  and  N_8 
REMARK    4  A    between atoms: N_8  and  N_9 
REMARK       I    between atoms: N_9  and  C_10 
REMARK    5  A    between atoms: C_10  and  C_12 
REMARK    6  A    between atoms: C_12  and  C_13 
REMARK    7  A    between atoms: C_17  and  O_18 
REMARK    8  A    between atoms: O_18  and  C_19 
ROOT
ATOM      1  N   UNL d   1      24.211 -16.993  -0.323  0.00  0.00    -0.266 N 
ATOM      2  C   UNL d   1      25.590 -16.982  -0.141  0.00  0.00     0.240 C 
ATOM      3  O   UNL d   1      26.173 -18.000   0.245  0.00  0.00    -0.272 OA
ATOM      4  H   UNL d   1      23.659 -16.193  -0.621  0.00  0.00     0.190 HD
ENDROOT
BRANCH   2   5
ATOM      5  C   UNL d   1      26.316 -15.644  -0.447  0.00  0.00     0.143 C 
BRANCH   5   6
ATOM      6  C   UNL d   1      25.984 -15.106  -1.836  0.00  0.00    -0.047 C 
ATOM      7  C   UNL d   1      25.619 -15.964  -2.876  0.00  0.00     0.007 C 
ATOM      8  C   UNL d   1      25.683 -15.525  -4.202  0.00  0.00     0.003 C 
ATOM      9  C   UNL d   1      26.049 -14.207  -4.498  0.00  0.00     0.037 C 
ATOM     10  C   UNL d   1      26.338 -13.318  -3.463  0.00  0.00     0.069 C 
ATOM     11  C   UNL d   1      26.224 -13.761  -2.140  0.00  0.00     0.044 C 
BRANCH  10  12
ATOM     12  O   UNL d   1      26.809 -12.083  -3.837  0.00  0.00    -0.347 OA
BRANCH  12  13
ATOM     13  C   UNL d   1      25.851 -11.117  -4.301  0.00  0.00     0.120 C 
ATOM     14  C   UNL d   1      26.104  -9.700  -3.761  0.00  0.00     0.040 C 
ATOM     15  C   UNL d   1      25.948 -11.042  -5.825  0.00  0.00     0.040 C 
ENDBRANCH  12  13
ENDBRANCH  10  12
ENDBRANCH   5   6
ENDBRANCH   2   5
BRANCH   1  16
ATOM     16  N   UNL d   1      23.482 -18.209  -0.081  0.00  0.00    -0.249 N 
ATOM     17  C   UNL d   1      22.137 -18.274  -0.397  0.00  0.00     0.334 C 
ATOM     18  N   UNL d   1      21.529 -19.487  -0.137  0.00  0.00    -0.342 N 
ATOM     19  O   UNL d   1      21.534 -17.310  -0.876  0.00  0.00    -0.246 OA
ATOM     20  H   UNL d   1      22.069 -20.246   0.254  0.00  0.00     0.164 HD
ATOM     21  H   UNL d   1      24.018 -18.980   0.311  0.00  0.00     0.192 HD
BRANCH  18  22
ATOM     22  C   UNL d   1      20.105 -19.703  -0.419  0.00  0.00     0.124 C 
BRANCH  22  23
ATOM     23  C   UNL d   1      19.171 -19.384   0.759  0.00  0.00     0.019 C 
BRANCH  23  24
ATOM     24  C   UNL d   1      18.853 -20.631   1.604  0.00  0.00    -0.003 C 
ATOM     25  C   UNL d   1      17.906 -21.578   0.876  0.00  0.00     0.005 C 
ENDBRANCH  23  24
ENDBRANCH  22  23
ENDBRANCH  18  22
ENDBRANCH   1  16
TORSDOF 8
ENDMDL
MODEL 7
REMARK VINA RESULT:    -7.097      2.004      2.646
REMARK INTER + INTRA:         -11.099
REMARK INTER:                  -9.483
REMARK INTRA:                  -1.616
REMARK CONF_INDEPENDENT:        2.386
REMARK UNBOUND:                -1.616
REMARK  8 active torsions:
REMARK  status: ('A' for Active; 'I' for Inactive)
REMARK    1  A    between atoms: C_2  and  C_3 
REMARK    2  A    between atoms: C_3  and  C_4 
REMARK    3  A    between atoms: C_4  and  N_5 
REMARK       I    between atoms: N_5  and  C_6 
REMARK       I    between atoms: C_6  and  N_8 
REMARK    4  A    between atoms: N_8  and  N_9 
REMARK       I    between atoms: N_9  and  C_10 
REMARK    5  A    between atoms: C_10  and  C_12 
REMARK    6  A    between atoms: C_12  and  C_13 
REMARK    7  A    between atoms: C_17  and  O_18 
REMARK    8  A    between atoms: O_18  and  C_19 
ROOT
ATOM      1  N   UNL d   1      23.326 -17.611  -0.618  0.00  0.00    -0.266 N 
ATOM      2  C   UNL d   1      24.645 -17.404  -0.232  0.00  0.00     0.240 C 
ATOM      3  O   UNL d   1      25.201 -18.202   0.528  0.00  0.00    -0.272 OA
ATOM      4  H   UNL d   1      22.795 -16.991  -1.227  0.00  0.00     0.190 HD
ENDROOT
BRANCH   2   5
ATOM      5  C   UNL d   1      25.343 -16.142  -0.807  0.00  0.00     0.143 C 
BRANCH   5   6
ATOM      6  C   UNL d   1      26.857 -16.306  -0.905  0.00  0.00    -0.047 C 
ATOM      7  C   UNL d   1      27.648 -16.414   0.241  0.00  0.00     0.007 C 
ATOM      8  C   UNL d   1      29.026 -16.188   0.166  0.00  0.00     0.003 C 
ATOM      9  C   UNL d   1      29.636 -15.917  -1.064  0.00  0.00     0.037 C 
ATOM     10  C   UNL d   1      28.868 -15.886  -2.228  0.00  0.00     0.069 C 
ATOM     11  C   UNL d   1      27.498 -16.159  -2.140  0.00  0.00     0.044 C 
BRANCH  10  12
ATOM     12  O   UNL d   1      29.516 -15.490  -3.372  0.00  0.00    -0.347 OA
BRANCH  12  13
ATOM     13  C   UNL d   1      28.979 -15.937  -4.629  0.00  0.00     0.120 C 
ATOM     14  C   UNL d   1      28.674 -14.788  -5.604  0.00  0.00     0.040 C 
ATOM     15  C   UNL d   1      30.021 -16.833  -5.301  0.00  0.00     0.040 C 
ENDBRANCH  12  13
ENDBRANCH  10  12
ENDBRANCH   5   6
ENDBRANCH   2   5
BRANCH   1  16
ATOM     16  N   UNL d   1      22.630 -18.775  -0.142  0.00  0.00    -0.249 N 
ATOM     17  C   UNL d   1      21.287 -18.937  -0.433  0.00  0.00     0.334 C 
ATOM     18  N   UNL d   1      20.712 -20.093   0.060  0.00  0.00    -0.342 N 
ATOM     19  O   UNL d   1      20.658 -18.101  -1.088  0.00  0.00    -0.246 OA
ATOM     20  H   UNL d   1      21.273 -20.746   0.590  0.00  0.00     0.164 HD
ATOM     21  H   UNL d   1      23.187 -19.440   0.390  0.00  0.00     0.192 HD
BRANCH  18  22
ATOM     22  C   UNL d   1      19.296 -20.398  -0.167  0.00  0.00     0.124 C 
BRANCH  22  23
ATOM     23  C   UNL d   1      18.630 -21.195   0.965  0.00  0.00     0.019 C 
BRANCH  23  24
ATOM     24  C   UNL d   1      18.544 -20.389   2.273  0.00  0.00    -0.003 C 
ATOM     25  C   UNL d   1      19.926 -20.088   2.840  0.00  0.00     0.005 C 
ENDBRANCH  23  24
ENDBRANCH  22  23
ENDBRANCH  18  22
ENDBRANCH   1  16
TORSDOF 8
ENDMDL
MODEL 8
REMARK VINA RESULT:    -7.049      3.705      8.541
REMARK INTER + INTRA:         -11.170
REMARK INTER:                  -9.436
REMARK INTRA:                  -1.734
REMARK CONF_INDEPENDENT:        2.386
REMARK UNBOUND:                -1.734
REMARK  8 active torsions:
REMARK  status: ('A' for Active; 'I' for Inactive)
REMARK    1  A    between atoms: C_2  and  C_3 
REMARK    2  A    between atoms: C_3  and  C_4 
REMARK    3  A    between atoms: C_4  and  N_5 
REMARK       I    between atoms: N_5  and  C_6 
REMARK       I    between atoms: C_6  and  N_8 
REMARK    4  A    between atoms: N_8  and  N_9 
REMARK       I    between atoms: N_9  and  C_10 
REMARK    5  A    between atoms: C_10  and  C_12 
REMARK    6  A    between atoms: C_12  and  C_13 
REMARK    7  A    between atoms: C_17  and  O_18 
REMARK    8  A    between atoms: O_18  and  C_19 
ROOT
ATOM      1  N   UNL d   1      26.234 -13.100  -3.512  0.00  0.00    -0.266 N 
ATOM      2  C   UNL d   1      25.676 -14.347  -3.773  0.00  0.00     0.240 C 
ATOM      3  O   UNL d   1      24.561 -14.431  -4.294  0.00  0.00    -0.272 OA
ATOM      4  H   UNL d   1      27.138 -12.949  -3.071  0.00  0.00     0.190 HD
ENDROOT
BRANCH   2   5
ATOM      5  C   UNL d   1      26.530 -15.582  -3.374  0.00  0.00     0.143 C 
BRANCH   5   6
ATOM      6  C   UNL d   1      26.130 -16.153  -2.016  0.00  0.00    -0.047 C 
ATOM      7  C   UNL d   1      27.019 -16.151  -0.940  0.00  0.00     0.007 C 
ATOM      8  C   UNL d   1      26.796 -16.990   0.157  0.00  0.00     0.003 C 
ATOM      9  C   UNL d   1      25.650 -17.790   0.217  0.00  0.00     0.037 C 
ATOM     10  C   UNL d   1      24.713 -17.741  -0.815  0.00  0.00     0.069 C 
ATOM     11  C   UNL d   1      24.931 -16.862  -1.883  0.00  0.00     0.044 C 
BRANCH  10  12
ATOM     12  O   UNL d   1      23.682 -18.646  -0.743  0.00  0.00    -0.347 OA
BRANCH  12  13
ATOM     13  C   UNL d   1      22.424 -18.181  -0.227  0.00  0.00     0.120 C 
ATOM     14  C   UNL d   1      22.157 -16.695  -0.520  0.00  0.00     0.040 C 
ATOM     15  C   UNL d   1      21.307 -18.980  -0.900  0.00  0.00     0.040 C 
ENDBRANCH  12  13
ENDBRANCH  10  12
ENDBRANCH   5   6
ENDBRANCH   2   5
BRANCH   1  16
ATOM     16  N   UNL d   1      25.506 -11.916  -3.882  0.00  0.00    -0.249 N 
ATOM     17  C   UNL d   1      26.077 -10.672  -3.683  0.00  0.00     0.334 C 
ATOM     18  N   UNL d   1      25.304  -9.598  -4.079  0.00  0.00    -0.342 N 
ATOM     19  O   UNL d   1      27.200 -10.544  -3.185  0.00  0.00    -0.246 OA
ATOM     20  H   UNL d   1      24.392  -9.758  -4.483  0.00  0.00     0.164 HD
ATOM     21  H   UNL d   1      24.588 -12.068  -4.292  0.00  0.00     0.192 HD
BRANCH  18  22
ATOM     22  C   UNL d   1      25.778  -8.218  -3.927  0.00  0.00     0.124 C 
BRANCH  22  23
ATOM     23  C   UNL d   1      25.530  -7.613  -2.537  0.00  0.00     0.019 C 
BRANCH  23  24
ATOM     24  C   UNL d   1      26.686  -7.900  -1.562  0.00  0.00    -0.003 C 
ATOM     25  C   UNL d   1      26.209  -7.920  -0.114  0.00  0.00     0.005 C 
ENDBRANCH  23  24
ENDBRANCH  22  23
ENDBRANCH  18  22
ENDBRANCH   1  16
TORSDOF 8
ENDMDL
MODEL 9
REMARK VINA RESULT:    -6.935      3.152      4.928
REMARK INTER + INTRA:         -11.040
REMARK INTER:                  -9.322
REMARK INTRA:                  -1.718
REMARK CONF_INDEPENDENT:        2.386
REMARK UNBOUND:                -1.718
REMARK  8 active torsions:
REMARK  status: ('A' for Active; 'I' for Inactive)
REMARK    1  A    between atoms: C_2  and  C_3 
REMARK    2  A    between atoms: C_3  and  C_4 
REMARK    3  A    between atoms: C_4  and  N_5 
REMARK       I    between atoms: N_5  and  C_6 
REMARK       I    between atoms: C_6  and  N_8 
REMARK    4  A    between atoms: N_8  and  N_9 
REMARK       I    between atoms: N_9  and  C_10 
REMARK    5  A    between atoms: C_10  and  C_12 
REMARK    6  A    between atoms: C_12  and  C_13 
REMARK    7  A    between atoms: C_17  and  O_18 
REMARK    8  A    between atoms: O_18  and  C_19 
ROOT
ATOM      1  N   UNL d   1      25.330 -17.434  -0.326  0.00  0.00    -0.266 N 
ATOM      2  C   UNL d   1      26.656 -17.665   0.023  0.00  0.00     0.240 C 
ATOM      3  O   UNL d   1      26.979 -18.727   0.563  0.00  0.00    -0.272 OA
ATOM      4  H   UNL d   1      24.983 -16.581  -0.758  0.00  0.00     0.190 HD
ENDROOT
BRANCH   2   5
ATOM      5  C   UNL d   1      27.664 -16.530  -0.307  0.00  0.00     0.143 C 
BRANCH   5   6
ATOM      6  C   UNL d   1      27.279 -15.203   0.340  0.00  0.00    -0.047 C 
ATOM      7  C   UNL d   1      26.844 -14.123  -0.430  0.00  0.00     0.007 C 
ATOM      8  C   UNL d   1      26.855 -12.830   0.104  0.00  0.00     0.003 C 
ATOM      9  C   UNL d   1      27.240 -12.614   1.431  0.00  0.00     0.037 C 
ATOM     10  C   UNL d   1      27.600 -13.695   2.236  0.00  0.00     0.069 C 
ATOM     11  C   UNL d   1      27.539 -14.986   1.697  0.00  0.00     0.044 C 
BRANCH  10  12
ATOM     12  O   UNL d   1      28.084 -13.390   3.484  0.00  0.00    -0.347 OA
BRANCH  12  13
ATOM     13  C   UNL d   1      28.737 -14.438   4.219  0.00  0.00     0.120 C 
ATOM     14  C   UNL d   1      30.031 -13.980   4.913  0.00  0.00     0.040 C 
ATOM     15  C   UNL d   1      27.784 -14.917   5.315  0.00  0.00     0.040 C 
ENDBRANCH  12  13
ENDBRANCH  10  12
ENDBRANCH   5   6
ENDBRANCH   2   5
BRANCH   1  16
ATOM     16  N   UNL d   1      24.350 -18.456  -0.072  0.00  0.00    -0.249 N 
ATOM     17  C   UNL d   1      23.032 -18.246  -0.436  0.00  0.00     0.334 C 
ATOM     18  N   UNL d   1      22.171 -19.290  -0.159  0.00  0.00    -0.342 N 
ATOM     19  O   UNL d   1      22.664 -17.195  -0.969  0.00  0.00    -0.246 OA
ATOM     20  H   UNL d   1      22.523 -20.130   0.277  0.00  0.00     0.164 HD
ATOM     21  H   UNL d   1      24.696 -19.306   0.365  0.00  0.00     0.192 HD
BRANCH  18  22
ATOM     22  C   UNL d   1      20.743 -19.209  -0.487  0.00  0.00     0.124 C 
BRANCH  22  23
ATOM     23  C   UNL d   1      19.809 -19.714   0.623  0.00  0.00     0.019 C 
BRANCH  23  24
ATOM     24  C   UNL d   1      18.578 -20.447   0.060  0.00  0.00    -0.003 C 
ATOM     25  C   UNL d   1      18.123 -21.572   0.982  0.00  0.00     0.005 C 
ENDBRANCH  23  24
ENDBRANCH  22  23
ENDBRANCH  18  22
ENDBRANCH   1  16
TORSDOF 8
ENDMDL
