MODEL 1
REMARK VINA RESULT:    -8.312      0.000      0.000
REMARK INTER + INTRA:         -15.762
REMARK INTER:                 -12.786
REMARK INTRA:                  -2.976
REMARK CONF_INDEPENDENT:        4.474
REMARK UNBOUND:                -2.976
REMARK  15 active torsions:
REMARK  status: ('A' for Active; 'I' for Inactive)
REMARK    1  A    between atoms: C_2  and  O_3 
REMARK    2  A    between atoms: O_3  and  C_4 
REMARK    3  A    between atoms: C_7  and  N_8 
REMARK    4  A    between atoms: N_8  and  S_9 
REMARK    5  A    between atoms: S_9  and  C_12 
REMARK    6  A    between atoms: C_15  and  N_16 
REMARK       I    between atoms: N_16  and  C_17 
REMARK    7  A    between atoms: C_17  and  C_19 
REMARK    8  A    between atoms: C_19  and  C_20 
REMARK    9  A    between atoms: C_20  and  C_21 
REMARK   10  A    between atoms: C_21  and  C_22 
REMARK   11  A    between atoms: C_22  and  O_24 
REMARK   12  A    between atoms: O_24  and  C_25 
REMARK   13  A    between atoms: C_25  and  C_26 
REMARK   14  A    between atoms: C_26  and  C_27 
REMARK   15  A    between atoms: C_27  and  C_28 
ROOT
ATOM      1  C   UNL d   1      28.208 -13.962   2.941  0.00  0.00     0.080 A 
ATOM      2  C   UNL d   1      26.979 -13.300   2.766  0.00  0.00     0.027 A 
ATOM      3  C   UNL d   1      26.429 -13.136   1.471  0.00  0.00     0.031 A 
ATOM      4  C   UNL d   1      27.144 -13.553   0.340  0.00  0.00     0.034 A 
ATOM      5  C   UNL d   1      28.359 -14.215   0.564  0.00  0.00     0.031 A 
ATOM      6  C   UNL d   1      28.892 -14.423   1.834  0.00  0.00     0.027 A 
ENDROOT
BRANCH   4   7
ATOM      7  N   UNL d   1      26.664 -13.284  -0.983  0.00  0.00    -0.327 N 
ATOM      8  C   UNL d   1      27.128 -12.236  -1.776  0.00  0.00     0.222 C 
ATOM      9  O   UNL d   1      28.019 -11.456  -1.446  0.00  0.00    -0.273 OA
ATOM     10  H   UNL d   1      25.889 -13.845  -1.319  0.00  0.00     0.169 HD
BRANCH   8  11
ATOM     11  C   UNL d   1      26.467 -12.036  -3.139  0.00  0.00     0.103 C 
BRANCH  11  12
ATOM     12  C   UNL d   1      27.193 -12.946  -4.158  0.00  0.00     0.019 C 
BRANCH  12  13
ATOM     13  C   UNL d   1      26.933 -14.442  -4.006  0.00  0.00     0.111 C 
BRANCH  13  14
ATOM     14  C   UNL d   1      25.471 -14.687  -3.665  0.00  0.00     0.258 C 
ATOM     15  O   UNL d   1      24.519 -14.207  -4.273  0.00  0.00    -0.265 OA
BRANCH  14  16
ATOM     16  O   UNL d   1      25.342 -15.514  -2.589  0.00  0.00    -0.321 OA
BRANCH  16  17
ATOM     17  C   UNL d   1      26.512 -16.323  -2.350  0.00  0.00     0.179 C 
BRANCH  17  18
ATOM     18  C   UNL d   1      26.704 -16.464  -0.854  0.00  0.00     0.031 C 
BRANCH  18  19
ATOM     19  C   UNL d   1      26.060 -17.733  -0.283  0.00  0.00     0.041 C 
BRANCH  19  20
ATOM     20  C   UNL d   1      24.552 -17.758  -0.416  0.00  0.00    -0.058 A 
ATOM     21  C   UNL d   1      23.829 -18.955  -0.524  0.00  0.00     0.007 A 
ATOM     22  C   UNL d   1      22.468 -18.950  -0.803  0.00  0.00     0.001 A 
ATOM     23  C   UNL d   1      21.783 -17.745  -0.876  0.00  0.00     0.000 A 
ATOM     24  C   UNL d   1      22.470 -16.543  -0.714  0.00  0.00     0.001 A 
ATOM     25  C   UNL d   1      23.850 -16.547  -0.494  0.00  0.00     0.007 A 
ENDBRANCH  19  20
ENDBRANCH  18  19
ENDBRANCH  17  18
ENDBRANCH  16  17
ENDBRANCH  14  16
ENDBRANCH  13  14
ENDBRANCH  12  13
ENDBRANCH  11  12
ENDBRANCH   8  11
ENDBRANCH   4   7
BRANCH   1  26
ATOM     26  S   UNL d   1      28.802 -14.342   4.574  0.00  0.00     0.263 S 
ATOM     27  O   UNL d   1      30.150 -14.849   4.379  0.00  0.00    -0.200 OA
ATOM     28  O   UNL d   1      27.786 -15.144   5.211  0.00  0.00    -0.200 OA
BRANCH  26  29
ATOM     29  N   UNL d   1      28.908 -12.886   5.441  0.00  0.00    -0.281 N 
ATOM     30  H   UNL d   1      29.246 -12.048   4.980  0.00  0.00     0.179 HD
BRANCH  29  31
ATOM     31  C   UNL d   1      28.813 -12.879   6.879  0.00  0.00     0.042 A 
ATOM     32  C   UNL d   1      28.952 -14.075   7.596  0.00  0.00     0.033 A 
ATOM     33  C   UNL d   1      28.814 -14.089   8.999  0.00  0.00     0.039 A 
ATOM     34  C   UNL d   1      28.605 -12.904   9.708  0.00  0.00     0.068 A 
ATOM     35  C   UNL d   1      28.526 -11.711   9.002  0.00  0.00     0.039 A 
ATOM     36  C   UNL d   1      28.628 -11.703   7.607  0.00  0.00     0.033 A 
BRANCH  34  37
ATOM     37  O   UNL d   1      28.598 -12.988  11.075  0.00  0.00    -0.352 OA
BRANCH  37  38
ATOM     38  C   UNL d   1      28.538 -14.312  11.617  0.00  0.00     0.171 C 
ATOM     39  C   UNL d   1      29.934 -14.733  12.044  0.00  0.00     0.034 C 
ENDBRANCH  37  38
ENDBRANCH  34  37
ENDBRANCH  29  31
ENDBRANCH  26  29
ENDBRANCH   1  26
TORSDOF 15
ENDMDL
MODEL 2
REMARK VINA RESULT:    -8.125      2.325      3.204
REMARK INTER + INTRA:         -15.903
REMARK INTER:                 -12.599
REMARK INTRA:                  -3.303
REMARK CONF_INDEPENDENT:        4.474
REMARK UNBOUND:                -3.303
REMARK  15 active torsions:
REMARK  status: ('A' for Active; 'I' for Inactive)
REMARK    1  A    between atoms: C_2  and  O_3 
REMARK    2  A    between atoms: O_3  and  C_4 
REMARK    3  A    between atoms: C_7  and  N_8 
REMARK    4  A    between atoms: N_8  and  S_9 
REMARK    5  A    between atoms: S_9  and  C_12 
REMARK    6  A    between atoms: C_15  and  N_16 
REMARK       I    between atoms: N_16  and  C_17 
REMARK    7  A    between atoms: C_17  and  C_19 
REMARK    8  A    between atoms: C_19  and  C_20 
REMARK    9  A    between atoms: C_20  and  C_21 
REMARK   10  A    between atoms: C_21  and  C_22 
REMARK   11  A    between atoms: C_22  and  O_24 
REMARK   12  A    between atoms: O_24  and  C_25 
REMARK   13  A    between atoms: C_25  and  C_26 
REMARK   14  A    between atoms: C_26  and  C_27 
REMARK   15  A    between atoms: C_27  and  C_28 
ROOT
ATOM      1  C   UNL d   1      28.354 -13.931   0.973  0.00  0.00     0.080 A 
ATOM      2  C   UNL d   1      28.209 -13.074  -0.132  0.00  0.00     0.027 A 
ATOM      3  C   UNL d   1      28.321 -13.578  -1.452  0.00  0.00     0.031 A 
ATOM      4  C   UNL d   1      28.663 -14.919  -1.671  0.00  0.00     0.034 A 
ATOM      5  C   UNL d   1      28.789 -15.736  -0.539  0.00  0.00     0.031 A 
ATOM      6  C   UNL d   1      28.639 -15.265   0.763  0.00  0.00     0.027 A 
ENDROOT
BRANCH   4   7
ATOM      7  N   UNL d   1      28.904 -15.418  -2.992  0.00  0.00    -0.327 N 
ATOM      8  C   UNL d   1      29.807 -16.440  -3.281  0.00  0.00     0.222 C 
ATOM      9  O   UNL d   1      30.462 -17.048  -2.436  0.00  0.00    -0.273 OA
ATOM     10  H   UNL d   1      28.447 -14.940  -3.760  0.00  0.00     0.169 HD
BRANCH   8  11
ATOM     11  C   UNL d   1      30.004 -16.814  -4.748  0.00  0.00     0.103 C 
BRANCH  11  12
ATOM     12  C   UNL d   1      30.122 -15.503  -5.562  0.00  0.00     0.019 C 
BRANCH  12  13
ATOM     13  C   UNL d   1      28.954 -15.202  -6.497  0.00  0.00     0.111 C 
BRANCH  13  14
ATOM     14  C   UNL d   1      27.778 -14.650  -5.705  0.00  0.00     0.258 C 
ATOM     15  O   UNL d   1      27.720 -13.520  -5.231  0.00  0.00    -0.265 OA
BRANCH  14  16
ATOM     16  O   UNL d   1      26.784 -15.574  -5.580  0.00  0.00    -0.321 OA
BRANCH  16  17
ATOM     17  C   UNL d   1      25.678 -15.116  -4.776  0.00  0.00     0.179 C 
BRANCH  17  18
ATOM     18  C   UNL d   1      25.996 -15.385  -3.319  0.00  0.00     0.031 C 
BRANCH  18  19
ATOM     19  C   UNL d   1      24.789 -15.192  -2.395  0.00  0.00     0.041 C 
BRANCH  19  20
ATOM     20  C   UNL d   1      24.586 -16.331  -1.419  0.00  0.00    -0.058 A 
ATOM     21  C   UNL d   1      25.659 -17.048  -0.870  0.00  0.00     0.007 A 
ATOM     22  C   UNL d   1      25.446 -18.188  -0.103  0.00  0.00     0.001 A 
ATOM     23  C   UNL d   1      24.150 -18.571   0.216  0.00  0.00     0.000 A 
ATOM     24  C   UNL d   1      23.068 -17.840  -0.270  0.00  0.00     0.001 A 
ATOM     25  C   UNL d   1      23.282 -16.730  -1.092  0.00  0.00     0.007 A 
ENDBRANCH  19  20
ENDBRANCH  18  19
ENDBRANCH  17  18
ENDBRANCH  16  17
ENDBRANCH  14  16
ENDBRANCH  13  14
ENDBRANCH  12  13
ENDBRANCH  11  12
ENDBRANCH   8  11
ENDBRANCH   4   7
BRANCH   1  26
ATOM     26  S   UNL d   1      28.020 -13.343   2.619  0.00  0.00     0.263 S 
ATOM     27  O   UNL d   1      26.581 -13.462   2.779  0.00  0.00    -0.200 OA
ATOM     28  O   UNL d   1      28.685 -12.069   2.750  0.00  0.00    -0.200 OA
BRANCH  26  29
ATOM     29  N   UNL d   1      28.762 -14.409   3.713  0.00  0.00    -0.281 N 
ATOM     30  H   UNL d   1      28.900 -15.380   3.455  0.00  0.00     0.179 HD
BRANCH  29  31
ATOM     31  C   UNL d   1      28.926 -14.044   5.097  0.00  0.00     0.042 A 
ATOM     32  C   UNL d   1      27.938 -13.291   5.745  0.00  0.00     0.033 A 
ATOM     33  C   UNL d   1      28.108 -12.887   7.085  0.00  0.00     0.039 A 
ATOM     34  C   UNL d   1      29.231 -13.285   7.813  0.00  0.00     0.068 A 
ATOM     35  C   UNL d   1      30.183 -14.080   7.188  0.00  0.00     0.039 A 
ATOM     36  C   UNL d   1      30.029 -14.452   5.849  0.00  0.00     0.033 A 
BRANCH  34  37
ATOM     37  O   UNL d   1      29.266 -12.948   9.140  0.00  0.00    -0.352 OA
BRANCH  37  38
ATOM     38  C   UNL d   1      28.499 -13.784  10.015  0.00  0.00     0.171 C 
ATOM     39  C   UNL d   1      27.782 -12.908  11.029  0.00  0.00     0.034 C 
ENDBRANCH  37  38
ENDBRANCH  34  37
ENDBRANCH  29  31
ENDBRANCH  26  29
ENDBRANCH   1  26
TORSDOF 15
ENDMDL
MODEL 3
REMARK VINA RESULT:    -7.908      6.231      8.545
REMARK INTER + INTRA:         -15.863
REMARK INTER:                 -12.382
REMARK INTRA:                  -3.481
REMARK CONF_INDEPENDENT:        4.474
REMARK UNBOUND:                -3.481
REMARK  15 active torsions:
REMARK  status: ('A' for Active; 'I' for Inactive)
REMARK    1  A    between atoms: C_2  and  O_3 
REMARK    2  A    between atoms: O_3  and  C_4 
REMARK    3  A    between atoms: C_7  and  N_8 
REMARK    4  A    between atoms: N_8  and  S_9 
REMARK    5  A    between atoms: S_9  and  C_12 
REMARK    6  A    between atoms: C_15  and  N_16 
REMARK       I    between atoms: N_16  and  C_17 
REMARK    7  A    between atoms: C_17  and  C_19 
REMARK    8  A    between atoms: C_19  and  C_20 
REMARK    9  A    between atoms: C_20  and  C_21 
REMARK   10  A    between atoms: C_21  and  C_22 
REMARK   11  A    between atoms: C_22  and  O_24 
REMARK   12  A    between atoms: O_24  and  C_25 
REMARK   13  A    between atoms: C_25  and  C_26 
REMARK   14  A    between atoms: C_26  and  C_27 
REMARK   15  A    between atoms: C_27  and  C_28 
ROOT
ATOM      1  C   UNL d   1      26.293 -14.158  -2.174  0.00  0.00     0.080 A 
ATOM      2  C   UNL d   1      25.433 -14.210  -3.286  0.00  0.00     0.027 A 
ATOM      3  C   UNL d   1      25.148 -13.038  -4.030  0.00  0.00     0.031 A 
ATOM      4  C   UNL d   1      25.651 -11.797  -3.615  0.00  0.00     0.034 A 
ATOM      5  C   UNL d   1      26.510 -11.796  -2.508  0.00  0.00     0.031 A 
ATOM      6  C   UNL d   1      26.834 -12.947  -1.792  0.00  0.00     0.027 A 
ENDROOT
BRANCH   4   7
ATOM      7  N   UNL d   1      25.275 -10.584  -4.278  0.00  0.00    -0.327 N 
ATOM      8  C   UNL d   1      25.447  -9.315  -3.727  0.00  0.00     0.222 C 
ATOM      9  O   UNL d   1      25.973  -9.096  -2.637  0.00  0.00    -0.273 OA
ATOM     10  H   UNL d   1      24.783 -10.670  -5.161  0.00  0.00     0.169 HD
BRANCH   8  11
ATOM     11  C   UNL d   1      24.930  -8.122  -4.528  0.00  0.00     0.103 C 
BRANCH  11  12
ATOM     12  C   UNL d   1      24.929  -8.516  -6.024  0.00  0.00     0.019 C 
BRANCH  12  13
ATOM     13  C   UNL d   1      26.294  -8.857  -6.616  0.00  0.00     0.111 C 
BRANCH  13  14
ATOM     14  C   UNL d   1      26.391 -10.351  -6.882  0.00  0.00     0.258 C 
ATOM     15  O   UNL d   1      25.440 -11.077  -7.155  0.00  0.00    -0.265 OA
BRANCH  14  16
ATOM     16  O   UNL d   1      27.676 -10.794  -6.778  0.00  0.00    -0.321 OA
BRANCH  16  17
ATOM     17  C   UNL d   1      27.818 -12.199  -7.070  0.00  0.00     0.179 C 
BRANCH  17  18
ATOM     18  C   UNL d   1      28.075 -12.938  -5.773  0.00  0.00     0.031 C 
BRANCH  18  19
ATOM     19  C   UNL d   1      27.681 -14.418  -5.836  0.00  0.00     0.041 C 
BRANCH  19  20
ATOM     20  C   UNL d   1      28.815 -15.362  -5.496  0.00  0.00    -0.058 A 
ATOM     21  C   UNL d   1      29.676 -15.882  -6.474  0.00  0.00     0.007 A 
ATOM     22  C   UNL d   1      30.607 -16.866  -6.163  0.00  0.00     0.001 A 
ATOM     23  C   UNL d   1      30.766 -17.273  -4.845  0.00  0.00     0.000 A 
ATOM     24  C   UNL d   1      29.962 -16.727  -3.846  0.00  0.00     0.001 A 
ATOM     25  C   UNL d   1      28.984 -15.782  -4.169  0.00  0.00     0.007 A 
ENDBRANCH  19  20
ENDBRANCH  18  19
ENDBRANCH  17  18
ENDBRANCH  16  17
ENDBRANCH  14  16
ENDBRANCH  13  14
ENDBRANCH  12  13
ENDBRANCH  11  12
ENDBRANCH   8  11
ENDBRANCH   4   7
BRANCH   1  26
ATOM     26  S   UNL d   1      26.806 -15.656  -1.362  0.00  0.00     0.263 S 
ATOM     27  O   UNL d   1      28.083 -15.335  -0.748  0.00  0.00    -0.200 OA
ATOM     28  O   UNL d   1      26.686 -16.718  -2.331  0.00  0.00    -0.200 OA
BRANCH  26  29
ATOM     29  N   UNL d   1      25.693 -15.982  -0.121  0.00  0.00    -0.281 N 
ATOM     30  H   UNL d   1      25.922 -15.742   0.837  0.00  0.00     0.179 HD
BRANCH  29  31
ATOM     31  C   UNL d   1      24.569 -16.853  -0.354  0.00  0.00     0.042 A 
ATOM     32  C   UNL d   1      24.726 -18.242  -0.250  0.00  0.00     0.033 A 
ATOM     33  C   UNL d   1      23.646 -19.107  -0.521  0.00  0.00     0.039 A 
ATOM     34  C   UNL d   1      22.384 -18.597  -0.831  0.00  0.00     0.068 A 
ATOM     35  C   UNL d   1      22.214 -17.220  -0.877  0.00  0.00     0.039 A 
ATOM     36  C   UNL d   1      23.294 -16.363  -0.641  0.00  0.00     0.033 A 
BRANCH  34  37
ATOM     37  O   UNL d   1      21.363 -19.501  -0.967  0.00  0.00    -0.352 OA
BRANCH  37  38
ATOM     38  C   UNL d   1      20.040 -18.960  -0.887  0.00  0.00     0.171 C 
ATOM     39  C   UNL d   1      19.151 -19.944  -0.143  0.00  0.00     0.034 C 
ENDBRANCH  37  38
ENDBRANCH  34  37
ENDBRANCH  29  31
ENDBRANCH  26  29
ENDBRANCH   1  26
TORSDOF 15
ENDMDL
MODEL 4
REMARK VINA RESULT:    -7.699      6.161      8.513
REMARK INTER + INTRA:         -15.547
REMARK INTER:                 -12.173
REMARK INTRA:                  -3.374
REMARK CONF_INDEPENDENT:        4.474
REMARK UNBOUND:                -3.374
REMARK  15 active torsions:
REMARK  status: ('A' for Active; 'I' for Inactive)
REMARK    1  A    between atoms: C_2  and  O_3 
REMARK    2  A    between atoms: O_3  and  C_4 
REMARK    3  A    between atoms: C_7  and  N_8 
REMARK    4  A    between atoms: N_8  and  S_9 
REMARK    5  A    between atoms: S_9  and  C_12 
REMARK    6  A    between atoms: C_15  and  N_16 
REMARK       I    between atoms: N_16  and  C_17 
REMARK    7  A    between atoms: C_17  and  C_19 
REMARK    8  A    between atoms: C_19  and  C_20 
REMARK    9  A    between atoms: C_20  and  C_21 
REMARK   10  A    between atoms: C_21  and  C_22 
REMARK   11  A    between atoms: C_22  and  O_24 
REMARK   12  A    between atoms: O_24  and  C_25 
REMARK   13  A    between atoms: C_25  and  C_26 
REMARK   14  A    between atoms: C_26  and  C_27 
REMARK   15  A    between atoms: C_27  and  C_28 
ROOT
ATOM      1  C   UNL d   1      26.691 -15.092  -1.716  0.00  0.00     0.080 A 
ATOM      2  C   UNL d   1      26.405 -13.728  -1.523  0.00  0.00     0.027 A 
ATOM      3  C   UNL d   1      25.866 -12.950  -2.577  0.00  0.00     0.031 A 
ATOM      4  C   UNL d   1      25.692 -13.508  -3.851  0.00  0.00     0.034 A 
ATOM      5  C   UNL d   1      25.982 -14.872  -3.993  0.00  0.00     0.031 A 
ATOM      6  C   UNL d   1      26.472 -15.661  -2.954  0.00  0.00     0.027 A 
ENDROOT
BRANCH   4   7
ATOM      7  N   UNL d   1      25.268 -12.708  -4.961  0.00  0.00    -0.327 N 
ATOM      8  C   UNL d   1      25.910 -11.538  -5.362  0.00  0.00     0.222 C 
ATOM      9  O   UNL d   1      26.927 -11.087  -4.836  0.00  0.00    -0.273 OA
ATOM     10  H   UNL d   1      24.405 -12.974  -5.422  0.00  0.00     0.169 HD
BRANCH   8  11
ATOM     11  C   UNL d   1      25.295 -10.757  -6.521  0.00  0.00     0.103 C 
BRANCH  11  12
ATOM     12  C   UNL d   1      26.255  -9.596  -6.876  0.00  0.00     0.019 C 
BRANCH  12  13
ATOM     13  C   UNL d   1      27.509  -9.992  -7.652  0.00  0.00     0.111 C 
BRANCH  13  14
ATOM     14  C   UNL d   1      27.137 -10.887  -8.824  0.00  0.00     0.258 C 
ATOM     15  O   UNL d   1      26.654 -10.494  -9.880  0.00  0.00    -0.265 OA
BRANCH  14  16
ATOM     16  O   UNL d   1      27.408 -12.196  -8.557  0.00  0.00    -0.321 OA
BRANCH  16  17
ATOM     17  C   UNL d   1      28.792 -12.544  -8.764  0.00  0.00     0.179 C 
BRANCH  17  18
ATOM     18  C   UNL d   1      29.373 -13.019  -7.447  0.00  0.00     0.031 C 
BRANCH  18  19
ATOM     19  C   UNL d   1      28.344 -13.724  -6.556  0.00  0.00     0.041 C 
BRANCH  19  20
ATOM     20  C   UNL d   1      28.966 -14.552  -5.452  0.00  0.00    -0.058 A 
ATOM     21  C   UNL d   1      29.275 -15.911  -5.617  0.00  0.00     0.007 A 
ATOM     22  C   UNL d   1      29.698 -16.687  -4.544  0.00  0.00     0.001 A 
ATOM     23  C   UNL d   1      29.919 -16.094  -3.308  0.00  0.00     0.000 A 
ATOM     24  C   UNL d   1      29.674 -14.734  -3.135  0.00  0.00     0.001 A 
ATOM     25  C   UNL d   1      29.191 -13.966  -4.198  0.00  0.00     0.007 A 
ENDBRANCH  19  20
ENDBRANCH  18  19
ENDBRANCH  17  18
ENDBRANCH  16  17
ENDBRANCH  14  16
ENDBRANCH  13  14
ENDBRANCH  12  13
ENDBRANCH  11  12
ENDBRANCH   8  11
ENDBRANCH   4   7
BRANCH   1  26
ATOM     26  S   UNL d   1      27.179 -16.113  -0.343  0.00  0.00     0.263 S 
ATOM     27  O   UNL d   1      26.655 -15.442   0.834  0.00  0.00    -0.200 OA
ATOM     28  O   UNL d   1      28.592 -16.366  -0.493  0.00  0.00    -0.200 OA
BRANCH  26  29
ATOM     29  N   UNL d   1      26.384 -17.606  -0.496  0.00  0.00    -0.281 N 
ATOM     30  H   UNL d   1      26.916 -18.440  -0.719  0.00  0.00     0.179 HD
BRANCH  29  31
ATOM     31  C   UNL d   1      24.949 -17.664  -0.613  0.00  0.00     0.042 A 
ATOM     32  C   UNL d   1      24.288 -18.896  -0.522  0.00  0.00     0.033 A 
ATOM     33  C   UNL d   1      22.889 -18.973  -0.681  0.00  0.00     0.039 A 
ATOM     34  C   UNL d   1      22.128 -17.817  -0.865  0.00  0.00     0.068 A 
ATOM     35  C   UNL d   1      22.777 -16.589  -0.897  0.00  0.00     0.039 A 
ATOM     36  C   UNL d   1      24.168 -16.518  -0.773  0.00  0.00     0.033 A 
BRANCH  34  37
ATOM     37  O   UNL d   1      20.766 -17.965  -0.895  0.00  0.00    -0.352 OA
BRANCH  37  38
ATOM     38  C   UNL d   1      20.290 -19.305  -1.060  0.00  0.00     0.171 C 
ATOM     39  C   UNL d   1      19.160 -19.550  -0.073  0.00  0.00     0.034 C 
ENDBRANCH  37  38
ENDBRANCH  34  37
ENDBRANCH  29  31
ENDBRANCH  26  29
ENDBRANCH   1  26
TORSDOF 15
ENDMDL
MODEL 5
REMARK VINA RESULT:    -7.567      5.251      8.794
REMARK INTER + INTRA:         -15.406
REMARK INTER:                 -12.041
REMARK INTRA:                  -3.365
REMARK CONF_INDEPENDENT:        4.474
REMARK UNBOUND:                -3.365
REMARK  15 active torsions:
REMARK  status: ('A' for Active; 'I' for Inactive)
REMARK    1  A    between atoms: C_2  and  O_3 
REMARK    2  A    between atoms: O_3  and  C_4 
REMARK    3  A    between atoms: C_7  and  N_8 
REMARK    4  A    between atoms: N_8  and  S_9 
REMARK    5  A    between atoms: S_9  and  C_12 
REMARK    6  A    between atoms: C_15  and  N_16 
REMARK       I    between atoms: N_16  and  C_17 
REMARK    7  A    between atoms: C_17  and  C_19 
REMARK    8  A    between atoms: C_19  and  C_20 
REMARK    9  A    between atoms: C_20  and  C_21 
REMARK   10  A    between atoms: C_21  and  C_22 
REMARK   11  A    between atoms: C_22  and  O_24 
REMARK   12  A    between atoms: O_24  and  C_25 
REMARK   13  A    between atoms: C_25  and  C_26 
REMARK   14  A    between atoms: C_26  and  C_27 
REMARK   15  A    between atoms: C_27  and  C_28 
ROOT
ATOM      1  C   UNL d   1      26.285 -13.164  -4.188  0.00  0.00     0.080 A 
ATOM      2  C   UNL d   1      25.883 -12.240  -5.169  0.00  0.00     0.027 A 
ATOM      3  C   UNL d   1      25.672 -10.880  -4.833  0.00  0.00     0.031 A 
ATOM      4  C   UNL d   1      25.777 -10.456  -3.502  0.00  0.00     0.034 A 
ATOM      5  C   UNL d   1      26.188 -11.409  -2.561  0.00  0.00     0.031 A 
ATOM      6  C   UNL d   1      26.442 -12.741  -2.884  0.00  0.00     0.027 A 
ENDROOT
BRANCH   4   7
ATOM      7  N   UNL d   1      25.446  -9.114  -3.121  0.00  0.00    -0.327 N 
ATOM      8  C   UNL d   1      26.335  -8.249  -2.486  0.00  0.00     0.222 C 
ATOM      9  O   UNL d   1      27.504  -8.524  -2.220  0.00  0.00    -0.273 OA
ATOM     10  H   UNL d   1      24.486  -8.817  -3.253  0.00  0.00     0.169 HD
BRANCH   8  11
ATOM     11  C   UNL d   1      25.812  -6.873  -2.080  0.00  0.00     0.103 C 
BRANCH  11  12
ATOM     12  C   UNL d   1      25.309  -6.967  -0.620  0.00  0.00     0.019 C 
BRANCH  12  13
ATOM     13  C   UNL d   1      26.348  -6.661   0.456  0.00  0.00     0.111 C 
BRANCH  13  14
ATOM     14  C   UNL d   1      26.011  -7.409   1.736  0.00  0.00     0.258 C 
ATOM     15  O   UNL d   1      26.398  -7.091   2.856  0.00  0.00    -0.265 OA
BRANCH  14  16
ATOM     16  O   UNL d   1      25.219  -8.490   1.488  0.00  0.00    -0.321 OA
BRANCH  16  17
ATOM     17  C   UNL d   1      25.676  -9.692   2.142  0.00  0.00     0.179 C 
BRANCH  17  18
ATOM     18  C   UNL d   1      27.146  -9.883   1.829  0.00  0.00     0.031 C 
BRANCH  18  19
ATOM     19  C   UNL d   1      27.394 -10.434   0.420  0.00  0.00     0.041 C 
BRANCH  19  20
ATOM     20  C   UNL d   1      27.609 -11.933   0.386  0.00  0.00    -0.058 A 
ATOM     21  C   UNL d   1      26.653 -12.838   0.872  0.00  0.00     0.007 A 
ATOM     22  C   UNL d   1      26.936 -14.195   0.976  0.00  0.00     0.001 A 
ATOM     23  C   UNL d   1      28.144 -14.686   0.499  0.00  0.00     0.000 A 
ATOM     24  C   UNL d   1      29.085 -13.813  -0.041  0.00  0.00     0.001 A 
ATOM     25  C   UNL d   1      28.825 -12.440  -0.090  0.00  0.00     0.007 A 
ENDBRANCH  19  20
ENDBRANCH  18  19
ENDBRANCH  17  18
ENDBRANCH  16  17
ENDBRANCH  14  16
ENDBRANCH  13  14
ENDBRANCH  12  13
ENDBRANCH  11  12
ENDBRANCH   8  11
ENDBRANCH   4   7
BRANCH   1  26
ATOM     26  S   UNL d   1      26.740 -14.823  -4.644  0.00  0.00     0.263 S 
ATOM     27  O   UNL d   1      27.829 -14.669  -5.593  0.00  0.00    -0.200 OA
ATOM     28  O   UNL d   1      25.521 -15.505  -5.007  0.00  0.00    -0.200 OA
BRANCH  26  29
ATOM     29  N   UNL d   1      27.352 -15.593  -3.260  0.00  0.00    -0.281 N 
ATOM     30  H   UNL d   1      28.329 -15.861  -3.223  0.00  0.00     0.179 HD
BRANCH  29  31
ATOM     31  C   UNL d   1      26.459 -16.139  -2.268  0.00  0.00     0.042 A 
ATOM     32  C   UNL d   1      25.112 -15.755  -2.252  0.00  0.00     0.033 A 
ATOM     33  C   UNL d   1      24.239 -16.246  -1.259  0.00  0.00     0.039 A 
ATOM     34  C   UNL d   1      24.683 -17.174  -0.315  0.00  0.00     0.068 A 
ATOM     35  C   UNL d   1      26.004 -17.599  -0.367  0.00  0.00     0.039 A 
ATOM     36  C   UNL d   1      26.877 -17.086  -1.332  0.00  0.00     0.033 A 
BRANCH  34  37
ATOM     37  O   UNL d   1      23.746 -17.688   0.542  0.00  0.00    -0.352 OA
BRANCH  37  38
ATOM     38  C   UNL d   1      22.540 -18.164  -0.066  0.00  0.00     0.171 C 
ATOM     39  C   UNL d   1      22.900 -19.005  -1.280  0.00  0.00     0.034 C 
ENDBRANCH  37  38
ENDBRANCH  34  37
ENDBRANCH  29  31
ENDBRANCH  26  29
ENDBRANCH   1  26
TORSDOF 15
ENDMDL
MODEL 6
REMARK VINA RESULT:    -7.535      3.946      8.646
REMARK INTER + INTRA:         -15.929
REMARK INTER:                 -12.009
REMARK INTRA:                  -3.920
REMARK CONF_INDEPENDENT:        4.474
REMARK UNBOUND:                -3.920
REMARK  15 active torsions:
REMARK  status: ('A' for Active; 'I' for Inactive)
REMARK    1  A    between atoms: C_2  and  O_3 
REMARK    2  A    between atoms: O_3  and  C_4 
REMARK    3  A    between atoms: C_7  and  N_8 
REMARK    4  A    between atoms: N_8  and  S_9 
REMARK    5  A    between atoms: S_9  and  C_12 
REMARK    6  A    between atoms: C_15  and  N_16 
REMARK       I    between atoms: N_16  and  C_17 
REMARK    7  A    between atoms: C_17  and  C_19 
REMARK    8  A    between atoms: C_19  and  C_20 
REMARK    9  A    between atoms: C_20  and  C_21 
REMARK   10  A    between atoms: C_21  and  C_22 
REMARK   11  A    between atoms: C_22  and  O_24 
REMARK   12  A    between atoms: O_24  and  C_25 
REMARK   13  A    between atoms: C_25  and  C_26 
REMARK   14  A    between atoms: C_26  and  C_27 
REMARK   15  A    between atoms: C_27  and  C_28 
ROOT
ATOM      1  C   UNL d   1      27.275 -14.874  -0.648  0.00  0.00     0.080 A 
ATOM      2  C   UNL d   1      28.511 -14.208  -0.733  0.00  0.00     0.027 A 
ATOM      3  C   UNL d   1      28.785 -13.092   0.096  0.00  0.00     0.031 A 
ATOM      4  C   UNL d   1      27.795 -12.584   0.949  0.00  0.00     0.034 A 
ATOM      5  C   UNL d   1      26.583 -13.286   1.006  0.00  0.00     0.031 A 
ATOM      6  C   UNL d   1      26.316 -14.411   0.230  0.00  0.00     0.027 A 
ENDROOT
BRANCH   4   7
ATOM      7  N   UNL d   1      28.008 -11.383   1.702  0.00  0.00    -0.327 N 
ATOM      8  C   UNL d   1      27.774 -11.277   3.072  0.00  0.00     0.222 C 
ATOM      9  O   UNL d   1      27.400 -12.205   3.787  0.00  0.00    -0.273 OA
ATOM     10  H   UNL d   1      28.265 -10.550   1.184  0.00  0.00     0.169 HD
BRANCH   8  11
ATOM     11  C   UNL d   1      27.980  -9.910   3.719  0.00  0.00     0.103 C 
BRANCH  11  12
ATOM     12  C   UNL d   1      26.656  -9.119   3.593  0.00  0.00     0.019 C 
BRANCH  12  13
ATOM     13  C   UNL d   1      25.745  -9.538   2.442  0.00  0.00     0.111 C 
BRANCH  13  14
ATOM     14  C   UNL d   1      25.911  -8.584   1.269  0.00  0.00     0.258 C 
ATOM     15  O   UNL d   1      25.132  -7.680   0.985  0.00  0.00    -0.265 OA
BRANCH  14  16
ATOM     16  O   UNL d   1      27.043  -8.858   0.561  0.00  0.00    -0.321 OA
BRANCH  16  17
ATOM     17  C   UNL d   1      26.814  -8.964  -0.859  0.00  0.00     0.179 C 
BRANCH  17  18
ATOM     18  C   UNL d   1      27.041 -10.402  -1.279  0.00  0.00     0.031 C 
BRANCH  18  19
ATOM     19  C   UNL d   1      27.354 -10.549  -2.772  0.00  0.00     0.041 C 
BRANCH  19  20
ATOM     20  C   UNL d   1      26.875 -11.858  -3.364  0.00  0.00    -0.058 A 
ATOM     21  C   UNL d   1      27.710 -12.682  -4.135  0.00  0.00     0.007 A 
ATOM     22  C   UNL d   1      27.208 -13.796  -4.797  0.00  0.00     0.001 A 
ATOM     23  C   UNL d   1      25.882 -14.166  -4.617  0.00  0.00     0.000 A 
ATOM     24  C   UNL d   1      25.049 -13.396  -3.808  0.00  0.00     0.001 A 
ATOM     25  C   UNL d   1      25.538 -12.241  -3.191  0.00  0.00     0.007 A 
ENDBRANCH  19  20
ENDBRANCH  18  19
ENDBRANCH  17  18
ENDBRANCH  16  17
ENDBRANCH  14  16
ENDBRANCH  13  14
ENDBRANCH  12  13
ENDBRANCH  11  12
ENDBRANCH   8  11
ENDBRANCH   4   7
BRANCH   1  26
ATOM     26  S   UNL d   1      27.005 -16.388  -1.542  0.00  0.00     0.263 S 
ATOM     27  O   UNL d   1      28.333 -16.906  -1.821  0.00  0.00    -0.200 OA
ATOM     28  O   UNL d   1      26.080 -16.085  -2.607  0.00  0.00    -0.200 OA
BRANCH  26  29
ATOM     29  N   UNL d   1      26.225 -17.477  -0.496  0.00  0.00    -0.281 N 
ATOM     30  H   UNL d   1      26.773 -18.139   0.041  0.00  0.00     0.179 HD
BRANCH  29  31
ATOM     31  C   UNL d   1      24.801 -17.681  -0.579  0.00  0.00     0.042 A 
ATOM     32  C   UNL d   1      23.946 -16.588  -0.776  0.00  0.00     0.033 A 
ATOM     33  C   UNL d   1      22.548 -16.769  -0.811  0.00  0.00     0.039 A 
ATOM     34  C   UNL d   1      21.992 -18.047  -0.720  0.00  0.00     0.068 A 
ATOM     35  C   UNL d   1      22.842 -19.136  -0.584  0.00  0.00     0.039 A 
ATOM     36  C   UNL d   1      24.227 -18.952  -0.514  0.00  0.00     0.033 A 
BRANCH  34  37
ATOM     37  O   UNL d   1      20.635 -18.149  -0.879  0.00  0.00    -0.352 OA
BRANCH  37  38
ATOM     38  C   UNL d   1      20.120 -19.480  -0.992  0.00  0.00     0.171 C 
ATOM     39  C   UNL d   1      19.068 -19.693   0.085  0.00  0.00     0.034 C 
ENDBRANCH  37  38
ENDBRANCH  34  37
ENDBRANCH  29  31
ENDBRANCH  26  29
ENDBRANCH   1  26
TORSDOF 15
ENDMDL
MODEL 7
REMARK VINA RESULT:    -7.183      5.748      8.525
REMARK INTER + INTRA:         -15.652
REMARK INTER:                 -11.658
REMARK INTRA:                  -3.994
REMARK CONF_INDEPENDENT:        4.474
REMARK UNBOUND:                -3.994
REMARK  15 active torsions:
REMARK  status: ('A' for Active; 'I' for Inactive)
REMARK    1  A    between atoms: C_2  and  O_3 
REMARK    2  A    between atoms: O_3  and  C_4 
REMARK    3  A    between atoms: C_7  and  N_8 
REMARK    4  A    between atoms: N_8  and  S_9 
REMARK    5  A    between atoms: S_9  and  C_12 
REMARK    6  A    between atoms: C_15  and  N_16 
REMARK       I    between atoms: N_16  and  C_17 
REMARK    7  A    between atoms: C_17  and  C_19 
REMARK    8  A    between atoms: C_19  and  C_20 
REMARK    9  A    between atoms: C_20  and  C_21 
REMARK   10  A    between atoms: C_21  and  C_22 
REMARK   11  A    between atoms: C_22  and  O_24 
REMARK   12  A    between atoms: O_24  and  C_25 
REMARK   13  A    between atoms: C_25  and  C_26 
REMARK   14  A    between atoms: C_26  and  C_27 
REMARK   15  A    between atoms: C_27  and  C_28 
ROOT
ATOM      1  C   UNL d   1      29.102 -15.905  -1.351  0.00  0.00     0.080 A 
ATOM      2  C   UNL d   1      28.559 -15.789  -2.644  0.00  0.00     0.027 A 
ATOM      3  C   UNL d   1      29.163 -16.455  -3.739  0.00  0.00     0.031 A 
ATOM      4  C   UNL d   1      30.357 -17.166  -3.563  0.00  0.00     0.034 A 
ATOM      5  C   UNL d   1      30.856 -17.261  -2.257  0.00  0.00     0.031 A 
ATOM      6  C   UNL d   1      30.249 -16.648  -1.163  0.00  0.00     0.027 A 
ENDROOT
BRANCH   4   7
ATOM      7  N   UNL d   1      31.051 -17.741  -4.678  0.00  0.00    -0.327 N 
ATOM      8  C   UNL d   1      30.848 -19.045  -5.127  0.00  0.00     0.222 C 
ATOM      9  O   UNL d   1      30.031 -19.827  -4.644  0.00  0.00    -0.273 OA
ATOM     10  H   UNL d   1      31.784 -17.186  -5.105  0.00  0.00     0.169 HD
BRANCH   8  11
ATOM     11  C   UNL d   1      31.715 -19.536  -6.284  0.00  0.00     0.103 C 
BRANCH  11  12
ATOM     12  C   UNL d   1      31.015 -19.140  -7.605  0.00  0.00     0.019 C 
BRANCH  12  13
ATOM     13  C   UNL d   1      31.530 -17.865  -8.267  0.00  0.00     0.111 C 
BRANCH  13  14
ATOM     14  C   UNL d   1      31.695 -16.766  -7.228  0.00  0.00     0.258 C 
ATOM     15  O   UNL d   1      32.769 -16.289  -6.877  0.00  0.00    -0.265 OA
BRANCH  14  16
ATOM     16  O   UNL d   1      30.491 -16.370  -6.727  0.00  0.00    -0.321 OA
BRANCH  16  17
ATOM     17  C   UNL d   1      30.334 -14.936  -6.691  0.00  0.00     0.179 C 
BRANCH  17  18
ATOM     18  C   UNL d   1      28.877 -14.604  -6.943  0.00  0.00     0.031 C 
BRANCH  18  19
ATOM     19  C   UNL d   1      28.402 -13.368  -6.171  0.00  0.00     0.041 C 
BRANCH  19  20
ATOM     20  C   UNL d   1      27.246 -13.648  -5.233  0.00  0.00    -0.058 A 
ATOM     21  C   UNL d   1      26.689 -14.928  -5.092  0.00  0.00     0.007 A 
ATOM     22  C   UNL d   1      25.533 -15.131  -4.348  0.00  0.00     0.001 A 
ATOM     23  C   UNL d   1      24.970 -14.074  -3.646  0.00  0.00     0.000 A 
ATOM     24  C   UNL d   1      25.540 -12.804  -3.724  0.00  0.00     0.001 A 
ATOM     25  C   UNL d   1      26.668 -12.588  -4.521  0.00  0.00     0.007 A 
ENDBRANCH  19  20
ENDBRANCH  18  19
ENDBRANCH  17  18
ENDBRANCH  16  17
ENDBRANCH  14  16
ENDBRANCH  13  14
ENDBRANCH  12  13
ENDBRANCH  11  12
ENDBRANCH   8  11
ENDBRANCH   4   7
BRANCH   1  26
ATOM     26  S   UNL d   1      28.237 -15.234   0.052  0.00  0.00     0.263 S 
ATOM     27  O   UNL d   1      27.307 -14.266  -0.504  0.00  0.00    -0.200 OA
ATOM     28  O   UNL d   1      29.240 -14.844   1.013  0.00  0.00    -0.200 OA
BRANCH  26  29
ATOM     29  N   UNL d   1      27.333 -16.489   0.753  0.00  0.00    -0.281 N 
ATOM     30  H   UNL d   1      27.743 -17.055   1.489  0.00  0.00     0.179 HD
BRANCH  29  31
ATOM     31  C   UNL d   1      26.121 -16.959   0.130  0.00  0.00     0.042 A 
ATOM     32  C   UNL d   1      25.582 -18.200   0.494  0.00  0.00     0.033 A 
ATOM     33  C   UNL d   1      24.423 -18.691  -0.142  0.00  0.00     0.039 A 
ATOM     34  C   UNL d   1      23.753 -17.924  -1.096  0.00  0.00     0.068 A 
ATOM     35  C   UNL d   1      24.256 -16.669  -1.415  0.00  0.00     0.039 A 
ATOM     36  C   UNL d   1      25.424 -16.197  -0.808  0.00  0.00     0.033 A 
BRANCH  34  37
ATOM     37  O   UNL d   1      22.574 -18.423  -1.582  0.00  0.00    -0.352 OA
BRANCH  37  38
ATOM     38  C   UNL d   1      21.516 -18.561  -0.627  0.00  0.00     0.171 C 
ATOM     39  C   UNL d   1      20.368 -19.321  -1.269  0.00  0.00     0.034 C 
ENDBRANCH  37  38
ENDBRANCH  34  37
ENDBRANCH  29  31
ENDBRANCH  26  29
ENDBRANCH   1  26
TORSDOF 15
ENDMDL
MODEL 8
REMARK VINA RESULT:    -6.900      6.786      9.071
REMARK INTER + INTRA:         -15.480
REMARK INTER:                 -11.374
REMARK INTRA:                  -4.106
REMARK CONF_INDEPENDENT:        4.474
REMARK UNBOUND:                -4.106
REMARK  15 active torsions:
REMARK  status: ('A' for Active; 'I' for Inactive)
REMARK    1  A    between atoms: C_2  and  O_3 
REMARK    2  A    between atoms: O_3  and  C_4 
REMARK    3  A    between atoms: C_7  and  N_8 
REMARK    4  A    between atoms: N_8  and  S_9 
REMARK    5  A    between atoms: S_9  and  C_12 
REMARK    6  A    between atoms: C_15  and  N_16 
REMARK       I    between atoms: N_16  and  C_17 
REMARK    7  A    between atoms: C_17  and  C_19 
REMARK    8  A    between atoms: C_19  and  C_20 
REMARK    9  A    between atoms: C_20  and  C_21 
REMARK   10  A    between atoms: C_21  and  C_22 
REMARK   11  A    between atoms: C_22  and  O_24 
REMARK   12  A    between atoms: O_24  and  C_25 
REMARK   13  A    between atoms: C_25  and  C_26 
REMARK   14  A    between atoms: C_26  and  C_27 
REMARK   15  A    between atoms: C_27  and  C_28 
ROOT
ATOM      1  C   UNL d   1      26.769 -14.165  -4.266  0.00  0.00     0.080 A 
ATOM      2  C   UNL d   1      27.101 -12.879  -4.728  0.00  0.00     0.027 A 
ATOM      3  C   UNL d   1      27.920 -12.714  -5.872  0.00  0.00     0.031 A 
ATOM      4  C   UNL d   1      28.482 -13.831  -6.506  0.00  0.00     0.034 A 
ATOM      5  C   UNL d   1      28.116 -15.092  -6.016  0.00  0.00     0.031 A 
ATOM      6  C   UNL d   1      27.276 -15.270  -4.919  0.00  0.00     0.027 A 
ENDROOT
BRANCH   4   7
ATOM      7  N   UNL d   1      29.412 -13.682  -7.586  0.00  0.00    -0.327 N 
ATOM      8  C   UNL d   1      30.033 -12.478  -7.912  0.00  0.00     0.222 C 
ATOM      9  O   UNL d   1      29.882 -11.427  -7.291  0.00  0.00    -0.273 OA
ATOM     10  H   UNL d   1      29.558 -14.485  -8.187  0.00  0.00     0.169 HD
BRANCH   8  11
ATOM     11  C   UNL d   1      30.947 -12.463  -9.136  0.00  0.00     0.103 C 
BRANCH  11  12
ATOM     12  C   UNL d   1      32.345 -12.954  -8.691  0.00  0.00     0.019 C 
BRANCH  12  13
ATOM     13  C   UNL d   1      32.567 -14.462  -8.760  0.00  0.00     0.111 C 
BRANCH  13  14
ATOM     14  C   UNL d   1      32.237 -15.102  -7.421  0.00  0.00     0.258 C 
ATOM     15  O   UNL d   1      32.906 -14.976  -6.400  0.00  0.00    -0.265 OA
BRANCH  14  16
ATOM     16  O   UNL d   1      31.094 -15.842  -7.490  0.00  0.00    -0.321 OA
BRANCH  16  17
ATOM     17  C   UNL d   1      31.322 -17.256  -7.318  0.00  0.00     0.179 C 
BRANCH  17  18
ATOM     18  C   UNL d   1      30.405 -17.764  -6.224  0.00  0.00     0.031 C 
BRANCH  18  19
ATOM     19  C   UNL d   1      31.078 -17.805  -4.848  0.00  0.00     0.041 C 
BRANCH  19  20
ATOM     20  C   UNL d   1      30.553 -16.760  -3.886  0.00  0.00    -0.058 A 
ATOM     21  C   UNL d   1      29.657 -17.075  -2.853  0.00  0.00     0.007 A 
ATOM     22  C   UNL d   1      29.068 -16.078  -2.084  0.00  0.00     0.001 A 
ATOM     23  C   UNL d   1      29.443 -14.754  -2.266  0.00  0.00     0.000 A 
ATOM     24  C   UNL d   1      30.375 -14.423  -3.248  0.00  0.00     0.001 A 
ATOM     25  C   UNL d   1      30.922 -15.419  -4.062  0.00  0.00     0.007 A 
ENDBRANCH  19  20
ENDBRANCH  18  19
ENDBRANCH  17  18
ENDBRANCH  16  17
ENDBRANCH  14  16
ENDBRANCH  13  14
ENDBRANCH  12  13
ENDBRANCH  11  12
ENDBRANCH   8  11
ENDBRANCH   4   7
BRANCH   1  26
ATOM     26  S   UNL d   1      25.585 -14.374  -2.954  0.00  0.00     0.263 S 
ATOM     27  O   UNL d   1      24.291 -14.415  -3.615  0.00  0.00    -0.200 OA
ATOM     28  O   UNL d   1      25.885 -13.374  -1.958  0.00  0.00    -0.200 OA
BRANCH  26  29
ATOM     29  N   UNL d   1      25.861 -15.890  -2.241  0.00  0.00    -0.281 N 
ATOM     30  H   UNL d   1      26.689 -16.420  -2.488  0.00  0.00     0.179 HD
BRANCH  29  31
ATOM     31  C   UNL d   1      24.808 -16.568  -1.528  0.00  0.00     0.042 A 
ATOM     32  C   UNL d   1      25.047 -17.824  -0.953  0.00  0.00     0.033 A 
ATOM     33  C   UNL d   1      24.013 -18.518  -0.293  0.00  0.00     0.039 A 
ATOM     34  C   UNL d   1      22.750 -17.942  -0.141  0.00  0.00     0.068 A 
ATOM     35  C   UNL d   1      22.530 -16.673  -0.660  0.00  0.00     0.039 A 
ATOM     36  C   UNL d   1      23.547 -15.999  -1.344  0.00  0.00     0.033 A 
BRANCH  34  37
ATOM     37  O   UNL d   1      21.837 -18.631   0.612  0.00  0.00    -0.352 OA
BRANCH  37  38
ATOM     38  C   UNL d   1      21.080 -19.626  -0.087  0.00  0.00     0.171 C 
ATOM     39  C   UNL d   1      19.987 -18.939  -0.890  0.00  0.00     0.034 C 
ENDBRANCH  37  38
ENDBRANCH  34  37
ENDBRANCH  29  31
ENDBRANCH  26  29
ENDBRANCH   1  26
TORSDOF 15
ENDMDL
MODEL 9
REMARK VINA RESULT:    -6.786      2.533     10.440
REMARK INTER + INTRA:         -15.436
REMARK INTER:                 -11.261
REMARK INTRA:                  -4.175
REMARK CONF_INDEPENDENT:        4.474
REMARK UNBOUND:                -4.175
REMARK  15 active torsions:
REMARK  status: ('A' for Active; 'I' for Inactive)
REMARK    1  A    between atoms: C_2  and  O_3 
REMARK    2  A    between atoms: O_3  and  C_4 
REMARK    3  A    between atoms: C_7  and  N_8 
REMARK    4  A    between atoms: N_8  and  S_9 
REMARK    5  A    between atoms: S_9  and  C_12 
REMARK    6  A    between atoms: C_15  and  N_16 
REMARK       I    between atoms: N_16  and  C_17 
REMARK    7  A    between atoms: C_17  and  C_19 
REMARK    8  A    between atoms: C_19  and  C_20 
REMARK    9  A    between atoms: C_20  and  C_21 
REMARK   10  A    between atoms: C_21  and  C_22 
REMARK   11  A    between atoms: C_22  and  O_24 
REMARK   12  A    between atoms: O_24  and  C_25 
REMARK   13  A    between atoms: C_25  and  C_26 
REMARK   14  A    between atoms: C_26  and  C_27 
REMARK   15  A    between atoms: C_27  and  C_28 
ROOT
ATOM      1  C   UNL d   1      28.482 -14.296   3.314  0.00  0.00     0.080 A 
ATOM      2  C   UNL d   1      27.388 -14.051   4.163  0.00  0.00     0.027 A 
ATOM      3  C   UNL d   1      27.577 -13.930   5.562  0.00  0.00     0.031 A 
ATOM      4  C   UNL d   1      28.843 -14.140   6.126  0.00  0.00     0.034 A 
ATOM      5  C   UNL d   1      29.904 -14.372   5.240  0.00  0.00     0.031 A 
ATOM      6  C   UNL d   1      29.741 -14.450   3.858  0.00  0.00     0.027 A 
ENDROOT
BRANCH   4   7
ATOM      7  N   UNL d   1      29.032 -14.147   7.547  0.00  0.00    -0.327 N 
ATOM      8  C   UNL d   1      28.530 -13.165   8.399  0.00  0.00     0.222 C 
ATOM      9  O   UNL d   1      27.841 -12.214   8.034  0.00  0.00    -0.273 OA
ATOM     10  H   UNL d   1      29.634 -14.866   7.932  0.00  0.00     0.169 HD
BRANCH   8  11
ATOM     11  C   UNL d   1      28.876 -13.274   9.882  0.00  0.00     0.103 C 
BRANCH  11  12
ATOM     12  C   UNL d   1      29.042 -14.774  10.224  0.00  0.00     0.019 C 
BRANCH  12  13
ATOM     13  C   UNL d   1      30.472 -15.305  10.180  0.00  0.00     0.111 C 
BRANCH  13  14
ATOM     14  C   UNL d   1      31.437 -14.181   9.835  0.00  0.00     0.258 C 
ATOM     15  O   UNL d   1      32.046 -13.503  10.656  0.00  0.00    -0.265 OA
BRANCH  14  16
ATOM     16  O   UNL d   1      31.546 -14.014   8.486  0.00  0.00    -0.321 OA
BRANCH  16  17
ATOM     17  C   UNL d   1      32.336 -12.865   8.117  0.00  0.00     0.179 C 
BRANCH  17  18
ATOM     18  C   UNL d   1      31.408 -11.788   7.596  0.00  0.00     0.031 C 
BRANCH  18  19
ATOM     19  C   UNL d   1      31.719 -11.373   6.153  0.00  0.00     0.041 C 
BRANCH  19  20
ATOM     20  C   UNL d   1      30.483 -11.144   5.309  0.00  0.00    -0.058 A 
ATOM     21  C   UNL d   1      30.506 -11.227   3.909  0.00  0.00     0.007 A 
ATOM     22  C   UNL d   1      29.402 -10.859   3.149  0.00  0.00     0.001 A 
ATOM     23  C   UNL d   1      28.219 -10.501   3.780  0.00  0.00     0.000 A 
ATOM     24  C   UNL d   1      28.155 -10.468   5.171  0.00  0.00     0.001 A 
ATOM     25  C   UNL d   1      29.283 -10.778   5.935  0.00  0.00     0.007 A 
ENDBRANCH  19  20
ENDBRANCH  18  19
ENDBRANCH  17  18
ENDBRANCH  16  17
ENDBRANCH  14  16
ENDBRANCH  13  14
ENDBRANCH  12  13
ENDBRANCH  11  12
ENDBRANCH   8  11
ENDBRANCH   4   7
BRANCH   1  26
ATOM     26  S   UNL d   1      28.278 -14.251   1.547  0.00  0.00     0.263 S 
ATOM     27  O   UNL d   1      29.466 -13.581   1.045  0.00  0.00    -0.200 OA
ATOM     28  O   UNL d   1      26.959 -13.725   1.292  0.00  0.00    -0.200 OA
BRANCH  26  29
ATOM     29  N   UNL d   1      28.298 -15.852   0.980  0.00  0.00    -0.281 N 
ATOM     30  H   UNL d   1      29.170 -16.370   0.964  0.00  0.00     0.179 HD
BRANCH  29  31
ATOM     31  C   UNL d   1      27.176 -16.386   0.251  0.00  0.00     0.042 A 
ATOM     32  C   UNL d   1      26.649 -17.638   0.594  0.00  0.00     0.033 A 
ATOM     33  C   UNL d   1      25.582 -18.193  -0.142  0.00  0.00     0.039 A 
ATOM     34  C   UNL d   1      24.985 -17.477  -1.182  0.00  0.00     0.068 A 
ATOM     35  C   UNL d   1      25.470 -16.211  -1.485  0.00  0.00     0.039 A 
ATOM     36  C   UNL d   1      26.550 -15.677  -0.776  0.00  0.00     0.033 A 
BRANCH  34  37
ATOM     37  O   UNL d   1      23.882 -18.037  -1.771  0.00  0.00    -0.352 OA
BRANCH  37  38
ATOM     38  C   UNL d   1      23.130 -18.939  -0.952  0.00  0.00     0.171 C 
ATOM     39  C   UNL d   1      22.161 -18.137  -0.098  0.00  0.00     0.034 C 
ENDBRANCH  37  38
ENDBRANCH  34  37
ENDBRANCH  29  31
ENDBRANCH  26  29
ENDBRANCH   1  26
TORSDOF 15
ENDMDL
