MODEL 1
REMARK VINA RESULT:    -9.687      0.000      0.000
REMARK INTER + INTRA:         -12.984
REMARK INTER:                 -11.477
REMARK INTRA:                  -1.507
REMARK CONF_INDEPENDENT:        1.790
REMARK UNBOUND:                -1.507
REMARK  6 active torsions:
REMARK  status: ('A' for Active; 'I' for Inactive)
REMARK    1  A    between atoms: C_3  and  O_2 
REMARK    2  A    between atoms: C_3  and  C_26 
REMARK    3  A    between atoms: C_3  and  C_4 
REMARK       I    between atoms: C_4  and  N_6 
REMARK    4  A    between atoms: N_6  and  C_7 
REMARK    5  A    between atoms: N_11  and  C_12 
REMARK    6  A    between atoms: C_15  and  C_16 
ROOT
ATOM      1  C   UNL d   1      27.022 -15.914  -2.295  0.00  0.00     0.043 A 
ATOM      2  C   UNL d   1      25.629 -15.965  -2.587  0.00  0.00     0.066 A 
ATOM      3  C   UNL d   1      24.869 -16.860  -1.782  0.00  0.00     0.111 A 
ATOM      4  N   UNL d   1      23.568 -17.215  -1.838  0.00  0.00    -0.147 NA
ATOM      5  N   UNL d   1      23.417 -17.999  -0.735  0.00  0.00    -0.150 N 
ATOM      6  N   UNL d   1      24.526 -18.249  -0.008  0.00  0.00    -0.147 NA
ATOM      7  C   UNL d   1      25.482 -17.604  -0.686  0.00  0.00     0.110 A 
ATOM      8  C   UNL d   1      26.857 -17.558  -0.420  0.00  0.00     0.045 A 
ATOM      9  C   UNL d   1      27.616 -16.688  -1.235  0.00  0.00    -0.033 A 
ATOM     10  C   UNL d   1      29.083 -16.561  -0.883  0.00  0.00     0.050 C 
ENDROOT
BRANCH   1  11
ATOM     11  N   UNL d   1      27.873 -15.063  -3.067  0.00  0.00    -0.324 N 
ATOM     12  C   UNL d   1      27.705 -15.021  -4.451  0.00  0.00     0.255 C 
ATOM     13  O   UNL d   1      26.740 -15.575  -5.001  0.00  0.00    -0.270 OA
ATOM     14  H   UNL d   1      28.232 -14.224  -2.625  0.00  0.00     0.169 HD
BRANCH  12  15
ATOM     15  C   UNL d   1      28.733 -14.186  -5.298  0.00  0.00     0.246 C 
BRANCH  15  16
ATOM     16  C   UNL d   1      29.755 -15.203  -5.817  0.00  0.00    -0.020 C 
ATOM     17  C   UNL d   1      30.691 -14.812  -6.790  0.00  0.00     0.012 C 
ATOM     18  C   UNL d   1      31.385 -15.773  -7.525  0.00  0.00     0.024 C 
ATOM     19  C   UNL d   1      31.255 -17.121  -7.199  0.00  0.00     0.034 C 
ATOM     20 CL   UNL d   1      32.072 -18.309  -8.134  0.00  0.00    -0.084 Cl
ATOM     21  C   UNL d   1      30.446 -17.512  -6.137  0.00  0.00     0.024 C 
ATOM     22  C   UNL d   1      29.658 -16.564  -5.484  0.00  0.00     0.012 C 
ENDBRANCH  15  16
BRANCH  15  23
ATOM     23  O   UNL d   1      29.431 -13.089  -4.686  0.00  0.00    -0.377 OA
ATOM     24  C   UNL d   1      28.619 -12.070  -4.110  0.00  0.00     0.203 C 
ENDBRANCH  15  23
ENDBRANCH  12  15
ENDBRANCH   1  11
BRANCH   5  25
ATOM     25  C   UNL d   1      22.183 -18.589  -0.359  0.00  0.00     0.079 A 
ATOM     26  C   UNL d   1      21.780 -18.575   0.984  0.00  0.00     0.034 A 
ATOM     27  C   UNL d   1      20.659 -19.311   1.392  0.00  0.00     0.010 A 
ATOM     28  C   UNL d   1      19.891 -20.030   0.462  0.00  0.00    -0.055 A 
ATOM     29  C   UNL d   1      20.263 -19.948  -0.894  0.00  0.00     0.010 A 
ATOM     30  C   UNL d   1      21.414 -19.264  -1.303  0.00  0.00     0.034 A 
BRANCH  28  31
ATOM     31  C   UNL d   1      18.737 -20.908   0.941  0.00  0.00     0.010 C 
ATOM     32  C   UNL d   1      18.082 -20.351   2.210  0.00  0.00     0.015 C 
ATOM     33  C   UNL d   1      17.655 -21.124  -0.126  0.00  0.00     0.015 C 
ENDBRANCH  28  31
ENDBRANCH   5  25
TORSDOF 6
ENDMDL
MODEL 2
REMARK VINA RESULT:    -9.373      2.382      3.400
REMARK INTER + INTRA:         -12.543
REMARK INTER:                 -11.163
REMARK INTRA:                  -1.380
REMARK CONF_INDEPENDENT:        1.790
REMARK UNBOUND:                -1.380
REMARK  6 active torsions:
REMARK  status: ('A' for Active; 'I' for Inactive)
REMARK    1  A    between atoms: C_3  and  O_2 
REMARK    2  A    between atoms: C_3  and  C_26 
REMARK    3  A    between atoms: C_3  and  C_4 
REMARK       I    between atoms: C_4  and  N_6 
REMARK    4  A    between atoms: N_6  and  C_7 
REMARK    5  A    between atoms: N_11  and  C_12 
REMARK    6  A    between atoms: C_15  and  C_16 
ROOT
ATOM      1  C   UNL d   1      26.901 -15.689  -2.242  0.00  0.00     0.043 A 
ATOM      2  C   UNL d   1      25.491 -15.683  -2.444  0.00  0.00     0.066 A 
ATOM      3  C   UNL d   1      24.766 -16.664  -1.708  0.00  0.00     0.111 A 
ATOM      4  N   UNL d   1      23.456 -16.990  -1.721  0.00  0.00    -0.147 NA
ATOM      5  N   UNL d   1      23.360 -17.906  -0.718  0.00  0.00    -0.150 N 
ATOM      6  N   UNL d   1      24.508 -18.263  -0.105  0.00  0.00    -0.147 NA
ATOM      7  C   UNL d   1      25.432 -17.549  -0.759  0.00  0.00     0.110 A 
ATOM      8  C   UNL d   1      26.823 -17.556  -0.583  0.00  0.00     0.045 A 
ATOM      9  C   UNL d   1      27.546 -16.600  -1.331  0.00  0.00    -0.033 A 
ATOM     10  C   UNL d   1      29.035 -16.539  -1.065  0.00  0.00     0.050 C 
ENDROOT
BRANCH   1  11
ATOM     11  N   UNL d   1      27.719 -14.758  -2.955  0.00  0.00    -0.324 N 
ATOM     12  C   UNL d   1      27.775 -14.843  -4.347  0.00  0.00     0.255 C 
ATOM     13  O   UNL d   1      27.016 -15.594  -4.980  0.00  0.00    -0.270 OA
ATOM     14  H   UNL d   1      27.860 -13.840  -2.548  0.00  0.00     0.169 HD
BRANCH  12  15
ATOM     15  C   UNL d   1      28.780 -13.902  -5.107  0.00  0.00     0.246 C 
BRANCH  15  16
ATOM     16  C   UNL d   1      27.925 -12.761  -5.667  0.00  0.00    -0.020 C 
ATOM     17  C   UNL d   1      28.510 -11.814  -6.527  0.00  0.00     0.012 C 
ATOM     18  C   UNL d   1      27.875 -10.595  -6.767  0.00  0.00     0.024 C 
ATOM     19  C   UNL d   1      26.596 -10.370  -6.265  0.00  0.00     0.034 C 
ATOM     20 CL   UNL d   1      25.833  -8.850  -6.519  0.00  0.00    -0.084 Cl
ATOM     21  C   UNL d   1      25.943 -11.359  -5.537  0.00  0.00     0.024 C 
ATOM     22  C   UNL d   1      26.625 -12.527  -5.194  0.00  0.00     0.012 C 
ENDBRANCH  15  16
BRANCH  15  23
ATOM     23  O   UNL d   1      29.595 -14.440  -6.162  0.00  0.00    -0.377 OA
ATOM     24  C   UNL d   1      30.209 -15.699  -5.903  0.00  0.00     0.203 C 
ENDBRANCH  15  23
ENDBRANCH  12  15
ENDBRANCH   1  11
BRANCH   5  25
ATOM     25  C   UNL d   1      22.141 -18.523  -0.337  0.00  0.00     0.079 A 
ATOM     26  C   UNL d   1      21.775 -18.578   1.015  0.00  0.00     0.034 A 
ATOM     27  C   UNL d   1      20.670 -19.340   1.418  0.00  0.00     0.010 A 
ATOM     28  C   UNL d   1      19.881 -20.018   0.475  0.00  0.00    -0.055 A 
ATOM     29  C   UNL d   1      20.214 -19.867  -0.884  0.00  0.00     0.010 A 
ATOM     30  C   UNL d   1      21.349 -19.156  -1.292  0.00  0.00     0.034 A 
BRANCH  28  31
ATOM     31  C   UNL d   1      18.746 -20.927   0.943  0.00  0.00     0.010 C 
ATOM     32  C   UNL d   1      18.015 -20.349   2.160  0.00  0.00     0.015 C 
ATOM     33  C   UNL d   1      17.720 -21.232  -0.157  0.00  0.00     0.015 C 
ENDBRANCH  28  31
ENDBRANCH   5  25
TORSDOF 6
ENDMDL
MODEL 3
REMARK VINA RESULT:    -9.176      5.454     10.475
REMARK INTER + INTRA:         -12.378
REMARK INTER:                 -10.966
REMARK INTRA:                  -1.412
REMARK CONF_INDEPENDENT:        1.790
REMARK UNBOUND:                -1.412
REMARK  6 active torsions:
REMARK  status: ('A' for Active; 'I' for Inactive)
REMARK    1  A    between atoms: C_3  and  O_2 
REMARK    2  A    between atoms: C_3  and  C_26 
REMARK    3  A    between atoms: C_3  and  C_4 
REMARK       I    between atoms: C_4  and  N_6 
REMARK    4  A    between atoms: N_6  and  C_7 
REMARK    5  A    between atoms: N_11  and  C_12 
REMARK    6  A    between atoms: C_15  and  C_16 
ROOT
ATOM      1  C   UNL d   1      26.598 -13.659  -3.212  0.00  0.00     0.043 A 
ATOM      2  C   UNL d   1      25.869 -12.476  -2.902  0.00  0.00     0.066 A 
ATOM      3  C   UNL d   1      25.755 -11.533  -3.963  0.00  0.00     0.111 A 
ATOM      4  N   UNL d   1      25.216 -10.296  -3.994  0.00  0.00    -0.147 NA
ATOM      5  N   UNL d   1      25.301  -9.959  -5.311  0.00  0.00    -0.150 N 
ATOM      6  N   UNL d   1      25.920 -10.838  -6.127  0.00  0.00    -0.147 NA
ATOM      7  C   UNL d   1      26.289 -11.816  -5.291  0.00  0.00     0.110 A 
ATOM      8  C   UNL d   1      27.021 -12.976  -5.579  0.00  0.00     0.045 A 
ATOM      9  C   UNL d   1      27.155 -13.901  -4.519  0.00  0.00    -0.033 A 
ATOM     10  C   UNL d   1      27.857 -15.199  -4.857  0.00  0.00     0.050 C 
ENDROOT
BRANCH   1  11
ATOM     11  N   UNL d   1      26.788 -14.655  -2.204  0.00  0.00    -0.324 N 
ATOM     12  C   UNL d   1      25.953 -15.773  -2.198  0.00  0.00     0.255 C 
ATOM     13  O   UNL d   1      25.166 -15.996  -3.132  0.00  0.00    -0.270 OA
ATOM     14  H   UNL d   1      27.723 -14.782  -1.832  0.00  0.00     0.169 HD
BRANCH  12  15
ATOM     15  C   UNL d   1      26.085 -16.791  -1.008  0.00  0.00     0.246 C 
BRANCH  15  16
ATOM     16  C   UNL d   1      24.658 -17.268  -0.720  0.00  0.00    -0.020 C 
ATOM     17  C   UNL d   1      24.424 -18.626  -0.438  0.00  0.00     0.012 C 
ATOM     18  C   UNL d   1      23.133 -19.149  -0.520  0.00  0.00     0.024 C 
ATOM     19  C   UNL d   1      22.055 -18.299  -0.746  0.00  0.00     0.034 C 
ATOM     20 CL   UNL d   1      20.470 -18.949  -0.895  0.00  0.00    -0.084 Cl
ATOM     21  C   UNL d   1      22.255 -16.929  -0.878  0.00  0.00     0.024 C 
ATOM     22  C   UNL d   1      23.555 -16.423  -0.919  0.00  0.00     0.012 C 
ENDBRANCH  15  16
BRANCH  15  23
ATOM     23  O   UNL d   1      26.695 -16.367   0.223  0.00  0.00    -0.377 OA
ATOM     24  C   UNL d   1      28.119 -16.411   0.267  0.00  0.00     0.203 C 
ENDBRANCH  15  23
ENDBRANCH  12  15
ENDBRANCH   1  11
BRANCH   5  25
ATOM     25  C   UNL d   1      24.824  -8.731  -5.835  0.00  0.00     0.079 A 
ATOM     26  C   UNL d   1      23.607  -8.201  -5.383  0.00  0.00     0.034 A 
ATOM     27  C   UNL d   1      23.040  -7.090  -6.021  0.00  0.00     0.010 A 
ATOM     28  C   UNL d   1      23.700  -6.456  -7.086  0.00  0.00    -0.055 A 
ATOM     29  C   UNL d   1      24.966  -6.950  -7.456  0.00  0.00     0.010 A 
ATOM     30  C   UNL d   1      25.514  -8.094  -6.864  0.00  0.00     0.034 A 
BRANCH  28  31
ATOM     31  C   UNL d   1      23.017  -5.313  -7.835  0.00  0.00     0.010 C 
ATOM     32  C   UNL d   1      23.190  -5.439  -9.353  0.00  0.00     0.015 C 
ATOM     33  C   UNL d   1      21.523  -5.183  -7.513  0.00  0.00     0.015 C 
ENDBRANCH  28  31
ENDBRANCH   5  25
TORSDOF 6
ENDMDL
MODEL 4
REMARK VINA RESULT:    -8.990      1.531      2.321
REMARK INTER + INTRA:         -12.222
REMARK INTER:                 -10.780
REMARK INTRA:                  -1.442
REMARK CONF_INDEPENDENT:        1.790
REMARK UNBOUND:                -1.442
REMARK  6 active torsions:
REMARK  status: ('A' for Active; 'I' for Inactive)
REMARK    1  A    between atoms: C_3  and  O_2 
REMARK    2  A    between atoms: C_3  and  C_26 
REMARK    3  A    between atoms: C_3  and  C_4 
REMARK       I    between atoms: C_4  and  N_6 
REMARK    4  A    between atoms: N_6  and  C_7 
REMARK    5  A    between atoms: N_11  and  C_12 
REMARK    6  A    between atoms: C_15  and  C_16 
ROOT
ATOM      1  C   UNL d   1      27.355 -16.225  -1.686  0.00  0.00     0.043 A 
ATOM      2  C   UNL d   1      26.788 -17.431  -1.183  0.00  0.00     0.066 A 
ATOM      3  C   UNL d   1      25.378 -17.407  -0.987  0.00  0.00     0.111 A 
ATOM      4  N   UNL d   1      24.541 -18.326  -0.458  0.00  0.00    -0.147 NA
ATOM      5  N   UNL d   1      23.313 -17.774  -0.662  0.00  0.00    -0.150 N 
ATOM      6  N   UNL d   1      23.281 -16.540  -1.208  0.00  0.00    -0.147 NA
ATOM      7  C   UNL d   1      24.578 -16.244  -1.358  0.00  0.00     0.110 A 
ATOM      8  C   UNL d   1      25.150 -15.057  -1.836  0.00  0.00     0.045 A 
ATOM      9  C   UNL d   1      26.553 -15.072  -2.007  0.00  0.00    -0.033 A 
ATOM     10  C   UNL d   1      27.159 -13.826  -2.618  0.00  0.00     0.050 C 
ENDROOT
BRANCH   1  11
ATOM     11  N   UNL d   1      28.767 -16.143  -1.893  0.00  0.00    -0.324 N 
ATOM     12  C   UNL d   1      29.259 -16.197  -3.197  0.00  0.00     0.255 C 
ATOM     13  O   UNL d   1      28.498 -16.153  -4.177  0.00  0.00    -0.270 OA
ATOM     14  H   UNL d   1      29.316 -15.620  -1.219  0.00  0.00     0.169 HD
BRANCH  12  15
ATOM     15  C   UNL d   1      30.817 -16.240  -3.401  0.00  0.00     0.246 C 
BRANCH  15  16
ATOM     16  C   UNL d   1      31.047 -17.173  -4.595  0.00  0.00    -0.020 C 
ATOM     17  C   UNL d   1      31.724 -16.693  -5.730  0.00  0.00     0.012 C 
ATOM     18  C   UNL d   1      31.641 -17.380  -6.941  0.00  0.00     0.024 C 
ATOM     19  C   UNL d   1      31.003 -18.616  -6.993  0.00  0.00     0.034 C 
ATOM     20 CL   UNL d   1      30.859 -19.441  -8.495  0.00  0.00    -0.084 Cl
ATOM     21  C   UNL d   1      30.458 -19.175  -5.842  0.00  0.00     0.024 C 
ATOM     22  C   UNL d   1      30.432 -18.433  -4.661  0.00  0.00     0.012 C 
ENDBRANCH  15  16
BRANCH  15  23
ATOM     23  O   UNL d   1      31.663 -16.652  -2.314  0.00  0.00    -0.377 OA
ATOM     24  C   UNL d   1      31.159 -17.696  -1.485  0.00  0.00     0.203 C 
ENDBRANCH  15  23
ENDBRANCH  12  15
ENDBRANCH   1  11
BRANCH   5  25
ATOM     25  C   UNL d   1      22.101 -18.406  -0.286  0.00  0.00     0.079 A 
ATOM     26  C   UNL d   1      21.791 -18.577   1.071  0.00  0.00     0.034 A 
ATOM     27  C   UNL d   1      20.691 -19.358   1.452  0.00  0.00     0.010 A 
ATOM     28  C   UNL d   1      19.852 -19.938   0.487  0.00  0.00    -0.055 A 
ATOM     29  C   UNL d   1      20.130 -19.669  -0.867  0.00  0.00     0.010 A 
ATOM     30  C   UNL d   1      21.259 -18.940  -1.258  0.00  0.00     0.034 A 
BRANCH  28  31
ATOM     31  C   UNL d   1      18.722 -20.870   0.920  0.00  0.00     0.010 C 
ATOM     32  C   UNL d   1      18.004 -20.355   2.173  0.00  0.00     0.015 C 
ATOM     33  C   UNL d   1      17.684 -21.119  -0.183  0.00  0.00     0.015 C 
ENDBRANCH  28  31
ENDBRANCH   5  25
TORSDOF 6
ENDMDL
MODEL 5
REMARK VINA RESULT:    -8.988      7.310     10.015
REMARK INTER + INTRA:         -12.228
REMARK INTER:                 -10.778
REMARK INTRA:                  -1.449
REMARK CONF_INDEPENDENT:        1.790
REMARK UNBOUND:                -1.449
REMARK  6 active torsions:
REMARK  status: ('A' for Active; 'I' for Inactive)
REMARK    1  A    between atoms: C_3  and  O_2 
REMARK    2  A    between atoms: C_3  and  C_26 
REMARK    3  A    between atoms: C_3  and  C_4 
REMARK       I    between atoms: C_4  and  N_6 
REMARK    4  A    between atoms: N_6  and  C_7 
REMARK    5  A    between atoms: N_11  and  C_12 
REMARK    6  A    between atoms: C_15  and  C_16 
ROOT
ATOM      1  C   UNL d   1      28.606 -14.844   1.467  0.00  0.00     0.043 A 
ATOM      2  C   UNL d   1      27.780 -14.765   2.625  0.00  0.00     0.066 A 
ATOM      3  C   UNL d   1      28.435 -14.333   3.813  0.00  0.00     0.111 A 
ATOM      4  N   UNL d   1      27.987 -14.225   5.082  0.00  0.00    -0.147 NA
ATOM      5  N   UNL d   1      29.035 -13.641   5.728  0.00  0.00    -0.150 N 
ATOM      6  N   UNL d   1      30.156 -13.431   5.006  0.00  0.00    -0.147 NA
ATOM      7  C   UNL d   1      29.837 -13.927   3.804  0.00  0.00     0.110 A 
ATOM      8  C   UNL d   1      30.643 -14.027   2.662  0.00  0.00     0.045 A 
ATOM      9  C   UNL d   1      29.999 -14.479   1.488  0.00  0.00    -0.033 A 
ATOM     10  C   UNL d   1      30.844 -14.490   0.232  0.00  0.00     0.050 C 
ENDROOT
BRANCH   1  11
ATOM     11  N   UNL d   1      28.045 -15.293   0.231  0.00  0.00    -0.324 N 
ATOM     12  C   UNL d   1      26.738 -14.923  -0.087  0.00  0.00     0.255 C 
ATOM     13  O   UNL d   1      26.118 -14.092   0.595  0.00  0.00    -0.270 OA
ATOM     14  H   UNL d   1      28.676 -15.453  -0.546  0.00  0.00     0.169 HD
BRANCH  12  15
ATOM     15  C   UNL d   1      26.089 -15.533  -1.383  0.00  0.00     0.246 C 
BRANCH  15  16
ATOM     16  C   UNL d   1      24.909 -16.376  -0.890  0.00  0.00    -0.020 C 
ATOM     17  C   UNL d   1      25.145 -17.653  -0.351  0.00  0.00     0.012 C 
ATOM     18  C   UNL d   1      24.099 -18.568  -0.224  0.00  0.00     0.024 C 
ATOM     19  C   UNL d   1      22.794 -18.169  -0.501  0.00  0.00     0.034 C 
ATOM     20 CL   UNL d   1      21.512 -19.308  -0.391  0.00  0.00    -0.084 Cl
ATOM     21  C   UNL d   1      22.526 -16.861  -0.891  0.00  0.00     0.024 C 
ATOM     22  C   UNL d   1      23.584 -15.984  -1.136  0.00  0.00     0.012 C 
ENDBRANCH  15  16
BRANCH  15  23
ATOM     23  O   UNL d   1      26.893 -16.325  -2.273  0.00  0.00    -0.377 OA
ATOM     24  C   UNL d   1      27.903 -15.629  -2.998  0.00  0.00     0.203 C 
ENDBRANCH  15  23
ENDBRANCH  12  15
ENDBRANCH   1  11
BRANCH   5  25
ATOM     25  C   UNL d   1      29.013 -13.303   7.104  0.00  0.00     0.079 A 
ATOM     26  C   UNL d   1      29.520 -14.201   8.055  0.00  0.00     0.034 A 
ATOM     27  C   UNL d   1      29.338 -13.957   9.424  0.00  0.00     0.010 A 
ATOM     28  C   UNL d   1      28.695 -12.791   9.868  0.00  0.00    -0.055 A 
ATOM     29  C   UNL d   1      28.283 -11.861   8.895  0.00  0.00     0.010 A 
ATOM     30  C   UNL d   1      28.408 -12.122   7.525  0.00  0.00     0.034 A 
BRANCH  28  31
ATOM     31  C   UNL d   1      28.415 -12.595  11.357  0.00  0.00     0.010 C 
ATOM     32  C   UNL d   1      28.156 -13.926  12.071  0.00  0.00     0.015 C 
ATOM     33  C   UNL d   1      29.534 -11.844  12.092  0.00  0.00     0.015 C 
ENDBRANCH  28  31
ENDBRANCH   5  25
TORSDOF 6
ENDMDL
MODEL 6
REMARK VINA RESULT:    -8.465      7.779     10.433
REMARK INTER + INTRA:         -11.616
REMARK INTER:                 -10.254
REMARK INTRA:                  -1.361
REMARK CONF_INDEPENDENT:        1.790
REMARK UNBOUND:                -1.361
REMARK  6 active torsions:
REMARK  status: ('A' for Active; 'I' for Inactive)
REMARK    1  A    between atoms: C_3  and  O_2 
REMARK    2  A    between atoms: C_3  and  C_26 
REMARK    3  A    between atoms: C_3  and  C_4 
REMARK       I    between atoms: C_4  and  N_6 
REMARK    4  A    between atoms: N_6  and  C_7 
REMARK    5  A    between atoms: N_11  and  C_12 
REMARK    6  A    between atoms: C_15  and  C_16 
ROOT
ATOM      1  C   UNL d   1      27.398 -13.456   2.645  0.00  0.00     0.043 A 
ATOM      2  C   UNL d   1      27.879 -14.487   3.501  0.00  0.00     0.066 A 
ATOM      3  C   UNL d   1      28.353 -14.054   4.772  0.00  0.00     0.111 A 
ATOM      4  N   UNL d   1      28.943 -14.736   5.777  0.00  0.00    -0.147 NA
ATOM      5  N   UNL d   1      29.044 -13.802   6.762  0.00  0.00    -0.150 N 
ATOM      6  N   UNL d   1      28.642 -12.549   6.459  0.00  0.00    -0.147 NA
ATOM      7  C   UNL d   1      28.268 -12.656   5.179  0.00  0.00     0.110 A 
ATOM      8  C   UNL d   1      27.809 -11.647   4.320  0.00  0.00     0.045 A 
ATOM      9  C   UNL d   1      27.361 -12.073   3.049  0.00  0.00    -0.033 A 
ATOM     10  C   UNL d   1      26.770 -11.000   2.160  0.00  0.00     0.050 C 
ENDROOT
BRANCH   1  11
ATOM     11  N   UNL d   1      26.924 -13.788   1.338  0.00  0.00    -0.324 N 
ATOM     12  C   UNL d   1      27.786 -14.442   0.457  0.00  0.00     0.255 C 
ATOM     13  O   UNL d   1      28.885 -14.879   0.834  0.00  0.00    -0.270 OA
ATOM     14  H   UNL d   1      25.932 -13.967   1.223  0.00  0.00     0.169 HD
BRANCH  12  15
ATOM     15  C   UNL d   1      27.298 -14.681  -1.018  0.00  0.00     0.246 C 
BRANCH  15  16
ATOM     16  C   UNL d   1      26.281 -15.823  -0.932  0.00  0.00    -0.020 C 
ATOM     17  C   UNL d   1      25.067 -15.726  -1.635  0.00  0.00     0.012 C 
ATOM     18  C   UNL d   1      23.996 -16.558  -1.308  0.00  0.00     0.024 C 
ATOM     19  C   UNL d   1      24.172 -17.579  -0.378  0.00  0.00     0.034 C 
ATOM     20 CL   UNL d   1      22.840 -18.573   0.062  0.00  0.00    -0.084 Cl
ATOM     21  C   UNL d   1      25.413 -17.782   0.217  0.00  0.00     0.024 C 
ATOM     22  C   UNL d   1      26.447 -16.875  -0.018  0.00  0.00     0.012 C 
ENDBRANCH  15  16
BRANCH  15  23
ATOM     23  O   UNL d   1      28.260 -14.984  -2.043  0.00  0.00    -0.377 OA
ATOM     24  C   UNL d   1      28.747 -16.323  -2.071  0.00  0.00     0.203 C 
ENDBRANCH  15  23
ENDBRANCH  12  15
ENDBRANCH   1  11
BRANCH   5  25
ATOM     25  C   UNL d   1      29.588 -14.074   8.043  0.00  0.00     0.079 A 
ATOM     26  C   UNL d   1      30.978 -14.120   8.219  0.00  0.00     0.034 A 
ATOM     27  C   UNL d   1      31.523 -14.565   9.431  0.00  0.00     0.010 A 
ATOM     28  C   UNL d   1      30.692 -14.922  10.506  0.00  0.00    -0.055 A 
ATOM     29  C   UNL d   1      29.302 -14.774  10.334  0.00  0.00     0.010 A 
ATOM     30  C   UNL d   1      28.747 -14.386   9.108  0.00  0.00     0.034 A 
BRANCH  28  31
ATOM     31  C   UNL d   1      31.301 -15.503  11.780  0.00  0.00     0.010 C 
ATOM     32  C   UNL d   1      31.095 -17.019  11.874  0.00  0.00     0.015 C 
ATOM     33  C   UNL d   1      32.796 -15.192  11.935  0.00  0.00     0.015 C 
ENDBRANCH  28  31
ENDBRANCH   5  25
TORSDOF 6
ENDMDL
MODEL 7
REMARK VINA RESULT:    -8.332      8.021     10.762
REMARK INTER + INTRA:         -11.565
REMARK INTER:                 -10.121
REMARK INTRA:                  -1.443
REMARK CONF_INDEPENDENT:        1.790
REMARK UNBOUND:                -1.443
REMARK  6 active torsions:
REMARK  status: ('A' for Active; 'I' for Inactive)
REMARK    1  A    between atoms: C_3  and  O_2 
REMARK    2  A    between atoms: C_3  and  C_26 
REMARK    3  A    between atoms: C_3  and  C_4 
REMARK       I    between atoms: C_4  and  N_6 
REMARK    4  A    between atoms: N_6  and  C_7 
REMARK    5  A    between atoms: N_11  and  C_12 
REMARK    6  A    between atoms: C_15  and  C_16 
ROOT
ATOM      1  C   UNL d   1      27.573 -14.312   2.594  0.00  0.00     0.043 A 
ATOM      2  C   UNL d   1      28.034 -14.825   3.840  0.00  0.00     0.066 A 
ATOM      3  C   UNL d   1      28.197 -13.860   4.875  0.00  0.00     0.111 A 
ATOM      4  N   UNL d   1      28.684 -13.980   6.128  0.00  0.00    -0.147 NA
ATOM      5  N   UNL d   1      28.463 -12.746   6.661  0.00  0.00    -0.150 N 
ATOM      6  N   UNL d   1      27.945 -11.810   5.838  0.00  0.00    -0.147 NA
ATOM      7  C   UNL d   1      27.833 -12.462   4.675  0.00  0.00     0.110 A 
ATOM      8  C   UNL d   1      27.397 -11.966   3.438  0.00  0.00     0.045 A 
ATOM      9  C   UNL d   1      27.259 -12.918   2.403  0.00  0.00    -0.033 A 
ATOM     10  C   UNL d   1      26.692 -12.402   1.098  0.00  0.00     0.050 C 
ENDROOT
BRANCH   1  11
ATOM     11  N   UNL d   1      27.402 -15.198   1.486  0.00  0.00    -0.324 N 
ATOM     12  C   UNL d   1      28.159 -14.986   0.333  0.00  0.00     0.255 C 
ATOM     13  O   UNL d   1      29.080 -14.154   0.309  0.00  0.00    -0.270 OA
ATOM     14  H   UNL d   1      27.126 -16.154   1.681  0.00  0.00     0.169 HD
BRANCH  12  15
ATOM     15  C   UNL d   1      27.865 -15.884  -0.923  0.00  0.00     0.246 C 
BRANCH  15  16
ATOM     16  C   UNL d   1      26.465 -16.463  -0.692  0.00  0.00    -0.020 C 
ATOM     17  C   UNL d   1      26.325 -17.698  -0.034  0.00  0.00     0.012 C 
ATOM     18  C   UNL d   1      25.126 -18.407  -0.118  0.00  0.00     0.024 C 
ATOM     19  C   UNL d   1      24.022 -17.829  -0.738  0.00  0.00     0.034 C 
ATOM     20 CL   UNL d   1      22.560 -18.722  -0.884  0.00  0.00    -0.084 Cl
ATOM     21  C   UNL d   1      24.103 -16.543  -1.262  0.00  0.00     0.024 C 
ATOM     22  C   UNL d   1      25.333 -15.885  -1.287  0.00  0.00     0.012 C 
ENDBRANCH  15  16
BRANCH  15  23
ATOM     23  O   UNL d   1      28.766 -16.954  -1.257  0.00  0.00    -0.377 OA
ATOM     24  C   UNL d   1      29.840 -17.178  -0.348  0.00  0.00     0.203 C 
ENDBRANCH  15  23
ENDBRANCH  12  15
ENDBRANCH   1  11
BRANCH   5  25
ATOM     25  C   UNL d   1      28.795 -12.401   7.995  0.00  0.00     0.079 A 
ATOM     26  C   UNL d   1      29.477 -11.205   8.261  0.00  0.00     0.034 A 
ATOM     27  C   UNL d   1      29.969 -10.943   9.547  0.00  0.00     0.010 A 
ATOM     28  C   UNL d   1      29.745 -11.843  10.601  0.00  0.00    -0.055 A 
ATOM     29  C   UNL d   1      28.975 -12.989  10.328  0.00  0.00     0.010 A 
ATOM     30  C   UNL d   1      28.529 -13.288   9.034  0.00  0.00     0.034 A 
BRANCH  28  31
ATOM     31  C   UNL d   1      30.378 -11.590  11.968  0.00  0.00     0.010 C 
ATOM     32  C   UNL d   1      31.659 -12.408  12.167  0.00  0.00     0.015 C 
ATOM     33  C   UNL d   1      30.686 -10.109  12.230  0.00  0.00     0.015 C 
ENDBRANCH  28  31
ENDBRANCH   5  25
TORSDOF 6
ENDMDL
MODEL 8
REMARK VINA RESULT:    -7.920      1.974      2.874
REMARK INTER + INTRA:         -11.374
REMARK INTER:                  -9.710
REMARK INTRA:                  -1.664
REMARK CONF_INDEPENDENT:        1.790
REMARK UNBOUND:                -1.664
REMARK  6 active torsions:
REMARK  status: ('A' for Active; 'I' for Inactive)
REMARK    1  A    between atoms: C_3  and  O_2 
REMARK    2  A    between atoms: C_3  and  C_26 
REMARK    3  A    between atoms: C_3  and  C_4 
REMARK       I    between atoms: C_4  and  N_6 
REMARK    4  A    between atoms: N_6  and  C_7 
REMARK    5  A    between atoms: N_11  and  C_12 
REMARK    6  A    between atoms: C_15  and  C_16 
ROOT
ATOM      1  C   UNL d   1      28.350 -14.487  -4.035  0.00  0.00     0.043 A 
ATOM      2  C   UNL d   1      26.946 -14.713  -4.117  0.00  0.00     0.066 A 
ATOM      3  C   UNL d   1      26.404 -15.554  -3.104  0.00  0.00     0.111 A 
ATOM      4  N   UNL d   1      25.155 -16.037  -2.929  0.00  0.00    -0.147 NA
ATOM      5  N   UNL d   1      25.237 -16.668  -1.725  0.00  0.00    -0.150 N 
ATOM      6  N   UNL d   1      26.452 -16.705  -1.138  0.00  0.00    -0.147 NA
ATOM      7  C   UNL d   1      27.233 -16.073  -2.022  0.00  0.00     0.110 A 
ATOM      8  C   UNL d   1      28.617 -15.858  -1.962  0.00  0.00     0.045 A 
ATOM      9  C   UNL d   1      29.160 -15.044  -2.981  0.00  0.00    -0.033 A 
ATOM     10  C   UNL d   1      30.636 -14.728  -2.861  0.00  0.00     0.050 C 
ENDROOT
BRANCH   1  11
ATOM     11  N   UNL d   1      28.992 -13.676  -5.022  0.00  0.00    -0.324 N 
ATOM     12  C   UNL d   1      28.948 -14.081  -6.357  0.00  0.00     0.255 C 
ATOM     13  O   UNL d   1      28.235 -15.030  -6.720  0.00  0.00    -0.270 OA
ATOM     14  H   UNL d   1      29.056 -12.679  -4.849  0.00  0.00     0.169 HD
BRANCH  12  15
ATOM     15  C   UNL d   1      29.770 -13.253  -7.410  0.00  0.00     0.246 C 
BRANCH  15  16
ATOM     16  C   UNL d   1      31.000 -14.109  -7.731  0.00  0.00    -0.020 C 
ATOM     17  C   UNL d   1      31.184 -15.335  -7.067  0.00  0.00     0.012 C 
ATOM     18  C   UNL d   1      32.434 -15.955  -7.069  0.00  0.00     0.024 C 
ATOM     19  C   UNL d   1      33.465 -15.432  -7.845  0.00  0.00     0.034 C 
ATOM     20 CL   UNL d   1      35.018 -16.168  -7.810  0.00  0.00    -0.084 Cl
ATOM     21  C   UNL d   1      33.252 -14.301  -8.627  0.00  0.00     0.024 C 
ATOM     22  C   UNL d   1      32.043 -13.612  -8.528  0.00  0.00     0.012 C 
ENDBRANCH  15  16
BRANCH  15  23
ATOM     23  O   UNL d   1      30.198 -11.919  -7.086  0.00  0.00    -0.377 OA
ATOM     24  C   UNL d   1      29.766 -10.888  -7.969  0.00  0.00     0.203 C 
ENDBRANCH  15  23
ENDBRANCH  12  15
ENDBRANCH   1  11
BRANCH   5  25
ATOM     25  C   UNL d   1      24.138 -17.315  -1.106  0.00  0.00     0.079 A 
ATOM     26  C   UNL d   1      24.286 -18.611  -0.592  0.00  0.00     0.034 A 
ATOM     27  C   UNL d   1      23.166 -19.326  -0.145  0.00  0.00     0.010 A 
ATOM     28  C   UNL d   1      21.889 -18.742  -0.154  0.00  0.00    -0.055 A 
ATOM     29  C   UNL d   1      21.785 -17.406  -0.584  0.00  0.00     0.010 A 
ATOM     30  C   UNL d   1      22.887 -16.704  -1.087  0.00  0.00     0.034 A 
BRANCH  28  31
ATOM     31  C   UNL d   1      20.668 -19.573   0.239  0.00  0.00     0.010 C 
ATOM     32  C   UNL d   1      20.264 -19.342   1.699  0.00  0.00     0.015 C 
ATOM     33  C   UNL d   1      19.450 -19.325  -0.662  0.00  0.00     0.015 C 
ENDBRANCH  28  31
ENDBRANCH   5  25
TORSDOF 6
ENDMDL
MODEL 9
REMARK VINA RESULT:    -7.655      6.786      9.200
REMARK INTER + INTRA:         -10.850
REMARK INTER:                  -9.445
REMARK INTRA:                  -1.405
REMARK CONF_INDEPENDENT:        1.790
REMARK UNBOUND:                -1.405
REMARK  6 active torsions:
REMARK  status: ('A' for Active; 'I' for Inactive)
REMARK    1  A    between atoms: C_3  and  O_2 
REMARK    2  A    between atoms: C_3  and  C_26 
REMARK    3  A    between atoms: C_3  and  C_4 
REMARK       I    between atoms: C_4  and  N_6 
REMARK    4  A    between atoms: N_6  and  C_7 
REMARK    5  A    between atoms: N_11  and  C_12 
REMARK    6  A    between atoms: C_15  and  C_16 
ROOT
ATOM      1  C   UNL d   1      27.595 -14.057   0.634  0.00  0.00     0.043 A 
ATOM      2  C   UNL d   1      27.773 -14.827   1.819  0.00  0.00     0.066 A 
ATOM      3  C   UNL d   1      28.056 -14.077   2.996  0.00  0.00     0.111 A 
ATOM      4  N   UNL d   1      28.357 -14.477   4.250  0.00  0.00    -0.147 NA
ATOM      5  N   UNL d   1      28.394 -13.307   4.944  0.00  0.00    -0.150 N 
ATOM      6  N   UNL d   1      28.220 -12.171   4.235  0.00  0.00    -0.147 NA
ATOM      7  C   UNL d   1      28.078 -12.618   2.982  0.00  0.00     0.110 A 
ATOM      8  C   UNL d   1      27.918 -11.873   1.805  0.00  0.00     0.045 A 
ATOM      9  C   UNL d   1      27.662 -12.618   0.632  0.00  0.00    -0.033 A 
ATOM     10  C   UNL d   1      27.388 -11.810  -0.619  0.00  0.00     0.050 C 
ENDROOT
BRANCH   1  11
ATOM     11  N   UNL d   1      27.331 -14.721  -0.605  0.00  0.00    -0.324 N 
ATOM     12  C   UNL d   1      26.232 -15.576  -0.688  0.00  0.00     0.255 C 
ATOM     13  O   UNL d   1      25.397 -15.646   0.228  0.00  0.00    -0.270 OA
ATOM     14  H   UNL d   1      27.616 -14.259  -1.461  0.00  0.00     0.169 HD
BRANCH  12  15
ATOM     15  C   UNL d   1      26.033 -16.401  -2.011  0.00  0.00     0.246 C 
BRANCH  15  16
ATOM     16  C   UNL d   1      25.865 -15.358  -3.121  0.00  0.00    -0.020 C 
ATOM     17  C   UNL d   1      26.891 -15.179  -4.066  0.00  0.00     0.012 C 
ATOM     18  C   UNL d   1      26.929 -14.029  -4.854  0.00  0.00     0.024 C 
ATOM     19  C   UNL d   1      25.876 -13.120  -4.803  0.00  0.00     0.034 C 
ATOM     20 CL   UNL d   1      25.945 -11.679  -5.738  0.00  0.00    -0.084 Cl
ATOM     21  C   UNL d   1      24.779 -13.360  -3.981  0.00  0.00     0.024 C 
ATOM     22  C   UNL d   1      24.799 -14.445  -3.104  0.00  0.00     0.012 C 
ENDBRANCH  15  16
BRANCH  15  23
ATOM     23  O   UNL d   1      24.960 -17.355  -2.098  0.00  0.00    -0.377 OA
ATOM     24  C   UNL d   1      23.808 -17.080  -1.307  0.00  0.00     0.203 C 
ENDBRANCH  15  23
ENDBRANCH  12  15
ENDBRANCH   1  11
BRANCH   5  25
ATOM     25  C   UNL d   1      28.653 -13.232   6.336  0.00  0.00     0.079 A 
ATOM     26  C   UNL d   1      29.392 -14.243   6.967  0.00  0.00     0.034 A 
ATOM     27  C   UNL d   1      29.497 -14.274   8.365  0.00  0.00     0.010 A 
ATOM     28  C   UNL d   1      28.912 -13.269   9.153  0.00  0.00    -0.055 A 
ATOM     29  C   UNL d   1      28.259 -12.214   8.487  0.00  0.00     0.010 A 
ATOM     30  C   UNL d   1      28.099 -12.206   7.096  0.00  0.00     0.034 A 
BRANCH  28  31
ATOM     31  C   UNL d   1      28.949 -13.377  10.676  0.00  0.00     0.010 C 
ATOM     32  C   UNL d   1      30.302 -12.940  11.249  0.00  0.00     0.015 C 
ATOM     33  C   UNL d   1      27.834 -12.582  11.368  0.00  0.00     0.015 C 
ENDBRANCH  28  31
ENDBRANCH   5  25
TORSDOF 6
ENDMDL
