MODEL 1
REMARK VINA RESULT:    -8.678      0.000      0.000
REMARK INTER + INTRA:         -10.901
REMARK INTER:                 -10.170
REMARK INTRA:                  -0.731
REMARK CONF_INDEPENDENT:        1.492
REMARK UNBOUND:                -0.731
REMARK  5 active torsions:
REMARK  status: ('A' for Active; 'I' for Inactive)
REMARK    1  A    between atoms: C_2  and  C_4 
REMARK    2  A    between atoms: C_7  and  N_8 
REMARK       I    between atoms: N_8  and  C_9 
REMARK    3  A    between atoms: C_9  and  C_11 
REMARK    4  A    between atoms: C_11  and  N_13 
REMARK    5  A    between atoms: N_13  and  C_14 
ROOT
ATOM      1  N   UNL d   1      25.609 -16.660  -0.420  0.00  0.00    -0.321 N 
ATOM      2  C   UNL d   1      26.742 -17.141   0.244  0.00  0.00     0.284 C 
ATOM      3  O   UNL d   1      26.835 -18.144   0.937  0.00  0.00    -0.265 OA
ATOM      4  H   UNL d   1      25.718 -15.768  -0.896  0.00  0.00     0.169 HD
ENDROOT
BRANCH   2   5
ATOM      5  C   UNL d   1      28.031 -16.318   0.095  0.00  0.00     0.169 C 
ATOM      6  S   UNL d   1      28.929 -16.560  -1.301  0.00  0.00    -0.054 SA
BRANCH   5   7
ATOM      7  N   UNL d   1      28.358 -15.572   1.232  0.00  0.00    -0.342 N 
ATOM      8  H   UNL d   1      29.202 -15.881   1.717  0.00  0.00     0.167 HD
BRANCH   7   9
ATOM      9  C   UNL d   1      27.849 -14.293   1.571  0.00  0.00     0.045 A 
ATOM     10  C   UNL d   1      27.492 -13.374   0.557  0.00  0.00    -0.035 A 
ATOM     11  C   UNL d   1      27.401 -13.738  -0.903  0.00  0.00     0.050 C 
ATOM     12  C   UNL d   1      27.032 -12.092   0.920  0.00  0.00     0.009 A 
ATOM     13  C   UNL d   1      26.857 -11.750   2.256  0.00  0.00     0.001 A 
ATOM     14  C   UNL d   1      27.226 -12.648   3.250  0.00  0.00     0.009 A 
ATOM     15  C   UNL d   1      27.758 -13.906   2.927  0.00  0.00    -0.035 A 
ATOM     16  C   UNL d   1      28.269 -14.757   4.056  0.00  0.00     0.050 C 
ENDBRANCH   7   9
ENDBRANCH   5   7
ENDBRANCH   2   5
BRANCH   1  17
ATOM     17  C   UNL d   1      24.350 -17.296  -0.498  0.00  0.00     0.035 A 
ATOM     18  C   UNL d   1      24.252 -18.687  -0.339  0.00  0.00     0.030 A 
ATOM     19  C   UNL d   1      23.015 -19.335  -0.518  0.00  0.00     0.017 A 
ATOM     20  C   UNL d   1      21.867 -18.585  -0.801  0.00  0.00     0.009 A 
ATOM     21  C   UNL d   1      21.953 -17.201  -0.899  0.00  0.00     0.017 A 
ATOM     22  C   UNL d   1      23.184 -16.571  -0.740  0.00  0.00     0.030 A 
BRANCH  20  23
ATOM     23  C   UNL d   1      20.547 -19.248  -0.922  0.00  0.00     0.155 C 
ATOM     24  C   UNL d   1      19.680 -19.321   0.310  0.00  0.00     0.096 C 
ATOM     25  O   UNL d   1      20.196 -19.700  -2.006  0.00  0.00    -0.293 OA
ENDBRANCH  20  23
ENDBRANCH   1  17
TORSDOF 5
ENDMDL
MODEL 2
REMARK VINA RESULT:    -8.654      0.228      1.832
REMARK INTER + INTRA:         -10.738
REMARK INTER:                 -10.145
REMARK INTRA:                  -0.592
REMARK CONF_INDEPENDENT:        1.492
REMARK UNBOUND:                -0.592
REMARK  5 active torsions:
REMARK  status: ('A' for Active; 'I' for Inactive)
REMARK    1  A    between atoms: C_2  and  C_4 
REMARK    2  A    between atoms: C_7  and  N_8 
REMARK       I    between atoms: N_8  and  C_9 
REMARK    3  A    between atoms: C_9  and  C_11 
REMARK    4  A    between atoms: C_11  and  N_13 
REMARK    5  A    between atoms: N_13  and  C_14 
ROOT
ATOM      1  N   UNL d   1      25.573 -16.552  -0.441  0.00  0.00    -0.321 N 
ATOM      2  C   UNL d   1      26.713 -16.966   0.255  0.00  0.00     0.284 C 
ATOM      3  O   UNL d   1      26.832 -17.937   0.989  0.00  0.00    -0.265 OA
ATOM      4  H   UNL d   1      25.656 -15.676  -0.951  0.00  0.00     0.169 HD
ENDROOT
BRANCH   2   5
ATOM      5  C   UNL d   1      27.973 -16.103   0.089  0.00  0.00     0.169 C 
ATOM      6  S   UNL d   1      28.763 -16.191  -1.389  0.00  0.00    -0.054 SA
BRANCH   5   7
ATOM      7  N   UNL d   1      28.378 -15.463   1.264  0.00  0.00    -0.342 N 
ATOM      8  H   UNL d   1      29.235 -15.833   1.679  0.00  0.00     0.167 HD
BRANCH   7   9
ATOM      9  C   UNL d   1      27.925 -14.204   1.732  0.00  0.00     0.045 A 
ATOM     10  C   UNL d   1      27.874 -13.933   3.119  0.00  0.00    -0.035 A 
ATOM     11  C   UNL d   1      28.489 -14.826   4.165  0.00  0.00     0.050 C 
ATOM     12  C   UNL d   1      27.376 -12.691   3.561  0.00  0.00     0.009 A 
ATOM     13  C   UNL d   1      27.005 -11.707   2.651  0.00  0.00     0.001 A 
ATOM     14  C   UNL d   1      27.039 -11.983   1.289  0.00  0.00     0.009 A 
ATOM     15  C   UNL d   1      27.458 -13.236   0.815  0.00  0.00    -0.035 A 
ATOM     16  C   UNL d   1      27.324 -13.503  -0.659  0.00  0.00     0.050 C 
ENDBRANCH   7   9
ENDBRANCH   5   7
ENDBRANCH   2   5
BRANCH   1  17
ATOM     17  C   UNL d   1      24.338 -17.235  -0.508  0.00  0.00     0.035 A 
ATOM     18  C   UNL d   1      24.293 -18.629  -0.345  0.00  0.00     0.030 A 
ATOM     19  C   UNL d   1      23.081 -19.323  -0.514  0.00  0.00     0.017 A 
ATOM     20  C   UNL d   1      21.903 -18.617  -0.791  0.00  0.00     0.009 A 
ATOM     21  C   UNL d   1      21.937 -17.232  -0.893  0.00  0.00     0.017 A 
ATOM     22  C   UNL d   1      23.144 -16.556  -0.744  0.00  0.00     0.030 A 
BRANCH  20  23
ATOM     23  C   UNL d   1      20.609 -19.330  -0.901  0.00  0.00     0.155 C 
ATOM     24  C   UNL d   1      19.739 -19.407   0.329  0.00  0.00     0.096 C 
ATOM     25  O   UNL d   1      20.278 -19.819  -1.976  0.00  0.00    -0.293 OA
ENDBRANCH  20  23
ENDBRANCH   1  17
TORSDOF 5
ENDMDL
MODEL 3
REMARK VINA RESULT:    -8.257      2.421      4.203
REMARK INTER + INTRA:         -10.466
REMARK INTER:                  -9.749
REMARK INTRA:                  -0.717
REMARK CONF_INDEPENDENT:        1.492
REMARK UNBOUND:                -0.717
REMARK  5 active torsions:
REMARK  status: ('A' for Active; 'I' for Inactive)
REMARK    1  A    between atoms: C_2  and  C_4 
REMARK    2  A    between atoms: C_7  and  N_8 
REMARK       I    between atoms: N_8  and  C_9 
REMARK    3  A    between atoms: C_9  and  C_11 
REMARK    4  A    between atoms: C_11  and  N_13 
REMARK    5  A    between atoms: N_13  and  C_14 
ROOT
ATOM      1  N   UNL d   1      25.556 -16.666  -0.165  0.00  0.00    -0.321 N 
ATOM      2  C   UNL d   1      26.772 -17.292   0.127  0.00  0.00     0.284 C 
ATOM      3  O   UNL d   1      26.980 -18.486   0.293  0.00  0.00    -0.265 OA
ATOM      4  H   UNL d   1      25.577 -15.650  -0.202  0.00  0.00     0.169 HD
ENDROOT
BRANCH   2   5
ATOM      5  C   UNL d   1      28.003 -16.382   0.260  0.00  0.00     0.169 C 
ATOM      6  S   UNL d   1      27.722 -14.785   0.692  0.00  0.00    -0.054 SA
BRANCH   5   7
ATOM      7  N   UNL d   1      29.197 -16.985  -0.145  0.00  0.00    -0.342 N 
ATOM      8  H   UNL d   1      29.662 -17.540   0.577  0.00  0.00     0.167 HD
BRANCH   7   9
ATOM      9  C   UNL d   1      29.634 -17.166  -1.481  0.00  0.00     0.045 A 
ATOM     10  C   UNL d   1      29.015 -16.459  -2.537  0.00  0.00    -0.035 A 
ATOM     11  C   UNL d   1      28.042 -15.327  -2.325  0.00  0.00     0.050 C 
ATOM     12  C   UNL d   1      29.436 -16.691  -3.862  0.00  0.00     0.009 A 
ATOM     13  C   UNL d   1      30.497 -17.548  -4.133  0.00  0.00     0.001 A 
ATOM     14  C   UNL d   1      31.091 -18.255  -3.095  0.00  0.00     0.009 A 
ATOM     15  C   UNL d   1      30.648 -18.106  -1.772  0.00  0.00    -0.035 A 
ATOM     16  C   UNL d   1      31.242 -19.016  -0.732  0.00  0.00     0.050 C 
ENDBRANCH   7   9
ENDBRANCH   5   7
ENDBRANCH   2   5
BRANCH   1  17
ATOM     17  C   UNL d   1      24.324 -17.307  -0.419  0.00  0.00     0.035 A 
ATOM     18  C   UNL d   1      23.187 -16.548  -0.742  0.00  0.00     0.030 A 
ATOM     19  C   UNL d   1      21.937 -17.176  -0.894  0.00  0.00     0.017 A 
ATOM     20  C   UNL d   1      21.833 -18.567  -0.778  0.00  0.00     0.009 A 
ATOM     21  C   UNL d   1      22.969 -19.324  -0.518  0.00  0.00     0.017 A 
ATOM     22  C   UNL d   1      24.198 -18.694  -0.349  0.00  0.00     0.030 A 
BRANCH  20  23
ATOM     23  C   UNL d   1      20.536 -19.246  -1.007  0.00  0.00     0.155 C 
ATOM     24  C   UNL d   1      19.571 -19.331   0.150  0.00  0.00     0.096 C 
ATOM     25  O   UNL d   1      20.280 -19.701  -2.117  0.00  0.00    -0.293 OA
ENDBRANCH  20  23
ENDBRANCH   1  17
TORSDOF 5
ENDMDL
MODEL 4
REMARK VINA RESULT:    -8.153      2.613      4.027
REMARK INTER + INTRA:         -10.779
REMARK INTER:                  -9.645
REMARK INTRA:                  -1.134
REMARK CONF_INDEPENDENT:        1.492
REMARK UNBOUND:                -1.134
REMARK  5 active torsions:
REMARK  status: ('A' for Active; 'I' for Inactive)
REMARK    1  A    between atoms: C_2  and  C_4 
REMARK    2  A    between atoms: C_7  and  N_8 
REMARK       I    between atoms: N_8  and  C_9 
REMARK    3  A    between atoms: C_9  and  C_11 
REMARK    4  A    between atoms: C_11  and  N_13 
REMARK    5  A    between atoms: N_13  and  C_14 
ROOT
ATOM      1  N   UNL d   1      25.460 -16.485  -0.728  0.00  0.00    -0.321 N 
ATOM      2  C   UNL d   1      26.742 -17.014  -0.542  0.00  0.00     0.284 C 
ATOM      3  O   UNL d   1      27.043 -18.156  -0.226  0.00  0.00    -0.265 OA
ATOM      4  H   UNL d   1      25.415 -15.489  -0.928  0.00  0.00     0.169 HD
ENDROOT
BRANCH   2   5
ATOM      5  C   UNL d   1      27.922 -16.053  -0.755  0.00  0.00     0.169 C 
ATOM      6  S   UNL d   1      29.321 -16.365   0.117  0.00  0.00    -0.054 SA
BRANCH   5   7
ATOM      7  N   UNL d   1      27.612 -14.947  -1.553  0.00  0.00    -0.342 N 
ATOM      8  H   UNL d   1      27.715 -14.043  -1.088  0.00  0.00     0.167 HD
BRANCH   7   9
ATOM      9  C   UNL d   1      27.496 -14.939  -2.965  0.00  0.00     0.045 A 
ATOM     10  C   UNL d   1      28.625 -15.191  -3.777  0.00  0.00    -0.035 A 
ATOM     11  C   UNL d   1      29.939 -15.700  -3.242  0.00  0.00     0.050 C 
ATOM     12  C   UNL d   1      28.494 -15.131  -5.179  0.00  0.00     0.009 A 
ATOM     13  C   UNL d   1      27.257 -14.900  -5.770  0.00  0.00     0.001 A 
ATOM     14  C   UNL d   1      26.152 -14.634  -4.969  0.00  0.00     0.009 A 
ATOM     15  C   UNL d   1      26.261 -14.612  -3.570  0.00  0.00    -0.035 A 
ATOM     16  C   UNL d   1      25.057 -14.171  -2.785  0.00  0.00     0.050 C 
ENDBRANCH   7   9
ENDBRANCH   5   7
ENDBRANCH   2   5
BRANCH   1  17
ATOM     17  C   UNL d   1      24.243 -17.200  -0.676  0.00  0.00     0.035 A 
ATOM     18  C   UNL d   1      24.247 -18.584  -0.438  0.00  0.00     0.030 A 
ATOM     19  C   UNL d   1      23.046 -19.314  -0.488  0.00  0.00     0.017 A 
ATOM     20  C   UNL d   1      21.833 -18.653  -0.720  0.00  0.00     0.009 A 
ATOM     21  C   UNL d   1      21.822 -17.274  -0.895  0.00  0.00     0.017 A 
ATOM     22  C   UNL d   1      23.017 -16.563  -0.864  0.00  0.00     0.030 A 
BRANCH  20  23
ATOM     23  C   UNL d   1      20.554 -19.400  -0.704  0.00  0.00     0.155 C 
ATOM     24  C   UNL d   1      19.958 -19.749   0.637  0.00  0.00     0.096 C 
ATOM     25  O   UNL d   1      20.017 -19.700  -1.765  0.00  0.00    -0.293 OA
ENDBRANCH  20  23
ENDBRANCH   1  17
TORSDOF 5
ENDMDL
MODEL 5
REMARK VINA RESULT:    -8.116      2.556      3.992
REMARK INTER + INTRA:         -10.766
REMARK INTER:                  -9.607
REMARK INTRA:                  -1.159
REMARK CONF_INDEPENDENT:        1.492
REMARK UNBOUND:                -1.159
REMARK  5 active torsions:
REMARK  status: ('A' for Active; 'I' for Inactive)
REMARK    1  A    between atoms: C_2  and  C_4 
REMARK    2  A    between atoms: C_7  and  N_8 
REMARK       I    between atoms: N_8  and  C_9 
REMARK    3  A    between atoms: C_9  and  C_11 
REMARK    4  A    between atoms: C_11  and  N_13 
REMARK    5  A    between atoms: N_13  and  C_14 
ROOT
ATOM      1  N   UNL d   1      25.382 -16.426  -0.645  0.00  0.00    -0.321 N 
ATOM      2  C   UNL d   1      26.682 -16.924  -0.517  0.00  0.00     0.284 C 
ATOM      3  O   UNL d   1      27.025 -18.071  -0.268  0.00  0.00    -0.265 OA
ATOM      4  H   UNL d   1      25.302 -15.423  -0.791  0.00  0.00     0.169 HD
ENDROOT
BRANCH   2   5
ATOM      5  C   UNL d   1      27.828 -15.918  -0.709  0.00  0.00     0.169 C 
ATOM      6  S   UNL d   1      29.205 -16.149   0.222  0.00  0.00    -0.054 SA
BRANCH   5   7
ATOM      7  N   UNL d   1      27.502 -14.845  -1.543  0.00  0.00    -0.342 N 
ATOM      8  H   UNL d   1      27.593 -13.924  -1.109  0.00  0.00     0.167 HD
BRANCH   7   9
ATOM      9  C   UNL d   1      27.385 -14.886  -2.955  0.00  0.00     0.045 A 
ATOM     10  C   UNL d   1      26.119 -14.747  -3.571  0.00  0.00    -0.035 A 
ATOM     11  C   UNL d   1      24.874 -14.328  -2.832  0.00  0.00     0.050 C 
ATOM     12  C   UNL d   1      26.022 -14.838  -4.974  0.00  0.00     0.009 A 
ATOM     13  C   UNL d   1      27.159 -14.987  -5.759  0.00  0.00     0.001 A 
ATOM     14  C   UNL d   1      28.399 -15.141  -5.150  0.00  0.00     0.009 A 
ATOM     15  C   UNL d   1      28.525 -15.131  -3.752  0.00  0.00    -0.035 A 
ATOM     16  C   UNL d   1      29.875 -15.452  -3.172  0.00  0.00     0.050 C 
ENDBRANCH   7   9
ENDBRANCH   5   7
ENDBRANCH   2   5
BRANCH   1  17
ATOM     17  C   UNL d   1      24.188 -17.179  -0.599  0.00  0.00     0.035 A 
ATOM     18  C   UNL d   1      24.230 -18.550  -0.299  0.00  0.00     0.030 A 
ATOM     19  C   UNL d   1      23.055 -19.324  -0.355  0.00  0.00     0.017 A 
ATOM     20  C   UNL d   1      21.831 -18.715  -0.657  0.00  0.00     0.009 A 
ATOM     21  C   UNL d   1      21.780 -17.348  -0.894  0.00  0.00     0.017 A 
ATOM     22  C   UNL d   1      22.949 -16.594  -0.857  0.00  0.00     0.030 A 
BRANCH  20  23
ATOM     23  C   UNL d   1      20.577 -19.506  -0.649  0.00  0.00     0.155 C 
ATOM     24  C   UNL d   1      20.082 -20.029   0.676  0.00  0.00     0.096 C 
ATOM     25  O   UNL d   1      19.979 -19.698  -1.702  0.00  0.00    -0.293 OA
ENDBRANCH  20  23
ENDBRANCH   1  17
TORSDOF 5
ENDMDL
MODEL 6
REMARK VINA RESULT:    -8.046      2.381      4.385
REMARK INTER + INTRA:         -10.405
REMARK INTER:                  -9.537
REMARK INTRA:                  -0.868
REMARK CONF_INDEPENDENT:        1.492
REMARK UNBOUND:                -0.868
REMARK  5 active torsions:
REMARK  status: ('A' for Active; 'I' for Inactive)
REMARK    1  A    between atoms: C_2  and  C_4 
REMARK    2  A    between atoms: C_7  and  N_8 
REMARK       I    between atoms: N_8  and  C_9 
REMARK    3  A    between atoms: C_9  and  C_11 
REMARK    4  A    between atoms: C_11  and  N_13 
REMARK    5  A    between atoms: N_13  and  C_14 
ROOT
ATOM      1  N   UNL d   1      25.552 -16.631  -0.110  0.00  0.00    -0.321 N 
ATOM      2  C   UNL d   1      26.788 -17.234   0.138  0.00  0.00     0.284 C 
ATOM      3  O   UNL d   1      27.029 -18.427   0.264  0.00  0.00    -0.265 OA
ATOM      4  H   UNL d   1      25.546 -15.614  -0.118  0.00  0.00     0.169 HD
ENDROOT
BRANCH   2   5
ATOM      5  C   UNL d   1      27.998 -16.297   0.273  0.00  0.00     0.169 C 
ATOM      6  S   UNL d   1      27.686 -14.716   0.738  0.00  0.00    -0.054 SA
BRANCH   5   7
ATOM      7  N   UNL d   1      29.202 -16.864  -0.159  0.00  0.00    -0.342 N 
ATOM      8  H   UNL d   1      29.728 -17.353   0.568  0.00  0.00     0.167 HD
BRANCH   7   9
ATOM      9  C   UNL d   1      29.583 -17.100  -1.503  0.00  0.00     0.045 A 
ATOM     10  C   UNL d   1      30.423 -18.191  -1.827  0.00  0.00    -0.035 A 
ATOM     11  C   UNL d   1      30.780 -19.285  -0.854  0.00  0.00     0.050 C 
ATOM     12  C   UNL d   1      30.825 -18.377  -3.165  0.00  0.00     0.009 A 
ATOM     13  C   UNL d   1      30.349 -17.549  -4.175  0.00  0.00     0.001 A 
ATOM     14  C   UNL d   1      29.537 -16.468  -3.851  0.00  0.00     0.009 A 
ATOM     15  C   UNL d   1      29.177 -16.207  -2.520  0.00  0.00    -0.035 A 
ATOM     16  C   UNL d   1      28.423 -14.936  -2.239  0.00  0.00     0.050 C 
ENDBRANCH   7   9
ENDBRANCH   5   7
ENDBRANCH   2   5
BRANCH   1  17
ATOM     17  C   UNL d   1      24.330 -17.295  -0.359  0.00  0.00     0.035 A 
ATOM     18  C   UNL d   1      23.194 -16.564  -0.742  0.00  0.00     0.030 A 
ATOM     19  C   UNL d   1      21.953 -17.210  -0.889  0.00  0.00     0.017 A 
ATOM     20  C   UNL d   1      21.858 -18.595  -0.707  0.00  0.00     0.009 A 
ATOM     21  C   UNL d   1      22.995 -19.328  -0.386  0.00  0.00     0.017 A 
ATOM     22  C   UNL d   1      24.214 -18.678  -0.223  0.00  0.00     0.030 A 
BRANCH  20  23
ATOM     23  C   UNL d   1      20.572 -19.296  -0.929  0.00  0.00     0.155 C 
ATOM     24  C   UNL d   1      19.647 -19.464   0.251  0.00  0.00     0.096 C 
ATOM     25  O   UNL d   1      20.292 -19.703  -2.052  0.00  0.00    -0.293 OA
ENDBRANCH  20  23
ENDBRANCH   1  17
TORSDOF 5
ENDMDL
MODEL 7
REMARK VINA RESULT:    -7.825      3.066      4.533
REMARK INTER + INTRA:         -10.390
REMARK INTER:                  -9.316
REMARK INTRA:                  -1.074
REMARK CONF_INDEPENDENT:        1.492
REMARK UNBOUND:                -1.074
REMARK  5 active torsions:
REMARK  status: ('A' for Active; 'I' for Inactive)
REMARK    1  A    between atoms: C_2  and  C_4 
REMARK    2  A    between atoms: C_7  and  N_8 
REMARK       I    between atoms: N_8  and  C_9 
REMARK    3  A    between atoms: C_9  and  C_11 
REMARK    4  A    between atoms: C_11  and  N_13 
REMARK    5  A    between atoms: N_13  and  C_14 
ROOT
ATOM      1  N   UNL d   1      25.592 -16.683  -0.727  0.00  0.00    -0.321 N 
ATOM      2  C   UNL d   1      26.009 -15.752  -1.684  0.00  0.00     0.284 C 
ATOM      3  O   UNL d   1      25.412 -15.388  -2.687  0.00  0.00    -0.265 OA
ATOM      4  H   UNL d   1      26.263 -16.899   0.005  0.00  0.00     0.169 HD
ENDROOT
BRANCH   2   5
ATOM      5  C   UNL d   1      27.383 -15.102  -1.460  0.00  0.00     0.169 C 
ATOM      6  S   UNL d   1      28.095 -15.329   0.043  0.00  0.00    -0.054 SA
BRANCH   5   7
ATOM      7  N   UNL d   1      27.793 -14.274  -2.509  0.00  0.00    -0.342 N 
ATOM      8  H   UNL d   1      27.976 -13.304  -2.242  0.00  0.00     0.167 HD
BRANCH   7   9
ATOM      9  C   UNL d   1      28.275 -14.697  -3.773  0.00  0.00     0.045 A 
ATOM     10  C   UNL d   1      27.624 -14.288  -4.960  0.00  0.00    -0.035 A 
ATOM     11  C   UNL d   1      26.555 -13.226  -5.000  0.00  0.00     0.050 C 
ATOM     12  C   UNL d   1      28.094 -14.761  -6.202  0.00  0.00     0.009 A 
ATOM     13  C   UNL d   1      29.228 -15.561  -6.277  0.00  0.00     0.001 A 
ATOM     14  C   UNL d   1      29.855 -15.976  -5.108  0.00  0.00     0.009 A 
ATOM     15  C   UNL d   1      29.370 -15.587  -3.850  0.00  0.00    -0.035 A 
ATOM     16  C   UNL d   1      30.014 -16.198  -2.636  0.00  0.00     0.050 C 
ENDBRANCH   7   9
ENDBRANCH   5   7
ENDBRANCH   2   5
BRANCH   1  17
ATOM     17  C   UNL d   1      24.338 -17.332  -0.682  0.00  0.00     0.035 A 
ATOM     18  C   UNL d   1      24.268 -18.718  -0.465  0.00  0.00     0.030 A 
ATOM     19  C   UNL d   1      23.029 -19.381  -0.522  0.00  0.00     0.017 A 
ATOM     20  C   UNL d   1      21.853 -18.652  -0.740  0.00  0.00     0.009 A 
ATOM     21  C   UNL d   1      21.916 -17.273  -0.894  0.00  0.00     0.017 A 
ATOM     22  C   UNL d   1      23.148 -16.627  -0.857  0.00  0.00     0.030 A 
BRANCH  20  23
ATOM     23  C   UNL d   1      20.536 -19.330  -0.731  0.00  0.00     0.155 C 
ATOM     24  C   UNL d   1      19.850 -19.521   0.598  0.00  0.00     0.096 C 
ATOM     25  O   UNL d   1      20.041 -19.700  -1.791  0.00  0.00    -0.293 OA
ENDBRANCH  20  23
ENDBRANCH   1  17
TORSDOF 5
ENDMDL
MODEL 8
REMARK VINA RESULT:    -7.792      2.474      3.921
REMARK INTER + INTRA:         -10.500
REMARK INTER:                  -9.283
REMARK INTRA:                  -1.217
REMARK CONF_INDEPENDENT:        1.492
REMARK UNBOUND:                -1.217
REMARK  5 active torsions:
REMARK  status: ('A' for Active; 'I' for Inactive)
REMARK    1  A    between atoms: C_2  and  C_4 
REMARK    2  A    between atoms: C_7  and  N_8 
REMARK       I    between atoms: N_8  and  C_9 
REMARK    3  A    between atoms: C_9  and  C_11 
REMARK    4  A    between atoms: C_11  and  N_13 
REMARK    5  A    between atoms: N_13  and  C_14 
ROOT
ATOM      1  N   UNL d   1      25.516 -16.497  -0.481  0.00  0.00    -0.321 N 
ATOM      2  C   UNL d   1      26.276 -16.073  -1.576  0.00  0.00     0.284 C 
ATOM      3  O   UNL d   1      26.067 -16.286  -2.762  0.00  0.00    -0.265 OA
ATOM      4  H   UNL d   1      25.892 -16.271   0.436  0.00  0.00     0.169 HD
ENDROOT
BRANCH   2   5
ATOM      5  C   UNL d   1      27.529 -15.240  -1.265  0.00  0.00     0.169 C 
ATOM      6  S   UNL d   1      28.030 -15.193   0.336  0.00  0.00    -0.054 SA
BRANCH   5   7
ATOM      7  N   UNL d   1      28.003 -14.506  -2.356  0.00  0.00    -0.342 N 
ATOM      8  H   UNL d   1      28.815 -14.914  -2.825  0.00  0.00     0.167 HD
BRANCH   7   9
ATOM      9  C   UNL d   1      27.308 -13.481  -3.043  0.00  0.00     0.045 A 
ATOM     10  C   UNL d   1      26.938 -12.293  -2.370  0.00  0.00    -0.035 A 
ATOM     11  C   UNL d   1      27.431 -11.927  -0.994  0.00  0.00     0.050 C 
ATOM     12  C   UNL d   1      26.205 -11.308  -3.063  0.00  0.00     0.009 A 
ATOM     13  C   UNL d   1      25.908 -11.458  -4.412  0.00  0.00     0.001 A 
ATOM     14  C   UNL d   1      26.258 -12.633  -5.067  0.00  0.00     0.009 A 
ATOM     15  C   UNL d   1      26.921 -13.668  -4.389  0.00  0.00    -0.035 A 
ATOM     16  C   UNL d   1      27.130 -14.962  -5.127  0.00  0.00     0.050 C 
ENDBRANCH   7   9
ENDBRANCH   5   7
ENDBRANCH   2   5
BRANCH   1  17
ATOM     17  C   UNL d   1      24.286 -17.190  -0.534  0.00  0.00     0.035 A 
ATOM     18  C   UNL d   1      24.254 -18.584  -0.365  0.00  0.00     0.030 A 
ATOM     19  C   UNL d   1      23.045 -19.288  -0.519  0.00  0.00     0.017 A 
ATOM     20  C   UNL d   1      21.860 -18.593  -0.787  0.00  0.00     0.009 A 
ATOM     21  C   UNL d   1      21.881 -17.208  -0.894  0.00  0.00     0.017 A 
ATOM     22  C   UNL d   1      23.084 -16.522  -0.760  0.00  0.00     0.030 A 
BRANCH  20  23
ATOM     23  C   UNL d   1      20.570 -19.316  -0.881  0.00  0.00     0.155 C 
ATOM     24  C   UNL d   1      19.788 -19.533   0.391  0.00  0.00     0.096 C 
ATOM     25  O   UNL d   1      20.172 -19.702  -1.975  0.00  0.00    -0.293 OA
ENDBRANCH  20  23
ENDBRANCH   1  17
TORSDOF 5
ENDMDL
MODEL 9
REMARK VINA RESULT:    -7.761      2.551      3.704
REMARK INTER + INTRA:         -10.435
REMARK INTER:                  -9.253
REMARK INTRA:                  -1.183
REMARK CONF_INDEPENDENT:        1.492
REMARK UNBOUND:                -1.183
REMARK  5 active torsions:
REMARK  status: ('A' for Active; 'I' for Inactive)
REMARK    1  A    between atoms: C_2  and  C_4 
REMARK    2  A    between atoms: C_7  and  N_8 
REMARK       I    between atoms: N_8  and  C_9 
REMARK    3  A    between atoms: C_9  and  C_11 
REMARK    4  A    between atoms: C_11  and  N_13 
REMARK    5  A    between atoms: N_13  and  C_14 
ROOT
ATOM      1  N   UNL d   1      25.688 -16.578  -0.601  0.00  0.00    -0.321 N 
ATOM      2  C   UNL d   1      26.301 -15.961  -1.697  0.00  0.00     0.284 C 
ATOM      3  O   UNL d   1      25.925 -15.953  -2.861  0.00  0.00    -0.265 OA
ATOM      4  H   UNL d   1      26.193 -16.524   0.279  0.00  0.00     0.169 HD
ENDROOT
BRANCH   2   5
ATOM      5  C   UNL d   1      27.606 -15.200  -1.418  0.00  0.00     0.169 C 
ATOM      6  S   UNL d   1      28.193 -15.249   0.153  0.00  0.00    -0.054 SA
BRANCH   5   7
ATOM      7  N   UNL d   1      28.056 -14.437  -2.500  0.00  0.00    -0.342 N 
ATOM      8  H   UNL d   1      28.875 -14.817  -2.979  0.00  0.00     0.167 HD
BRANCH   7   9
ATOM      9  C   UNL d   1      27.331 -13.420  -3.168  0.00  0.00     0.045 A 
ATOM     10  C   UNL d   1      27.015 -13.551  -4.540  0.00  0.00    -0.035 A 
ATOM     11  C   UNL d   1      27.205 -14.826  -5.321  0.00  0.00     0.050 C 
ATOM     12  C   UNL d   1      26.333 -12.504  -5.194  0.00  0.00     0.009 A 
ATOM     13  C   UNL d   1      25.905 -11.384  -4.491  0.00  0.00     0.001 A 
ATOM     14  C   UNL d   1      26.233 -11.250  -3.146  0.00  0.00     0.009 A 
ATOM     15  C   UNL d   1      26.976 -12.237  -2.481  0.00  0.00    -0.035 A 
ATOM     16  C   UNL d   1      27.415 -11.947  -1.072  0.00  0.00     0.050 C 
ENDBRANCH   7   9
ENDBRANCH   5   7
ENDBRANCH   2   5
BRANCH   1  17
ATOM     17  C   UNL d   1      24.445 -17.249  -0.606  0.00  0.00     0.035 A 
ATOM     18  C   UNL d   1      24.394 -18.639  -0.413  0.00  0.00     0.030 A 
ATOM     19  C   UNL d   1      23.169 -19.324  -0.520  0.00  0.00     0.017 A 
ATOM     20  C   UNL d   1      21.988 -18.612  -0.764  0.00  0.00     0.009 A 
ATOM     21  C   UNL d   1      22.031 -17.229  -0.895  0.00  0.00     0.017 A 
ATOM     22  C   UNL d   1      23.249 -16.563  -0.808  0.00  0.00     0.030 A 
BRANCH  20  23
ATOM     23  C   UNL d   1      20.683 -19.313  -0.808  0.00  0.00     0.155 C 
ATOM     24  C   UNL d   1      19.898 -19.422   0.475  0.00  0.00     0.096 C 
ATOM     25  O   UNL d   1      20.277 -19.767  -1.873  0.00  0.00    -0.293 OA
ENDBRANCH  20  23
ENDBRANCH   1  17
TORSDOF 5
ENDMDL
