MODEL 1
REMARK VINA RESULT:    -7.956      0.000      0.000
REMARK INTER + INTRA:         -10.709
REMARK INTER:                  -9.448
REMARK INTRA:                  -1.261
REMARK CONF_INDEPENDENT:        1.492
REMARK UNBOUND:                -1.261
REMARK  5 active torsions:
REMARK  status: ('A' for Active; 'I' for Inactive)
REMARK    1  A    between atoms: C_7  and  N_8 
REMARK    2  A    between atoms: C_17  and  C_18 
REMARK       I    between atoms: C_18  and  N_20 
REMARK    3  A    between atoms: N_20  and  C_21 
REMARK    4  A    between atoms: C_21  and  C_22 
REMARK    5  A    between atoms: C_28  and  N_29 
ROOT
ATOM      1  C   UNL d   1      30.947  -8.378   5.589  0.00  0.00     0.046 C 
ATOM      2  C   UNL d   1      30.269  -9.537   6.326  0.00  0.00     0.058 C 
ATOM      3  C   UNL d   1      28.908  -9.054   6.853  0.00  0.00     0.046 C 
ATOM      4  C   UNL d   1      30.072 -10.648   5.322  0.00  0.00     0.077 C 
ATOM      5  C   UNL d   1      29.648 -11.954   5.930  0.00  0.00    -0.028 A 
ATOM      6  C   UNL d   1      29.851 -12.185   7.311  0.00  0.00     0.017 A 
ATOM      7  C   UNL d   1      29.429 -13.397   7.893  0.00  0.00     0.113 A 
ATOM      8  N   UNL d   1      28.875 -14.330   7.069  0.00  0.00    -0.336 N 
ATOM      9  C   UNL d   1      28.687 -14.114   5.717  0.00  0.00     0.089 A 
ATOM     10  S   UNL d   1      27.967 -15.200   4.576  0.00  0.00    -0.064 SA
ATOM     11  C   UNL d   1      28.161 -14.102   3.246  0.00  0.00     0.101 A 
ATOM     12  C   UNL d   1      28.769 -12.949   3.701  0.00  0.00     0.062 A 
ATOM     13  C   UNL d   1      29.068 -12.938   5.106  0.00  0.00     0.033 A 
ATOM     14  C   UNL d   1      30.515 -11.085   8.128  0.00  0.00     0.212 C 
ATOM     15  O   UNL d   1      31.123 -10.043   7.353  0.00  0.00    -0.376 OA
ATOM     16  H   UNL d   1      28.557 -15.200   7.483  0.00  0.00     0.168 HD
ENDROOT
BRANCH  11  17
ATOM     17  C   UNL d   1      27.779 -14.307   1.826  0.00  0.00     0.261 C 
ATOM     18  O   UNL d   1      27.221 -13.413   1.168  0.00  0.00    -0.267 OA
ATOM     19  N   UNL d   1      28.048 -15.497   1.218  0.00  0.00    -0.352 N 
ATOM     20  H   UNL d   1      28.425 -16.229   1.790  0.00  0.00     0.163 HD
BRANCH  19  21
ATOM     21  C   UNL d   1      27.697 -15.761  -0.186  0.00  0.00     0.161 C 
BRANCH  21  22
ATOM     22  C   UNL d   1      26.370 -16.468  -0.372  0.00  0.00    -0.041 C 
ATOM     23  C   UNL d   1      26.091 -17.691   0.254  0.00  0.00     0.009 C 
ATOM     24  C   UNL d   1      24.800 -18.200   0.297  0.00  0.00     0.001 C 
ATOM     25  C   UNL d   1      23.823 -17.659  -0.523  0.00  0.00     0.000 C 
ATOM     26  C   UNL d   1      24.109 -16.526  -1.279  0.00  0.00     0.001 C 
ATOM     27  C   UNL d   1      25.346 -15.882  -1.139  0.00  0.00     0.009 C 
ENDBRANCH  21  22
ENDBRANCH  19  21
ENDBRANCH  11  17
BRANCH  12  28
ATOM     28  N   UNL d   1      29.035 -11.926   2.861  0.00  0.00    -0.397 N 
ATOM     29  H   UNL d   1      28.580 -11.867   1.940  0.00  0.00     0.156 HD
ATOM     30  H   UNL d   1      29.789 -11.256   2.929  0.00  0.00     0.156 HD
ENDBRANCH  12  28
BRANCH   7  31
ATOM     31  N   UNL d   1      29.586 -13.683   9.235  0.00  0.00    -0.363 N 
ATOM     32  C   UNL d   1      30.710 -14.460   9.843  0.00  0.00     0.150 C 
ATOM     33  C   UNL d   1      30.195 -15.576  10.785  0.00  0.00     0.187 C 
ATOM     34  O   UNL d   1      29.287 -15.040  11.757  0.00  0.00    -0.388 OA
ATOM     35  C   UNL d   1      28.155 -14.448  11.111  0.00  0.00     0.187 C 
ATOM     36  C   UNL d   1      28.587 -13.256  10.232  0.00  0.00     0.150 C 
ENDBRANCH   7  31
TORSDOF 5
ENDMDL
MODEL 2
REMARK VINA RESULT:    -7.526      2.248      8.867
REMARK INTER + INTRA:         -10.205
REMARK INTER:                  -9.018
REMARK INTRA:                  -1.188
REMARK CONF_INDEPENDENT:        1.492
REMARK UNBOUND:                -1.188
REMARK  5 active torsions:
REMARK  status: ('A' for Active; 'I' for Inactive)
REMARK    1  A    between atoms: C_7  and  N_8 
REMARK    2  A    between atoms: C_17  and  C_18 
REMARK       I    between atoms: C_18  and  N_20 
REMARK    3  A    between atoms: N_20  and  C_21 
REMARK    4  A    between atoms: C_21  and  C_22 
REMARK    5  A    between atoms: C_28  and  N_29 
ROOT
ATOM      1  C   UNL d   1      26.694  -8.562   2.540  0.00  0.00     0.046 C 
ATOM      2  C   UNL d   1      27.291  -9.946   2.259  0.00  0.00     0.058 C 
ATOM      3  C   UNL d   1      28.743  -9.767   1.787  0.00  0.00     0.046 C 
ATOM      4  C   UNL d   1      27.259 -10.716   3.558  0.00  0.00     0.077 C 
ATOM      5  C   UNL d   1      27.574 -12.176   3.411  0.00  0.00    -0.028 A 
ATOM      6  C   UNL d   1      27.472 -12.793   2.141  0.00  0.00     0.017 A 
ATOM      7  C   UNL d   1      27.796 -14.156   1.991  0.00  0.00     0.113 A 
ATOM      8  N   UNL d   1      28.154 -14.844   3.112  0.00  0.00    -0.336 N 
ATOM      9  C   UNL d   1      28.242 -14.249   4.356  0.00  0.00     0.089 A 
ATOM     10  S   UNL d   1      28.717 -15.001   5.842  0.00  0.00    -0.064 SA
ATOM     11  C   UNL d   1      28.538 -13.541   6.763  0.00  0.00     0.101 A 
ATOM     12  C   UNL d   1      28.118 -12.529   5.923  0.00  0.00     0.062 A 
ATOM     13  C   UNL d   1      27.953 -12.914   4.549  0.00  0.00     0.033 A 
ATOM     14  C   UNL d   1      27.025 -11.935   0.966  0.00  0.00     0.212 C 
ATOM     15  O   UNL d   1      26.479 -10.659   1.325  0.00  0.00    -0.376 OA
ATOM     16  H   UNL d   1      28.400 -15.823   3.009  0.00  0.00     0.168 HD
ENDROOT
BRANCH  11  17
ATOM     17  C   UNL d   1      28.760 -13.343   8.217  0.00  0.00     0.261 C 
ATOM     18  O   UNL d   1      28.857 -12.206   8.710  0.00  0.00    -0.267 OA
ATOM     19  N   UNL d   1      28.855 -14.425   9.042  0.00  0.00    -0.352 N 
ATOM     20  H   UNL d   1      28.854 -15.330   8.611  0.00  0.00     0.163 HD
BRANCH  19  21
ATOM     21  C   UNL d   1      29.073 -14.294  10.490  0.00  0.00     0.161 C 
BRANCH  21  22
ATOM     22  C   UNL d   1      30.415 -14.813  10.966  0.00  0.00    -0.041 C 
ATOM     23  C   UNL d   1      30.516 -15.783  11.972  0.00  0.00     0.009 C 
ATOM     24  C   UNL d   1      31.712 -16.442  12.220  0.00  0.00     0.001 C 
ATOM     25  C   UNL d   1      32.889 -15.950  11.679  0.00  0.00     0.000 C 
ATOM     26  C   UNL d   1      32.844 -14.883  10.786  0.00  0.00     0.001 C 
ATOM     27  C   UNL d   1      31.608 -14.374  10.364  0.00  0.00     0.009 C 
ENDBRANCH  21  22
ENDBRANCH  19  21
ENDBRANCH  11  17
BRANCH  12  28
ATOM     28  N   UNL d   1      27.903 -11.281   6.392  0.00  0.00    -0.397 N 
ATOM     29  H   UNL d   1      28.468 -10.903   7.163  0.00  0.00     0.156 HD
ATOM     30  H   UNL d   1      27.108 -10.685   6.206  0.00  0.00     0.156 HD
ENDBRANCH  12  28
BRANCH   7  31
ATOM     31  N   UNL d   1      27.728 -14.818   0.781  0.00  0.00    -0.363 N 
ATOM     32  C   UNL d   1      26.542 -14.871  -0.127  0.00  0.00     0.150 C 
ATOM     33  C   UNL d   1      26.211 -16.321  -0.559  0.00  0.00     0.187 C 
ATOM     34  O   UNL d   1      27.369 -16.965  -1.104  0.00  0.00    -0.388 OA
ATOM     35  C   UNL d   1      28.416 -17.020  -0.128  0.00  0.00     0.187 C 
ATOM     36  C   UNL d   1      28.869 -15.601   0.271  0.00  0.00     0.150 C 
ENDBRANCH   7  31
TORSDOF 5
ENDMDL
MODEL 3
REMARK VINA RESULT:    -7.483      6.668     10.294
REMARK INTER + INTRA:          -9.979
REMARK INTER:                  -8.974
REMARK INTRA:                  -1.005
REMARK CONF_INDEPENDENT:        1.492
REMARK UNBOUND:                -1.005
REMARK  5 active torsions:
REMARK  status: ('A' for Active; 'I' for Inactive)
REMARK    1  A    between atoms: C_7  and  N_8 
REMARK    2  A    between atoms: C_17  and  C_18 
REMARK       I    between atoms: C_18  and  N_20 
REMARK    3  A    between atoms: N_20  and  C_21 
REMARK    4  A    between atoms: C_21  and  C_22 
REMARK    5  A    between atoms: C_28  and  N_29 
ROOT
ATOM      1  C   UNL d   1      30.138 -15.479   0.586  0.00  0.00     0.046 C 
ATOM      2  C   UNL d   1      28.616 -15.525   0.410  0.00  0.00     0.058 C 
ATOM      3  C   UNL d   1      27.971 -14.648   1.495  0.00  0.00     0.046 C 
ATOM      4  C   UNL d   1      28.310 -14.966  -0.959  0.00  0.00     0.077 C 
ATOM      5  C   UNL d   1      26.888 -15.167  -1.397  0.00  0.00    -0.028 A 
ATOM      6  C   UNL d   1      26.090 -16.150  -0.764  0.00  0.00     0.017 A 
ATOM      7  C   UNL d   1      24.746 -16.322  -1.151  0.00  0.00     0.113 A 
ATOM      8  N   UNL d   1      24.282 -15.550  -2.173  0.00  0.00    -0.336 N 
ATOM      9  C   UNL d   1      25.062 -14.599  -2.803  0.00  0.00     0.089 A 
ATOM     10  S   UNL d   1      24.582 -13.536  -4.084  0.00  0.00    -0.064 SA
ATOM     11  C   UNL d   1      26.137 -12.771  -4.177  0.00  0.00     0.101 A 
ATOM     12  C   UNL d   1      26.975 -13.345  -3.242  0.00  0.00     0.062 A 
ATOM     13  C   UNL d   1      26.376 -14.381  -2.448  0.00  0.00     0.033 A 
ATOM     14  C   UNL d   1      26.725 -16.981   0.341  0.00  0.00     0.212 C 
ATOM     15  O   UNL d   1      28.152 -16.876   0.429  0.00  0.00    -0.376 OA
ATOM     16  H   UNL d   1      23.312 -15.660  -2.448  0.00  0.00     0.168 HD
ENDROOT
BRANCH  11  17
ATOM     17  C   UNL d   1      26.572 -11.690  -5.095  0.00  0.00     0.261 C 
ATOM     18  O   UNL d   1      27.733 -11.640  -5.536  0.00  0.00    -0.267 OA
ATOM     19  N   UNL d   1      25.685 -10.726  -5.476  0.00  0.00    -0.352 N 
ATOM     20  H   UNL d   1      24.780 -10.743  -5.045  0.00  0.00     0.163 HD
BRANCH  19  21
ATOM     21  C   UNL d   1      26.054  -9.630  -6.384  0.00  0.00     0.161 C 
BRANCH  21  22
ATOM     22  C   UNL d   1      25.066  -8.482  -6.406  0.00  0.00    -0.041 C 
ATOM     23  C   UNL d   1      23.953  -8.449  -5.554  0.00  0.00     0.009 C 
ATOM     24  C   UNL d   1      23.206  -7.292  -5.390  0.00  0.00     0.001 C 
ATOM     25  C   UNL d   1      23.367  -6.241  -6.278  0.00  0.00     0.000 C 
ATOM     26  C   UNL d   1      24.370  -6.302  -7.242  0.00  0.00     0.001 C 
ATOM     27  C   UNL d   1      25.270  -7.376  -7.250  0.00  0.00     0.009 C 
ENDBRANCH  21  22
ENDBRANCH  19  21
ENDBRANCH  11  17
BRANCH  12  28
ATOM     28  N   UNL d   1      28.253 -12.928  -3.106  0.00  0.00    -0.397 N 
ATOM     29  H   UNL d   1      28.636 -12.195  -3.717  0.00  0.00     0.156 HD
ATOM     30  H   UNL d   1      28.990 -13.373  -2.577  0.00  0.00     0.156 HD
ENDBRANCH  12  28
BRANCH   7  31
ATOM     31  N   UNL d   1      23.908 -17.253  -0.569  0.00  0.00    -0.363 N 
ATOM     32  C   UNL d   1      24.284 -18.643  -0.164  0.00  0.00     0.150 C 
ATOM     33  C   UNL d   1      23.280 -19.692  -0.704  0.00  0.00     0.187 C 
ATOM     34  O   UNL d   1      21.938 -19.341  -0.343  0.00  0.00    -0.388 OA
ATOM     35  C   UNL d   1      21.588 -18.067  -0.895  0.00  0.00     0.187 C 
ATOM     36  C   UNL d   1      22.486 -16.954  -0.318  0.00  0.00     0.150 C 
ENDBRANCH   7  31
TORSDOF 5
ENDMDL
MODEL 4
REMARK VINA RESULT:    -7.456      2.334      4.682
REMARK INTER + INTRA:         -10.217
REMARK INTER:                  -8.947
REMARK INTRA:                  -1.270
REMARK CONF_INDEPENDENT:        1.492
REMARK UNBOUND:                -1.270
REMARK  5 active torsions:
REMARK  status: ('A' for Active; 'I' for Inactive)
REMARK    1  A    between atoms: C_7  and  N_8 
REMARK    2  A    between atoms: C_17  and  C_18 
REMARK       I    between atoms: C_18  and  N_20 
REMARK    3  A    between atoms: N_20  and  C_21 
REMARK    4  A    between atoms: C_21  and  C_22 
REMARK    5  A    between atoms: C_28  and  N_29 
ROOT
ATOM      1  C   UNL d   1      28.927 -14.141   8.441  0.00  0.00     0.046 C 
ATOM      2  C   UNL d   1      29.115 -12.989   7.448  0.00  0.00     0.058 C 
ATOM      3  C   UNL d   1      30.617 -12.821   7.170  0.00  0.00     0.046 C 
ATOM      4  C   UNL d   1      28.392 -13.374   6.179  0.00  0.00     0.077 C 
ATOM      5  C   UNL d   1      28.260 -12.255   5.187  0.00  0.00    -0.028 A 
ATOM      6  C   UNL d   1      28.416 -10.914   5.615  0.00  0.00     0.017 A 
ATOM      7  C   UNL d   1      28.323  -9.862   4.683  0.00  0.00     0.113 A 
ATOM      8  N   UNL d   1      28.033 -10.188   3.392  0.00  0.00    -0.336 N 
ATOM      9  C   UNL d   1      27.867 -11.495   2.973  0.00  0.00     0.089 A 
ATOM     10  S   UNL d   1      27.533 -12.041   1.363  0.00  0.00    -0.064 SA
ATOM     11  C   UNL d   1      27.515 -13.715   1.819  0.00  0.00     0.101 A 
ATOM     12  C   UNL d   1      27.757 -13.813   3.175  0.00  0.00     0.062 A 
ATOM     13  C   UNL d   1      27.966 -12.559   3.844  0.00  0.00     0.033 A 
ATOM     14  C   UNL d   1      28.700 -10.665   7.089  0.00  0.00     0.212 C 
ATOM     15  O   UNL d   1      28.497 -11.800   7.942  0.00  0.00    -0.376 OA
ATOM     16  H   UNL d   1      27.977  -9.437   2.713  0.00  0.00     0.168 HD
ENDROOT
BRANCH  11  17
ATOM     17  C   UNL d   1      27.270 -14.897   0.955  0.00  0.00     0.261 C 
ATOM     18  O   UNL d   1      27.406 -16.055   1.385  0.00  0.00    -0.267 OA
ATOM     19  N   UNL d   1      26.879 -14.720  -0.339  0.00  0.00    -0.352 N 
ATOM     20  H   UNL d   1      26.854 -13.780  -0.685  0.00  0.00     0.163 HD
BRANCH  19  21
ATOM     21  C   UNL d   1      26.619 -15.850  -1.244  0.00  0.00     0.161 C 
BRANCH  21  22
ATOM     22  C   UNL d   1      25.351 -16.618  -0.929  0.00  0.00    -0.041 C 
ATOM     23  C   UNL d   1      25.384 -17.865  -0.289  0.00  0.00     0.009 C 
ATOM     24  C   UNL d   1      24.232 -18.438   0.230  0.00  0.00     0.001 C 
ATOM     25  C   UNL d   1      22.993 -17.931  -0.129  0.00  0.00     0.000 C 
ATOM     26  C   UNL d   1      22.920 -16.772  -0.895  0.00  0.00     0.001 C 
ATOM     27  C   UNL d   1      24.089 -16.070  -1.220  0.00  0.00     0.009 C 
ENDBRANCH  21  22
ENDBRANCH  19  21
ENDBRANCH  11  17
BRANCH  12  28
ATOM     28  N   UNL d   1      27.798 -15.016   3.788  0.00  0.00    -0.397 N 
ATOM     29  H   UNL d   1      28.267 -15.817   3.347  0.00  0.00     0.156 HD
ATOM     30  H   UNL d   1      27.257 -15.316   4.587  0.00  0.00     0.156 HD
ENDBRANCH  12  28
BRANCH   7  31
ATOM     31  N   UNL d   1      28.475  -8.533   5.029  0.00  0.00    -0.363 N 
ATOM     32  C   UNL d   1      29.586  -7.959   5.848  0.00  0.00     0.150 C 
ATOM     33  C   UNL d   1      29.055  -7.067   6.996  0.00  0.00     0.187 C 
ATOM     34  O   UNL d   1      28.153  -6.073   6.491  0.00  0.00    -0.388 OA
ATOM     35  C   UNL d   1      27.030  -6.694   5.855  0.00  0.00     0.187 C 
ATOM     36  C   UNL d   1      27.480  -7.520   4.633  0.00  0.00     0.150 C 
ENDBRANCH   7  31
TORSDOF 5
ENDMDL
MODEL 5
REMARK VINA RESULT:    -7.356      7.605     10.124
REMARK INTER + INTRA:          -9.904
REMARK INTER:                  -8.847
REMARK INTRA:                  -1.057
REMARK CONF_INDEPENDENT:        1.492
REMARK UNBOUND:                -1.057
REMARK  5 active torsions:
REMARK  status: ('A' for Active; 'I' for Inactive)
REMARK    1  A    between atoms: C_7  and  N_8 
REMARK    2  A    between atoms: C_17  and  C_18 
REMARK       I    between atoms: C_18  and  N_20 
REMARK    3  A    between atoms: N_20  and  C_21 
REMARK    4  A    between atoms: C_21  and  C_22 
REMARK    5  A    between atoms: C_28  and  N_29 
ROOT
ATOM      1  C   UNL d   1      31.368 -13.852  -0.911  0.00  0.00     0.046 C 
ATOM      2  C   UNL d   1      30.220 -13.466  -1.849  0.00  0.00     0.058 C 
ATOM      3  C   UNL d   1      30.568 -13.939  -3.270  0.00  0.00     0.046 C 
ATOM      4  C   UNL d   1      28.983 -14.177  -1.355  0.00  0.00     0.077 C 
ATOM      5  C   UNL d   1      27.711 -13.717  -2.006  0.00  0.00    -0.028 A 
ATOM      6  C   UNL d   1      27.674 -12.468  -2.672  0.00  0.00     0.017 A 
ATOM      7  C   UNL d   1      26.492 -12.044  -3.311  0.00  0.00     0.113 A 
ATOM      8  N   UNL d   1      25.401 -12.854  -3.215  0.00  0.00    -0.336 N 
ATOM      9  C   UNL d   1      25.429 -14.069  -2.556  0.00  0.00     0.089 A 
ATOM     10  S   UNL d   1      24.127 -15.200  -2.395  0.00  0.00    -0.064 SA
ATOM     11  C   UNL d   1      25.078 -16.328  -1.481  0.00  0.00     0.101 A 
ATOM     12  C   UNL d   1      26.349 -15.815  -1.318  0.00  0.00     0.062 A 
ATOM     13  C   UNL d   1      26.566 -14.534  -1.931  0.00  0.00     0.033 A 
ATOM     14  C   UNL d   1      28.943 -11.628  -2.682  0.00  0.00     0.212 C 
ATOM     15  O   UNL d   1      29.961 -12.063  -1.771  0.00  0.00    -0.376 OA
ATOM     16  H   UNL d   1      24.550 -12.562  -3.684  0.00  0.00     0.168 HD
ENDROOT
BRANCH  11  17
ATOM     17  C   UNL d   1      24.657 -17.635  -0.917  0.00  0.00     0.261 C 
ATOM     18  O   UNL d   1      25.442 -18.344  -0.264  0.00  0.00    -0.267 OA
ATOM     19  N   UNL d   1      23.380 -18.076  -1.109  0.00  0.00    -0.352 N 
ATOM     20  H   UNL d   1      22.791 -17.526  -1.705  0.00  0.00     0.163 HD
BRANCH  19  21
ATOM     21  C   UNL d   1      22.903 -19.360  -0.575  0.00  0.00     0.161 C 
BRANCH  21  22
ATOM     22  C   UNL d   1      21.433 -19.372  -0.207  0.00  0.00    -0.041 C 
ATOM     23  C   UNL d   1      20.430 -19.488  -1.179  0.00  0.00     0.009 C 
ATOM     24  C   UNL d   1      19.115 -19.762  -0.828  0.00  0.00     0.001 C 
ATOM     25  C   UNL d   1      18.719 -19.636   0.494  0.00  0.00     0.000 C 
ATOM     26  C   UNL d   1      19.670 -19.370   1.475  0.00  0.00     0.001 C 
ATOM     27  C   UNL d   1      21.030 -19.325   1.140  0.00  0.00     0.009 C 
ENDBRANCH  21  22
ENDBRANCH  19  21
ENDBRANCH  11  17
BRANCH  12  28
ATOM     28  N   UNL d   1      27.293 -16.501  -0.639  0.00  0.00    -0.397 N 
ATOM     29  H   UNL d   1      27.096 -16.890   0.291  0.00  0.00     0.156 HD
ATOM     30  H   UNL d   1      28.282 -16.548  -0.842  0.00  0.00     0.156 HD
ENDBRANCH  12  28
BRANCH   7  31
ATOM     31  N   UNL d   1      26.389 -10.844  -3.986  0.00  0.00    -0.363 N 
ATOM     32  C   UNL d   1      25.995  -9.530  -3.390  0.00  0.00     0.150 C 
ATOM     33  C   UNL d   1      24.882  -8.835  -4.212  0.00  0.00     0.187 C 
ATOM     34  O   UNL d   1      25.255  -8.740  -5.593  0.00  0.00    -0.388 OA
ATOM     35  C   UNL d   1      25.466 -10.045  -6.145  0.00  0.00     0.187 C 
ATOM     36  C   UNL d   1      26.637 -10.757  -5.437  0.00  0.00     0.150 C 
ENDBRANCH   7  31
TORSDOF 5
ENDMDL
MODEL 6
REMARK VINA RESULT:    -7.238      9.160     12.754
REMARK INTER + INTRA:          -9.838
REMARK INTER:                  -8.729
REMARK INTRA:                  -1.109
REMARK CONF_INDEPENDENT:        1.492
REMARK UNBOUND:                -1.109
REMARK  5 active torsions:
REMARK  status: ('A' for Active; 'I' for Inactive)
REMARK    1  A    between atoms: C_7  and  N_8 
REMARK    2  A    between atoms: C_17  and  C_18 
REMARK       I    between atoms: C_18  and  N_20 
REMARK    3  A    between atoms: N_20  and  C_21 
REMARK    4  A    between atoms: C_21  and  C_22 
REMARK    5  A    between atoms: C_28  and  N_29 
ROOT
ATOM      1  C   UNL d   1      28.797 -11.665 -10.239  0.00  0.00     0.046 C 
ATOM      2  C   UNL d   1      27.688 -11.051  -9.377  0.00  0.00     0.058 C 
ATOM      3  C   UNL d   1      26.331 -11.360 -10.030  0.00  0.00     0.046 C 
ATOM      4  C   UNL d   1      27.769 -11.702  -8.017  0.00  0.00     0.077 C 
ATOM      5  C   UNL d   1      26.919 -11.041  -6.971  0.00  0.00    -0.028 A 
ATOM      6  C   UNL d   1      26.462  -9.717  -7.170  0.00  0.00     0.017 A 
ATOM      7  C   UNL d   1      25.639  -9.102  -6.205  0.00  0.00     0.113 A 
ATOM      8  N   UNL d   1      25.356  -9.812  -5.077  0.00  0.00    -0.336 N 
ATOM      9  C   UNL d   1      25.811 -11.101  -4.873  0.00  0.00     0.089 A 
ATOM     10  S   UNL d   1      25.492 -12.116  -3.506  0.00  0.00    -0.064 SA
ATOM     11  C   UNL d   1      26.418 -13.440  -4.138  0.00  0.00     0.101 A 
ATOM     12  C   UNL d   1      26.946 -13.075  -5.360  0.00  0.00     0.062 A 
ATOM     13  C   UNL d   1      26.603 -11.750  -5.795  0.00  0.00     0.033 A 
ATOM     14  C   UNL d   1      26.874  -9.006  -8.451  0.00  0.00     0.212 C 
ATOM     15  O   UNL d   1      27.917  -9.654  -9.191  0.00  0.00    -0.376 OA
ATOM     16  H   UNL d   1      24.753  -9.380  -4.384  0.00  0.00     0.168 HD
ENDROOT
BRANCH  11  17
ATOM     17  C   UNL d   1      26.663 -14.766  -3.516  0.00  0.00     0.261 C 
ATOM     18  O   UNL d   1      27.482 -15.568  -3.998  0.00  0.00    -0.267 OA
ATOM     19  N   UNL d   1      25.985 -15.120  -2.387  0.00  0.00    -0.352 N 
ATOM     20  H   UNL d   1      25.275 -14.491  -2.064  0.00  0.00     0.163 HD
BRANCH  19  21
ATOM     21  C   UNL d   1      26.185 -16.417  -1.724  0.00  0.00     0.161 C 
BRANCH  21  22
ATOM     22  C   UNL d   1      24.917 -17.030  -1.164  0.00  0.00    -0.041 C 
ATOM     23  C   UNL d   1      24.924 -18.267  -0.505  0.00  0.00     0.009 C 
ATOM     24  C   UNL d   1      23.828 -18.698   0.229  0.00  0.00     0.001 C 
ATOM     25  C   UNL d   1      22.610 -18.052   0.085  0.00  0.00     0.000 C 
ATOM     26  C   UNL d   1      22.531 -16.898  -0.689  0.00  0.00     0.001 C 
ATOM     27  C   UNL d   1      23.693 -16.340  -1.238  0.00  0.00     0.009 C 
ENDBRANCH  21  22
ENDBRANCH  19  21
ENDBRANCH  11  17
BRANCH  12  28
ATOM     28  N   UNL d   1      27.712 -13.932  -6.070  0.00  0.00    -0.397 N 
ATOM     29  H   UNL d   1      28.261 -13.605  -6.876  0.00  0.00     0.156 HD
ATOM     30  H   UNL d   1      27.697 -14.942  -6.035  0.00  0.00     0.156 HD
ENDBRANCH  12  28
BRANCH   7  31
ATOM     31  N   UNL d   1      25.150  -7.818  -6.341  0.00  0.00    -0.363 N 
ATOM     32  C   UNL d   1      25.969  -6.573  -6.468  0.00  0.00     0.150 C 
ATOM     33  C   UNL d   1      25.506  -5.475  -5.479  0.00  0.00     0.187 C 
ATOM     34  O   UNL d   1      24.097  -5.240  -5.606  0.00  0.00    -0.388 OA
ATOM     35  C   UNL d   1      23.363  -6.436  -5.318  0.00  0.00     0.187 C 
ATOM     36  C   UNL d   1      23.701  -7.545  -6.334  0.00  0.00     0.150 C 
ENDBRANCH   7  31
TORSDOF 5
ENDMDL
MODEL 7
REMARK VINA RESULT:    -7.050      2.953     10.092
REMARK INTER + INTRA:          -9.845
REMARK INTER:                  -8.542
REMARK INTRA:                  -1.304
REMARK CONF_INDEPENDENT:        1.492
REMARK UNBOUND:                -1.304
REMARK  5 active torsions:
REMARK  status: ('A' for Active; 'I' for Inactive)
REMARK    1  A    between atoms: C_7  and  N_8 
REMARK    2  A    between atoms: C_17  and  C_18 
REMARK       I    between atoms: C_18  and  N_20 
REMARK    3  A    between atoms: N_20  and  C_21 
REMARK    4  A    between atoms: C_21  and  C_22 
REMARK    5  A    between atoms: C_28  and  N_29 
ROOT
ATOM      1  C   UNL d   1      27.315 -18.575   0.502  0.00  0.00     0.046 C 
ATOM      2  C   UNL d   1      26.894 -17.191  -0.004  0.00  0.00     0.058 C 
ATOM      3  C   UNL d   1      25.359 -17.131  -0.048  0.00  0.00     0.046 C 
ATOM      4  C   UNL d   1      27.426 -16.177   0.981  0.00  0.00     0.077 C 
ATOM      5  C   UNL d   1      27.322 -14.755   0.511  0.00  0.00    -0.028 A 
ATOM      6  C   UNL d   1      27.149 -14.481  -0.867  0.00  0.00     0.017 A 
ATOM      7  C   UNL d   1      27.021 -13.150  -1.310  0.00  0.00     0.113 A 
ATOM      8  N   UNL d   1      27.120 -12.164  -0.376  0.00  0.00    -0.336 N 
ATOM      9  C   UNL d   1      27.301 -12.426   0.969  0.00  0.00     0.089 A 
ATOM     10  S   UNL d   1      27.406 -11.269   2.254  0.00  0.00    -0.064 SA
ATOM     11  C   UNL d   1      27.606 -12.485   3.476  0.00  0.00     0.101 A 
ATOM     12  C   UNL d   1      27.594 -13.729   2.878  0.00  0.00     0.062 A 
ATOM     13  C   UNL d   1      27.414 -13.712   1.453  0.00  0.00     0.033 A 
ATOM     14  C   UNL d   1      27.092 -15.661  -1.827  0.00  0.00     0.212 C 
ATOM     15  O   UNL d   1      27.504 -16.914  -1.266  0.00  0.00    -0.376 OA
ATOM     16  H   UNL d   1      27.016 -11.203  -0.686  0.00  0.00     0.168 HD
ENDROOT
BRANCH  11  17
ATOM     17  C   UNL d   1      27.786 -12.294   4.937  0.00  0.00     0.261 C 
ATOM     18  O   UNL d   1      27.430 -13.160   5.754  0.00  0.00    -0.267 OA
ATOM     19  N   UNL d   1      28.361 -11.149   5.405  0.00  0.00    -0.352 N 
ATOM     20  H   UNL d   1      28.566 -10.433   4.733  0.00  0.00     0.163 HD
BRANCH  19  21
ATOM     21  C   UNL d   1      28.568 -10.901   6.839  0.00  0.00     0.161 C 
BRANCH  21  22
ATOM     22  C   UNL d   1      29.103 -12.094   7.605  0.00  0.00    -0.041 C 
ATOM     23  C   UNL d   1      28.529 -12.513   8.813  0.00  0.00     0.009 C 
ATOM     24  C   UNL d   1      28.843 -13.744   9.371  0.00  0.00     0.001 C 
ATOM     25  C   UNL d   1      29.938 -14.450   8.901  0.00  0.00     0.000 C 
ATOM     26  C   UNL d   1      30.630 -13.983   7.787  0.00  0.00     0.001 C 
ATOM     27  C   UNL d   1      30.164 -12.861   7.090  0.00  0.00     0.009 C 
ENDBRANCH  21  22
ENDBRANCH  19  21
ENDBRANCH  11  17
BRANCH  12  28
ATOM     28  N   UNL d   1      27.732 -14.854   3.612  0.00  0.00    -0.397 N 
ATOM     29  H   UNL d   1      27.254 -14.956   4.516  0.00  0.00     0.156 HD
ATOM     30  H   UNL d   1      28.412 -15.591   3.483  0.00  0.00     0.156 HD
ENDBRANCH  12  28
BRANCH   7  31
ATOM     31  N   UNL d   1      26.841 -12.812  -2.638  0.00  0.00    -0.363 N 
ATOM     32  C   UNL d   1      25.529 -12.570  -3.313  0.00  0.00     0.150 C 
ATOM     33  C   UNL d   1      25.404 -13.371  -4.633  0.00  0.00     0.187 C 
ATOM     34  O   UNL d   1      26.531 -13.126  -5.484  0.00  0.00    -0.388 OA
ATOM     35  C   UNL d   1      27.744 -13.526  -4.834  0.00  0.00     0.187 C 
ATOM     36  C   UNL d   1      27.985 -12.692  -3.560  0.00  0.00     0.150 C 
ENDBRANCH   7  31
TORSDOF 5
ENDMDL
MODEL 8
REMARK VINA RESULT:    -7.043      6.575     10.204
REMARK INTER + INTRA:          -9.689
REMARK INTER:                  -8.535
REMARK INTRA:                  -1.154
REMARK CONF_INDEPENDENT:        1.492
REMARK UNBOUND:                -1.154
REMARK  5 active torsions:
REMARK  status: ('A' for Active; 'I' for Inactive)
REMARK    1  A    between atoms: C_7  and  N_8 
REMARK    2  A    between atoms: C_17  and  C_18 
REMARK       I    between atoms: C_18  and  N_20 
REMARK    3  A    between atoms: N_20  and  C_21 
REMARK    4  A    between atoms: C_21  and  C_22 
REMARK    5  A    between atoms: C_28  and  N_29 
ROOT
ATOM      1  C   UNL d   1      30.079 -15.204   0.794  0.00  0.00     0.046 C 
ATOM      2  C   UNL d   1      28.568 -15.294   0.552  0.00  0.00     0.058 C 
ATOM      3  C   UNL d   1      27.853 -14.410   1.587  0.00  0.00     0.046 C 
ATOM      4  C   UNL d   1      28.309 -14.774  -0.842  0.00  0.00     0.077 C 
ATOM      5  C   UNL d   1      26.914 -15.021  -1.338  0.00  0.00    -0.028 A 
ATOM      6  C   UNL d   1      26.113 -16.010  -0.718  0.00  0.00     0.017 A 
ATOM      7  C   UNL d   1      24.792 -16.226  -1.159  0.00  0.00     0.113 A 
ATOM      8  N   UNL d   1      24.355 -15.489  -2.219  0.00  0.00    -0.336 N 
ATOM      9  C   UNL d   1      25.138 -14.532  -2.836  0.00  0.00     0.089 A 
ATOM     10  S   UNL d   1      24.689 -13.510  -4.160  0.00  0.00    -0.064 SA
ATOM     11  C   UNL d   1      26.227 -12.708  -4.203  0.00  0.00     0.101 A 
ATOM     12  C   UNL d   1      27.037 -13.239  -3.219  0.00  0.00     0.062 A 
ATOM     13  C   UNL d   1      26.429 -14.272  -2.428  0.00  0.00     0.033 A 
ATOM     14  C   UNL d   1      26.719 -16.800   0.433  0.00  0.00     0.212 C 
ATOM     15  O   UNL d   1      28.138 -16.655   0.582  0.00  0.00    -0.376 OA
ATOM     16  H   UNL d   1      23.401 -15.631  -2.534  0.00  0.00     0.168 HD
ENDROOT
BRANCH  11  17
ATOM     17  C   UNL d   1      26.676 -11.636  -5.126  0.00  0.00     0.261 C 
ATOM     18  O   UNL d   1      27.854 -11.240  -5.139  0.00  0.00    -0.267 OA
ATOM     19  N   UNL d   1      25.785 -11.068  -5.989  0.00  0.00    -0.352 N 
ATOM     20  H   UNL d   1      24.826 -11.347  -5.904  0.00  0.00     0.163 HD
BRANCH  19  21
ATOM     21  C   UNL d   1      26.167 -10.004  -6.928  0.00  0.00     0.161 C 
BRANCH  21  22
ATOM     22  C   UNL d   1      27.000 -10.481  -8.101  0.00  0.00    -0.041 C 
ATOM     23  C   UNL d   1      27.445  -9.600  -9.096  0.00  0.00     0.009 C 
ATOM     24  C   UNL d   1      28.414  -9.981 -10.014  0.00  0.00     0.001 C 
ATOM     25  C   UNL d   1      28.745 -11.320 -10.145  0.00  0.00     0.000 C 
ATOM     26  C   UNL d   1      28.203 -12.252  -9.264  0.00  0.00     0.001 C 
ATOM     27  C   UNL d   1      27.405 -11.825  -8.195  0.00  0.00     0.009 C 
ENDBRANCH  21  22
ENDBRANCH  19  21
ENDBRANCH  11  17
BRANCH  12  28
ATOM     28  N   UNL d   1      28.296 -12.786  -3.036  0.00  0.00    -0.397 N 
ATOM     29  H   UNL d   1      28.643 -12.556  -2.096  0.00  0.00     0.156 HD
ATOM     30  H   UNL d   1      28.938 -12.453  -3.743  0.00  0.00     0.156 HD
ENDBRANCH  12  28
BRANCH   7  31
ATOM     31  N   UNL d   1      23.953 -17.166  -0.593  0.00  0.00    -0.363 N 
ATOM     32  C   UNL d   1      24.315 -18.575  -0.250  0.00  0.00     0.150 C 
ATOM     33  C   UNL d   1      23.283 -19.587  -0.805  0.00  0.00     0.187 C 
ATOM     34  O   UNL d   1      21.954 -19.230  -0.400  0.00  0.00    -0.388 OA
ATOM     35  C   UNL d   1      21.613 -17.930  -0.895  0.00  0.00     0.187 C 
ATOM     36  C   UNL d   1      22.542 -16.855  -0.297  0.00  0.00     0.150 C 
ENDBRANCH   7  31
TORSDOF 5
ENDMDL
MODEL 9
REMARK VINA RESULT:    -7.003      2.535      9.563
REMARK INTER + INTRA:          -9.770
REMARK INTER:                  -8.494
REMARK INTRA:                  -1.276
REMARK CONF_INDEPENDENT:        1.492
REMARK UNBOUND:                -1.276
REMARK  5 active torsions:
REMARK  status: ('A' for Active; 'I' for Inactive)
REMARK    1  A    between atoms: C_7  and  N_8 
REMARK    2  A    between atoms: C_17  and  C_18 
REMARK       I    between atoms: C_18  and  N_20 
REMARK    3  A    between atoms: N_20  and  C_21 
REMARK    4  A    between atoms: C_21  and  C_22 
REMARK    5  A    between atoms: C_28  and  N_29 
ROOT
ATOM      1  C   UNL d   1      32.661 -16.101  -0.671  0.00  0.00     0.046 C 
ATOM      2  C   UNL d   1      31.143 -16.029  -0.479  0.00  0.00     0.058 C 
ATOM      3  C   UNL d   1      30.614 -17.447  -0.212  0.00  0.00     0.046 C 
ATOM      4  C   UNL d   1      30.887 -15.146   0.719  0.00  0.00     0.077 C 
ATOM      5  C   UNL d   1      29.447 -14.762   0.900  0.00  0.00    -0.028 A 
ATOM      6  C   UNL d   1      28.548 -14.872  -0.188  0.00  0.00     0.017 A 
ATOM      7  C   UNL d   1      27.189 -14.542  -0.015  0.00  0.00     0.113 A 
ATOM      8  N   UNL d   1      26.805 -14.076   1.206  0.00  0.00    -0.336 N 
ATOM      9  C   UNL d   1      27.682 -13.954   2.267  0.00  0.00     0.089 A 
ATOM     10  S   UNL d   1      27.313 -13.411   3.870  0.00  0.00    -0.064 SA
ATOM     11  C   UNL d   1      28.945 -13.608   4.428  0.00  0.00     0.101 A 
ATOM     12  C   UNL d   1      29.722 -14.073   3.386  0.00  0.00     0.062 A 
ATOM     13  C   UNL d   1      29.017 -14.282   2.152  0.00  0.00     0.033 A 
ATOM     14  C   UNL d   1      29.096 -15.369  -1.518  0.00  0.00     0.212 C 
ATOM     15  O   UNL d   1      30.527 -15.401  -1.605  0.00  0.00    -0.376 OA
ATOM     16  H   UNL d   1      25.826 -13.848   1.341  0.00  0.00     0.168 HD
ENDROOT
BRANCH  11  17
ATOM     17  C   UNL d   1      29.491 -13.326   5.779  0.00  0.00     0.261 C 
ATOM     18  O   UNL d   1      30.402 -14.015   6.268  0.00  0.00    -0.267 OA
ATOM     19  N   UNL d   1      28.994 -12.285   6.507  0.00  0.00    -0.352 N 
ATOM     20  H   UNL d   1      28.207 -11.795   6.125  0.00  0.00     0.163 HD
BRANCH  19  21
ATOM     21  C   UNL d   1      29.493 -11.954   7.849  0.00  0.00     0.161 C 
BRANCH  21  22
ATOM     22  C   UNL d   1      28.951 -12.841   8.951  0.00  0.00    -0.041 C 
ATOM     23  C   UNL d   1      29.175 -14.225   8.962  0.00  0.00     0.009 C 
ATOM     24  C   UNL d   1      28.911 -14.989  10.090  0.00  0.00     0.001 C 
ATOM     25  C   UNL d   1      28.153 -14.451  11.118  0.00  0.00     0.000 C 
ATOM     26  C   UNL d   1      27.780 -13.111  11.071  0.00  0.00     0.001 C 
ATOM     27  C   UNL d   1      28.250 -12.289  10.038  0.00  0.00     0.009 C 
ENDBRANCH  21  22
ENDBRANCH  19  21
ENDBRANCH  11  17
BRANCH  12  28
ATOM     28  N   UNL d   1      31.040 -14.313   3.556  0.00  0.00    -0.397 N 
ATOM     29  H   UNL d   1      31.524 -14.018   4.414  0.00  0.00     0.156 HD
ATOM     30  H   UNL d   1      31.707 -14.603   2.854  0.00  0.00     0.156 HD
ENDBRANCH  12  28
BRANCH   7  31
ATOM     31  N   UNL d   1      26.257 -14.636  -1.030  0.00  0.00    -0.363 N 
ATOM     32  C   UNL d   1      25.356 -15.801  -1.292  0.00  0.00     0.150 C 
ATOM     33  C   UNL d   1      25.403 -16.243  -2.776  0.00  0.00     0.187 C 
ATOM     34  O   UNL d   1      25.156 -15.130  -3.645  0.00  0.00    -0.388 OA
ATOM     35  C   UNL d   1      26.148 -14.115  -3.453  0.00  0.00     0.187 C 
ATOM     36  C   UNL d   1      26.087 -13.554  -2.018  0.00  0.00     0.150 C 
ENDBRANCH   7  31
TORSDOF 5
ENDMDL
