MODEL 1
REMARK VINA RESULT:   -10.119      0.000      0.000
REMARK INTER + INTRA:         -14.364
REMARK INTER:                 -12.207
REMARK INTRA:                  -2.157
REMARK CONF_INDEPENDENT:        2.088
REMARK UNBOUND:                -2.157
REMARK  7 active torsions:
REMARK  status: ('A' for Active; 'I' for Inactive)
REMARK    1  A    between atoms: C_2  and  C_3 
REMARK       I    between atoms: C_2  and  N_15 
REMARK    2  A    between atoms: C_3  and  N_4 
REMARK    3  A    between atoms: C_6  and  C_7 
REMARK    4  A    between atoms: N_15  and  C_16 
REMARK    5  A    between atoms: C_16  and  C_17 
REMARK    6  A    between atoms: C_17  and  C_18 
REMARK    7  A    between atoms: C_17  and  C_27 
ROOT
ATOM      1  C   UNL d   1      25.598 -15.376  -1.119  0.00  0.00     0.136 C 
ENDROOT
BRANCH   1   2
ATOM      2  N   UNL d   1      25.937 -16.269  -0.028  0.00  0.00    -0.359 N 
ATOM      3  C   UNL d   1      25.525 -17.575   0.118  0.00  0.00     0.237 C 
ATOM      4  O   UNL d   1      25.943 -18.193   1.096  0.00  0.00    -0.272 OA
ATOM      5  H   UNL d   1      26.517 -15.954   0.740  0.00  0.00     0.162 HD
BRANCH   3   6
ATOM      6  C   UNL d   1      24.620 -18.188  -0.961  0.00  0.00     0.251 C 
BRANCH   6   7
ATOM      7  N   UNL d   1      23.213 -18.221  -0.585  0.00  0.00    -0.247 N 
ATOM      8  N   UNL d   1      22.568 -19.408  -0.164  0.00  0.00    -0.199 NA
ATOM      9  C   UNL d   1      21.206 -19.168  -0.672  0.00  0.00     0.265 C 
ATOM     10  H   UNL d   1      22.492 -19.299   0.855  0.00  0.00     0.150 HD
ATOM     11  O   UNL d   1      21.032 -17.752  -0.738  0.00  0.00    -0.275 OA
ATOM     12  C   UNL d   1      22.295 -17.231  -0.838  0.00  0.00     0.379 C 
ATOM     13  O   UNL d   1      22.539 -16.060  -1.118  0.00  0.00    -0.237 OA
BRANCH   9  14
ATOM     14  C   UNL d   1      20.118 -19.774   0.183  0.00  0.00     0.027 A 
ATOM     15  C   UNL d   1      18.969 -20.445  -0.199  0.00  0.00     0.019 A 
ATOM     16  C   UNL d   1      18.160 -20.847   0.907  0.00  0.00     0.008 A 
ATOM     17  C   UNL d   1      18.719 -20.493   2.114  0.00  0.00     0.050 A 
ATOM     18  S   UNL d   1      20.211 -19.681   1.905  0.00  0.00    -0.102 SA
ENDBRANCH   9  14
ENDBRANCH   6   7
ENDBRANCH   3   6
ENDBRANCH   1   2
BRANCH   1  19
ATOM     19  C   UNL d   1      26.534 -15.477  -2.356  0.00  0.00     0.069 C 
BRANCH  19  20
ATOM     20  C   UNL d   1      26.329 -14.284  -3.277  0.00  0.00    -0.040 A 
ATOM     21  C   UNL d   1      27.097 -13.959  -4.325  0.00  0.00    -0.005 A 
ATOM     22  C   UNL d   1      28.284 -14.511  -4.876  0.00  0.00     0.014 A 
ATOM     23  C   UNL d   1      26.439 -12.812  -4.967  0.00  0.00     0.038 A 
ATOM     24  C   UNL d   1      28.780 -14.037  -6.019  0.00  0.00     0.001 A 
ATOM     25  C   UNL d   1      28.155 -12.915  -6.680  0.00  0.00     0.002 A 
ATOM     26  C   UNL d   1      27.052 -12.296  -6.211  0.00  0.00     0.030 A 
ATOM     27  N   UNL d   1      25.393 -12.446  -4.326  0.00  0.00    -0.385 N 
ATOM     28  C   UNL d   1      25.174 -13.326  -3.149  0.00  0.00     0.155 A 
ATOM     29  H   UNL d   1      24.802 -11.666  -4.613  0.00  0.00     0.160 HD
ENDBRANCH  19  20
BRANCH  19  30
ATOM     30  C   UNL d   1      28.019 -15.565  -1.966  0.00  0.00    -0.026 C 
ATOM     31  C   UNL d   1      28.790 -16.689  -2.333  0.00  0.00     0.009 C 
ATOM     32  C   UNL d   1      29.979 -17.010  -1.686  0.00  0.00     0.001 C 
ATOM     33  C   UNL d   1      30.558 -16.082  -0.842  0.00  0.00     0.002 C 
ATOM     34  C   UNL d   1      29.922 -14.860  -0.625  0.00  0.00     0.024 C 
ATOM     35  C   UNL d   1      28.628 -14.636  -1.109  0.00  0.00     0.041 C 
ATOM     36 CL   UNL d   1      27.810 -13.213  -0.572  0.00  0.00    -0.084 Cl
ENDBRANCH  19  30
ENDBRANCH   1  19
TORSDOF 7
ENDMDL
MODEL 2
REMARK VINA RESULT:    -9.837      1.490      3.172
REMARK INTER + INTRA:         -13.958
REMARK INTER:                 -11.925
REMARK INTRA:                  -2.033
REMARK CONF_INDEPENDENT:        2.088
REMARK UNBOUND:                -2.033
REMARK  7 active torsions:
REMARK  status: ('A' for Active; 'I' for Inactive)
REMARK    1  A    between atoms: C_2  and  C_3 
REMARK       I    between atoms: C_2  and  N_15 
REMARK    2  A    between atoms: C_3  and  N_4 
REMARK    3  A    between atoms: C_6  and  C_7 
REMARK    4  A    between atoms: N_15  and  C_16 
REMARK    5  A    between atoms: C_16  and  C_17 
REMARK    6  A    between atoms: C_17  and  C_18 
REMARK    7  A    between atoms: C_17  and  C_27 
ROOT
ATOM      1  C   UNL d   1      25.671 -15.532  -0.844  0.00  0.00     0.136 C 
ENDROOT
BRANCH   1   2
ATOM      2  N   UNL d   1      25.997 -16.525   0.161  0.00  0.00    -0.359 N 
ATOM      3  C   UNL d   1      25.545 -17.826   0.202  0.00  0.00     0.237 C 
ATOM      4  O   UNL d   1      25.958 -18.539   1.115  0.00  0.00    -0.272 OA
ATOM      5  H   UNL d   1      26.600 -16.296   0.941  0.00  0.00     0.162 HD
BRANCH   3   6
ATOM      6  C   UNL d   1      24.604 -18.314  -0.909  0.00  0.00     0.251 C 
BRANCH   6   7
ATOM      7  N   UNL d   1      23.202 -18.340  -0.510  0.00  0.00    -0.247 N 
ATOM      8  N   UNL d   1      22.542 -19.532  -0.133  0.00  0.00    -0.199 NA
ATOM      9  C   UNL d   1      21.176 -19.244  -0.605  0.00  0.00     0.265 C 
ATOM     10  H   UNL d   1      22.485 -19.470   0.891  0.00  0.00     0.150 HD
ATOM     11  O   UNL d   1      21.029 -17.823  -0.602  0.00  0.00    -0.275 OA
ATOM     12  C   UNL d   1      22.300 -17.322  -0.699  0.00  0.00     0.379 C 
ATOM     13  O   UNL d   1      22.562 -16.143  -0.927  0.00  0.00    -0.237 OA
BRANCH   9  14
ATOM     14  C   UNL d   1      20.091 -19.868   0.240  0.00  0.00     0.027 A 
ATOM     15  C   UNL d   1      18.917 -20.489  -0.152  0.00  0.00     0.019 A 
ATOM     16  C   UNL d   1      18.122 -20.931   0.948  0.00  0.00     0.008 A 
ATOM     17  C   UNL d   1      18.715 -20.659   2.160  0.00  0.00     0.050 A 
ATOM     18  S   UNL d   1      20.223 -19.874   1.962  0.00  0.00    -0.102 SA
ENDBRANCH   9  14
ENDBRANCH   6   7
ENDBRANCH   3   6
ENDBRANCH   1   2
BRANCH   1  19
ATOM     19  C   UNL d   1      26.836 -14.570  -1.210  0.00  0.00     0.069 C 
BRANCH  19  20
ATOM     20  C   UNL d   1      28.039 -15.357  -1.708  0.00  0.00    -0.040 A 
ATOM     21  C   UNL d   1      28.367 -15.563  -2.990  0.00  0.00    -0.005 A 
ATOM     22  C   UNL d   1      27.758 -15.214  -4.224  0.00  0.00     0.014 A 
ATOM     23  C   UNL d   1      29.658 -16.266  -2.967  0.00  0.00     0.038 A 
ATOM     24  C   UNL d   1      28.380 -15.459  -5.377  0.00  0.00     0.001 A 
ATOM     25  C   UNL d   1      29.653 -16.142  -5.391  0.00  0.00     0.002 A 
ATOM     26  C   UNL d   1      30.289 -16.554  -4.274  0.00  0.00     0.030 A 
ATOM     27  N   UNL d   1      30.045 -16.508  -1.771  0.00  0.00    -0.385 N 
ATOM     28  C   UNL d   1      29.065 -15.971  -0.792  0.00  0.00     0.155 A 
ATOM     29  H   UNL d   1      30.916 -16.990  -1.549  0.00  0.00     0.160 HD
ENDBRANCH  19  20
BRANCH  19  30
ATOM     30  C   UNL d   1      26.433 -13.535  -2.274  0.00  0.00    -0.026 C 
ATOM     31  C   UNL d   1      25.290 -13.741  -3.077  0.00  0.00     0.009 C 
ATOM     32  C   UNL d   1      25.110 -13.078  -4.286  0.00  0.00     0.001 C 
ATOM     33  C   UNL d   1      25.927 -12.008  -4.595  0.00  0.00     0.002 C 
ATOM     34  C   UNL d   1      26.939 -11.638  -3.710  0.00  0.00     0.024 C 
ATOM     35  C   UNL d   1      27.247 -12.442  -2.606  0.00  0.00     0.041 C 
ATOM     36 CL   UNL d   1      28.679 -12.065  -1.718  0.00  0.00    -0.084 Cl
ENDBRANCH  19  30
ENDBRANCH   1  19
TORSDOF 7
ENDMDL
MODEL 3
REMARK VINA RESULT:    -9.704      2.303      4.059
REMARK INTER + INTRA:         -14.062
REMARK INTER:                 -11.792
REMARK INTRA:                  -2.270
REMARK CONF_INDEPENDENT:        2.088
REMARK UNBOUND:                -2.270
REMARK  7 active torsions:
REMARK  status: ('A' for Active; 'I' for Inactive)
REMARK    1  A    between atoms: C_2  and  C_3 
REMARK       I    between atoms: C_2  and  N_15 
REMARK    2  A    between atoms: C_3  and  N_4 
REMARK    3  A    between atoms: C_6  and  C_7 
REMARK    4  A    between atoms: N_15  and  C_16 
REMARK    5  A    between atoms: C_16  and  C_17 
REMARK    6  A    between atoms: C_17  and  C_18 
REMARK    7  A    between atoms: C_17  and  C_27 
ROOT
ATOM      1  C   UNL d   1      28.424 -16.163  -0.786  0.00  0.00     0.136 C 
ENDROOT
BRANCH   1   2
ATOM      2  N   UNL d   1      28.070 -17.040   0.312  0.00  0.00    -0.359 N 
ATOM      3  C   UNL d   1      26.986 -17.888   0.365  0.00  0.00     0.237 C 
ATOM      4  O   UNL d   1      26.864 -18.587   1.370  0.00  0.00    -0.272 OA
ATOM      5  H   UNL d   1      28.627 -17.064   1.158  0.00  0.00     0.162 HD
BRANCH   3   6
ATOM      6  C   UNL d   1      26.035 -17.944  -0.839  0.00  0.00     0.251 C 
BRANCH   6   7
ATOM      7  N   UNL d   1      24.627 -17.880  -0.468  0.00  0.00    -0.247 N 
ATOM      8  N   UNL d   1      23.781 -19.012  -0.503  0.00  0.00    -0.199 NA
ATOM      9  C   UNL d   1      22.497 -18.378  -0.852  0.00  0.00     0.265 C 
ATOM     10  H   UNL d   1      23.683 -19.278   0.485  0.00  0.00     0.150 HD
ATOM     11  O   UNL d   1      22.561 -17.030  -0.382  0.00  0.00    -0.275 OA
ATOM     12  C   UNL d   1      23.895 -16.728  -0.311  0.00  0.00     0.379 C 
ATOM     13  O   UNL d   1      24.339 -15.595  -0.140  0.00  0.00    -0.237 OA
BRANCH   9  14
ATOM     14  C   UNL d   1      21.292 -19.066  -0.257  0.00  0.00     0.027 A 
ATOM     15  C   UNL d   1      20.976 -19.298   1.070  0.00  0.00     0.019 A 
ATOM     16  C   UNL d   1      19.752 -20.014   1.239  0.00  0.00     0.008 A 
ATOM     17  C   UNL d   1      19.146 -20.297   0.037  0.00  0.00     0.050 A 
ATOM     18  S   UNL d   1      20.055 -19.697  -1.284  0.00  0.00    -0.102 SA
ENDBRANCH   9  14
ENDBRANCH   6   7
ENDBRANCH   3   6
ENDBRANCH   1   2
BRANCH   1  19
ATOM     19  C   UNL d   1      27.238 -15.353  -1.381  0.00  0.00     0.069 C 
BRANCH  19  20
ATOM     20  C   UNL d   1      27.264 -13.920  -0.872  0.00  0.00    -0.040 A 
ATOM     21  C   UNL d   1      27.307 -13.542   0.412  0.00  0.00    -0.005 A 
ATOM     22  C   UNL d   1      27.291 -14.252   1.642  0.00  0.00     0.014 A 
ATOM     23  C   UNL d   1      27.437 -12.078   0.397  0.00  0.00     0.038 A 
ATOM     24  C   UNL d   1      27.461 -13.607   2.795  0.00  0.00     0.001 A 
ATOM     25  C   UNL d   1      27.599 -12.169   2.817  0.00  0.00     0.002 A 
ATOM     26  C   UNL d   1      27.582 -11.403   1.707  0.00  0.00     0.030 A 
ATOM     27  N   UNL d   1      27.420 -11.612  -0.795  0.00  0.00    -0.385 N 
ATOM     28  C   UNL d   1      27.299 -12.718  -1.780  0.00  0.00     0.155 A 
ATOM     29  H   UNL d   1      27.497 -10.619  -1.012  0.00  0.00     0.160 HD
ENDBRANCH  19  20
BRANCH  19  30
ATOM     30  C   UNL d   1      27.243 -15.343  -2.919  0.00  0.00    -0.026 C 
ATOM     31  C   UNL d   1      28.421 -15.653  -3.633  0.00  0.00     0.009 C 
ATOM     32  C   UNL d   1      28.598 -15.276  -4.960  0.00  0.00     0.001 C 
ATOM     33  C   UNL d   1      27.512 -14.819  -5.680  0.00  0.00     0.002 C 
ATOM     34  C   UNL d   1      26.271 -14.705  -5.055  0.00  0.00     0.024 C 
ATOM     35  C   UNL d   1      26.153 -14.881  -3.672  0.00  0.00     0.041 C 
ATOM     36 CL   UNL d   1      24.648 -14.461  -2.938  0.00  0.00    -0.084 Cl
ENDBRANCH  19  30
ENDBRANCH   1  19
TORSDOF 7
ENDMDL
MODEL 4
REMARK VINA RESULT:    -9.662      1.593      2.065
REMARK INTER + INTRA:         -14.022
REMARK INTER:                 -11.750
REMARK INTRA:                  -2.272
REMARK CONF_INDEPENDENT:        2.088
REMARK UNBOUND:                -2.272
REMARK  7 active torsions:
REMARK  status: ('A' for Active; 'I' for Inactive)
REMARK    1  A    between atoms: C_2  and  C_3 
REMARK       I    between atoms: C_2  and  N_15 
REMARK    2  A    between atoms: C_3  and  N_4 
REMARK    3  A    between atoms: C_6  and  C_7 
REMARK    4  A    between atoms: N_15  and  C_16 
REMARK    5  A    between atoms: C_16  and  C_17 
REMARK    6  A    between atoms: C_17  and  C_18 
REMARK    7  A    between atoms: C_17  and  C_27 
ROOT
ATOM      1  C   UNL d   1      25.889 -15.394  -0.414  0.00  0.00     0.136 C 
ENDROOT
BRANCH   1   2
ATOM      2  N   UNL d   1      26.287 -16.512   0.418  0.00  0.00    -0.359 N 
ATOM      3  C   UNL d   1      25.902 -17.826   0.263  0.00  0.00     0.237 C 
ATOM      4  O   UNL d   1      26.371 -18.648   1.048  0.00  0.00    -0.272 OA
ATOM      5  H   UNL d   1      26.895 -16.375   1.217  0.00  0.00     0.162 HD
BRANCH   3   6
ATOM      6  C   UNL d   1      24.963 -18.186  -0.896  0.00  0.00     0.251 C 
BRANCH   6   7
ATOM      7  N   UNL d   1      23.553 -18.159  -0.529  0.00  0.00    -0.247 N 
ATOM      8  N   UNL d   1      22.846 -19.323  -0.148  0.00  0.00    -0.199 NA
ATOM      9  C   UNL d   1      21.501 -18.998  -0.655  0.00  0.00     0.265 C 
ATOM     10  H   UNL d   1      22.768 -19.242   0.874  0.00  0.00     0.150 HD
ATOM     11  O   UNL d   1      21.400 -17.574  -0.677  0.00  0.00    -0.275 OA
ATOM     12  C   UNL d   1      22.688 -17.116  -0.755  0.00  0.00     0.379 C 
ATOM     13  O   UNL d   1      22.994 -15.950  -0.996  0.00  0.00    -0.237 OA
BRANCH   9  14
ATOM     14  C   UNL d   1      20.377 -19.573   0.176  0.00  0.00     0.027 A 
ATOM     15  C   UNL d   1      19.285 -20.325  -0.220  0.00  0.00     0.019 A 
ATOM     16  C   UNL d   1      18.414 -20.663   0.860  0.00  0.00     0.008 A 
ATOM     17  C   UNL d   1      18.872 -20.181   2.065  0.00  0.00     0.050 A 
ATOM     18  S   UNL d   1      20.344 -19.326   1.885  0.00  0.00    -0.102 SA
ENDBRANCH   9  14
ENDBRANCH   6   7
ENDBRANCH   3   6
ENDBRANCH   1   2
BRANCH   1  19
ATOM     19  C   UNL d   1      26.480 -15.411  -1.852  0.00  0.00     0.069 C 
BRANCH  19  20
ATOM     20  C   UNL d   1      26.041 -14.175  -2.622  0.00  0.00    -0.040 A 
ATOM     21  C   UNL d   1      26.464 -12.923  -2.407  0.00  0.00    -0.005 A 
ATOM     22  C   UNL d   1      27.339 -12.336  -1.453  0.00  0.00     0.014 A 
ATOM     23  C   UNL d   1      25.857 -12.105  -3.466  0.00  0.00     0.038 A 
ATOM     24  C   UNL d   1      27.672 -11.050  -1.547  0.00  0.00     0.001 A 
ATOM     25  C   UNL d   1      27.100 -10.217  -2.580  0.00  0.00     0.002 A 
ATOM     26  C   UNL d   1      26.227 -10.671  -3.503  0.00  0.00     0.030 A 
ATOM     27  N   UNL d   1      25.092 -12.798  -4.222  0.00  0.00    -0.385 N 
ATOM     28  C   UNL d   1      25.090 -14.220  -3.790  0.00  0.00     0.155 A 
ATOM     29  H   UNL d   1      24.579 -12.409  -5.012  0.00  0.00     0.160 HD
ENDBRANCH  19  20
BRANCH  19  30
ATOM     30  C   UNL d   1      28.016 -15.490  -1.857  0.00  0.00    -0.026 C 
ATOM     31  C   UNL d   1      28.741 -15.410  -0.649  0.00  0.00     0.009 C 
ATOM     32  C   UNL d   1      30.090 -15.073  -0.620  0.00  0.00     0.001 C 
ATOM     33  C   UNL d   1      30.807 -15.068  -1.800  0.00  0.00     0.002 C 
ATOM     34  C   UNL d   1      30.159 -15.360  -3.000  0.00  0.00     0.024 C 
ATOM     35  C   UNL d   1      28.766 -15.484  -3.043  0.00  0.00     0.041 C 
ATOM     36 CL   UNL d   1      28.019 -15.575  -4.597  0.00  0.00    -0.084 Cl
ENDBRANCH  19  30
ENDBRANCH   1  19
TORSDOF 7
ENDMDL
MODEL 5
REMARK VINA RESULT:    -9.557      2.444      4.147
REMARK INTER + INTRA:         -13.561
REMARK INTER:                 -11.645
REMARK INTRA:                  -1.916
REMARK CONF_INDEPENDENT:        2.088
REMARK UNBOUND:                -1.916
REMARK  7 active torsions:
REMARK  status: ('A' for Active; 'I' for Inactive)
REMARK    1  A    between atoms: C_2  and  C_3 
REMARK       I    between atoms: C_2  and  N_15 
REMARK    2  A    between atoms: C_3  and  N_4 
REMARK    3  A    between atoms: C_6  and  C_7 
REMARK    4  A    between atoms: N_15  and  C_16 
REMARK    5  A    between atoms: C_16  and  C_17 
REMARK    6  A    between atoms: C_17  and  C_18 
REMARK    7  A    between atoms: C_17  and  C_27 
ROOT
ATOM      1  C   UNL d   1      27.952 -15.811  -2.735  0.00  0.00     0.136 C 
ENDROOT
BRANCH   1   2
ATOM      2  N   UNL d   1      27.325 -15.406  -1.492  0.00  0.00    -0.359 N 
ATOM      3  C   UNL d   1      26.077 -15.779  -1.045  0.00  0.00     0.237 C 
ATOM      4  O   UNL d   1      25.724 -15.364   0.057  0.00  0.00    -0.272 OA
ATOM      5  H   UNL d   1      27.796 -14.777  -0.854  0.00  0.00     0.162 HD
BRANCH   3   6
ATOM      6  C   UNL d   1      25.233 -16.719  -1.918  0.00  0.00     0.251 C 
BRANCH   6   7
ATOM      7  N   UNL d   1      24.378 -17.613  -1.147  0.00  0.00    -0.247 N 
ATOM      8  N   UNL d   1      22.970 -17.619  -1.281  0.00  0.00    -0.199 NA
ATOM      9  C   UNL d   1      22.571 -17.977   0.092  0.00  0.00     0.265 C 
ATOM     10  H   UNL d   1      22.778 -18.461  -1.839  0.00  0.00     0.150 HD
ATOM     11  O   UNL d   1      23.655 -18.718   0.656  0.00  0.00    -0.275 OA
ATOM     12  C   UNL d   1      24.766 -18.337  -0.047  0.00  0.00     0.379 C 
ATOM     13  O   UNL d   1      25.919 -18.609   0.282  0.00  0.00    -0.237 OA
BRANCH   9  14
ATOM     14  C   UNL d   1      21.303 -18.795   0.168  0.00  0.00     0.027 A 
ATOM     15  C   UNL d   1      20.671 -19.338   1.273  0.00  0.00     0.019 A 
ATOM     16  C   UNL d   1      19.498 -20.081   0.940  0.00  0.00     0.008 A 
ATOM     17  C   UNL d   1      19.245 -20.072  -0.413  0.00  0.00     0.050 A 
ATOM     18  S   UNL d   1      20.422 -19.170  -1.269  0.00  0.00    -0.102 SA
ENDBRANCH   9  14
ENDBRANCH   6   7
ENDBRANCH   3   6
ENDBRANCH   1   2
BRANCH   1  19
ATOM     19  C   UNL d   1      28.615 -14.655  -3.535  0.00  0.00     0.069 C 
BRANCH  19  20
ATOM     20  C   UNL d   1      29.209 -15.179  -4.834  0.00  0.00    -0.040 A 
ATOM     21  C   UNL d   1      29.854 -16.342  -4.990  0.00  0.00    -0.005 A 
ATOM     22  C   UNL d   1      30.230 -17.381  -4.096  0.00  0.00     0.014 A 
ATOM     23  C   UNL d   1      30.131 -16.459  -6.429  0.00  0.00     0.038 A 
ATOM     24  C   UNL d   1      30.780 -18.502  -4.559  0.00  0.00     0.001 A 
ATOM     25  C   UNL d   1      31.060 -18.654  -5.968  0.00  0.00     0.002 A 
ATOM     26  C   UNL d   1      30.781 -17.707  -6.889  0.00  0.00     0.030 A 
ATOM     27  N   UNL d   1      29.734 -15.428  -7.074  0.00  0.00    -0.385 N 
ATOM     28  C   UNL d   1      29.094 -14.455  -6.150  0.00  0.00     0.155 A 
ATOM     29  H   UNL d   1      29.839 -15.320  -8.083  0.00  0.00     0.160 HD
ENDBRANCH  19  20
BRANCH  19  30
ATOM     30  C   UNL d   1      27.629 -13.518  -3.854  0.00  0.00    -0.026 C 
ATOM     31  C   UNL d   1      27.890 -12.201  -3.417  0.00  0.00     0.009 C 
ATOM     32  C   UNL d   1      26.886 -11.245  -3.317  0.00  0.00     0.001 C 
ATOM     33  C   UNL d   1      25.656 -11.498  -3.895  0.00  0.00     0.002 C 
ATOM     34  C   UNL d   1      25.434 -12.719  -4.531  0.00  0.00     0.024 C 
ATOM     35  C   UNL d   1      26.375 -13.751  -4.438  0.00  0.00     0.041 C 
ATOM     36 CL   UNL d   1      25.912 -15.310  -5.018  0.00  0.00    -0.084 Cl
ENDBRANCH  19  30
ENDBRANCH   1  19
TORSDOF 7
ENDMDL
MODEL 6
REMARK VINA RESULT:    -9.247      1.485      4.055
REMARK INTER + INTRA:         -13.670
REMARK INTER:                 -11.336
REMARK INTRA:                  -2.334
REMARK CONF_INDEPENDENT:        2.088
REMARK UNBOUND:                -2.334
REMARK  7 active torsions:
REMARK  status: ('A' for Active; 'I' for Inactive)
REMARK    1  A    between atoms: C_2  and  C_3 
REMARK       I    between atoms: C_2  and  N_15 
REMARK    2  A    between atoms: C_3  and  N_4 
REMARK    3  A    between atoms: C_6  and  C_7 
REMARK    4  A    between atoms: N_15  and  C_16 
REMARK    5  A    between atoms: C_16  and  C_17 
REMARK    6  A    between atoms: C_17  and  C_18 
REMARK    7  A    between atoms: C_17  and  C_27 
ROOT
ATOM      1  C   UNL d   1      25.597 -15.385  -0.579  0.00  0.00     0.136 C 
ENDROOT
BRANCH   1   2
ATOM      2  N   UNL d   1      26.008 -16.469   0.292  0.00  0.00    -0.359 N 
ATOM      3  C   UNL d   1      25.630 -17.790   0.189  0.00  0.00     0.237 C 
ATOM      4  O   UNL d   1      26.109 -18.579   1.001  0.00  0.00    -0.272 OA
ATOM      5  H   UNL d   1      26.619 -16.298   1.081  0.00  0.00     0.162 HD
BRANCH   3   6
ATOM      6  C   UNL d   1      24.686 -18.199  -0.950  0.00  0.00     0.251 C 
BRANCH   6   7
ATOM      7  N   UNL d   1      23.283 -18.228  -0.557  0.00  0.00    -0.247 N 
ATOM      8  N   UNL d   1      22.635 -19.415  -0.144  0.00  0.00    -0.199 NA
ATOM      9  C   UNL d   1      21.268 -19.158  -0.632  0.00  0.00     0.265 C 
ATOM     10  H   UNL d   1      22.572 -19.321   0.877  0.00  0.00     0.150 HD
ATOM     11  O   UNL d   1      21.104 -17.740  -0.675  0.00  0.00    -0.275 OA
ATOM     12  C   UNL d   1      22.369 -17.227  -0.783  0.00  0.00     0.379 C 
ATOM     13  O   UNL d   1      22.619 -16.054  -1.049  0.00  0.00    -0.237 OA
BRANCH   9  14
ATOM     14  C   UNL d   1      20.186 -19.768   0.229  0.00  0.00     0.027 A 
ATOM     15  C   UNL d   1      19.060 -20.481  -0.145  0.00  0.00     0.019 A 
ATOM     16  C   UNL d   1      18.249 -20.872   0.962  0.00  0.00     0.008 A 
ATOM     17  C   UNL d   1      18.784 -20.469   2.165  0.00  0.00     0.050 A 
ATOM     18  S   UNL d   1      20.257 -19.623   1.949  0.00  0.00    -0.102 SA
ENDBRANCH   9  14
ENDBRANCH   6   7
ENDBRANCH   3   6
ENDBRANCH   1   2
BRANCH   1  19
ATOM     19  C   UNL d   1      26.767 -14.574  -1.203  0.00  0.00     0.069 C 
BRANCH  19  20
ATOM     20  C   UNL d   1      28.104 -15.197  -0.834  0.00  0.00    -0.040 A 
ATOM     21  C   UNL d   1      28.974 -14.717   0.063  0.00  0.00    -0.005 A 
ATOM     22  C   UNL d   1      28.999 -13.552   0.876  0.00  0.00     0.014 A 
ATOM     23  C   UNL d   1      30.048 -15.716   0.158  0.00  0.00     0.038 A 
ATOM     24  C   UNL d   1      29.962 -13.382   1.781  0.00  0.00     0.001 A 
ATOM     25  C   UNL d   1      31.029 -14.347   1.906  0.00  0.00     0.002 A 
ATOM     26  C   UNL d   1      31.117 -15.462   1.149  0.00  0.00     0.030 A 
ATOM     27  N   UNL d   1      29.865 -16.688  -0.654  0.00  0.00    -0.385 N 
ATOM     28  C   UNL d   1      28.601 -16.496  -1.413  0.00  0.00     0.155 A 
ATOM     29  H   UNL d   1      30.503 -17.479  -0.739  0.00  0.00     0.160 HD
ENDBRANCH  19  20
BRANCH  19  30
ATOM     30  C   UNL d   1      26.662 -14.472  -2.734  0.00  0.00    -0.026 C 
ATOM     31  C   UNL d   1      25.825 -15.350  -3.455  0.00  0.00     0.009 C 
ATOM     32  C   UNL d   1      25.991 -15.575  -4.817  0.00  0.00     0.001 C 
ATOM     33  C   UNL d   1      26.818 -14.738  -5.541  0.00  0.00     0.002 C 
ATOM     34  C   UNL d   1      27.500 -13.713  -4.888  0.00  0.00     0.024 C 
ATOM     35  C   UNL d   1      27.493 -13.631  -3.491  0.00  0.00     0.041 C 
ATOM     36 CL   UNL d   1      28.573 -12.505  -2.750  0.00  0.00    -0.084 Cl
ENDBRANCH  19  30
ENDBRANCH   1  19
TORSDOF 7
ENDMDL
MODEL 7
REMARK VINA RESULT:    -9.214      1.591      2.225
REMARK INTER + INTRA:         -13.384
REMARK INTER:                 -11.302
REMARK INTRA:                  -2.082
REMARK CONF_INDEPENDENT:        2.088
REMARK UNBOUND:                -2.082
REMARK  7 active torsions:
REMARK  status: ('A' for Active; 'I' for Inactive)
REMARK    1  A    between atoms: C_2  and  C_3 
REMARK       I    between atoms: C_2  and  N_15 
REMARK    2  A    between atoms: C_3  and  N_4 
REMARK    3  A    between atoms: C_6  and  C_7 
REMARK    4  A    between atoms: N_15  and  C_16 
REMARK    5  A    between atoms: C_16  and  C_17 
REMARK    6  A    between atoms: C_17  and  C_18 
REMARK    7  A    between atoms: C_17  and  C_27 
ROOT
ATOM      1  C   UNL d   1      25.831 -15.555  -1.097  0.00  0.00     0.136 C 
ENDROOT
BRANCH   1   2
ATOM      2  N   UNL d   1      26.049 -16.435   0.034  0.00  0.00    -0.359 N 
ATOM      3  C   UNL d   1      25.522 -17.696   0.203  0.00  0.00     0.237 C 
ATOM      4  O   UNL d   1      25.846 -18.313   1.216  0.00  0.00    -0.272 OA
ATOM      5  H   UNL d   1      26.623 -16.144   0.816  0.00  0.00     0.162 HD
BRANCH   3   6
ATOM      6  C   UNL d   1      24.612 -18.267  -0.894  0.00  0.00     0.251 C 
BRANCH   6   7
ATOM      7  N   UNL d   1      23.205 -18.307  -0.517  0.00  0.00    -0.247 N 
ATOM      8  N   UNL d   1      22.555 -19.505  -0.138  0.00  0.00    -0.199 NA
ATOM      9  C   UNL d   1      21.192 -19.239  -0.634  0.00  0.00     0.265 C 
ATOM     10  H   UNL d   1      22.481 -19.433   0.885  0.00  0.00     0.150 HD
ATOM     11  O   UNL d   1      21.027 -17.820  -0.646  0.00  0.00    -0.275 OA
ATOM     12  C   UNL d   1      22.291 -17.303  -0.730  0.00  0.00     0.379 C 
ATOM     13  O   UNL d   1      22.542 -16.124  -0.966  0.00  0.00    -0.237 OA
BRANCH   9  14
ATOM     14  C   UNL d   1      20.103 -19.870   0.201  0.00  0.00     0.027 A 
ATOM     15  C   UNL d   1      18.915 -20.456  -0.199  0.00  0.00     0.019 A 
ATOM     16  C   UNL d   1      18.120 -20.918   0.894  0.00  0.00     0.008 A 
ATOM     17  C   UNL d   1      18.728 -20.694   2.108  0.00  0.00     0.050 A 
ATOM     18  S   UNL d   1      20.249 -19.931   1.921  0.00  0.00    -0.102 SA
ENDBRANCH   9  14
ENDBRANCH   6   7
ENDBRANCH   3   6
ENDBRANCH   1   2
BRANCH   1  19
ATOM     19  C   UNL d   1      27.123 -14.927  -1.691  0.00  0.00     0.069 C 
BRANCH  19  20
ATOM     20  C   UNL d   1      27.057 -14.909  -3.210  0.00  0.00    -0.040 A 
ATOM     21  C   UNL d   1      28.073 -14.636  -4.039  0.00  0.00    -0.005 A 
ATOM     22  C   UNL d   1      29.425 -14.251  -3.834  0.00  0.00     0.014 A 
ATOM     23  C   UNL d   1      27.557 -14.859  -5.397  0.00  0.00     0.038 A 
ATOM     24  C   UNL d   1      30.261 -14.152  -4.867  0.00  0.00     0.001 A 
ATOM     25  C   UNL d   1      29.790 -14.371  -6.215  0.00  0.00     0.002 A 
ATOM     26  C   UNL d   1      28.515 -14.695  -6.514  0.00  0.00     0.030 A 
ATOM     27  N   UNL d   1      26.320 -15.187  -5.387  0.00  0.00    -0.385 N 
ATOM     28  C   UNL d   1      25.816 -15.259  -3.991  0.00  0.00     0.155 A 
ATOM     29  H   UNL d   1      25.783 -15.381  -6.231  0.00  0.00     0.160 HD
ENDBRANCH  19  20
BRANCH  19  30
ATOM     30  C   UNL d   1      27.373 -13.498  -1.179  0.00  0.00    -0.026 C 
ATOM     31  C   UNL d   1      26.947 -12.383  -1.932  0.00  0.00     0.009 C 
ATOM     32  C   UNL d   1      27.482 -11.115  -1.739  0.00  0.00     0.001 C 
ATOM     33  C   UNL d   1      28.258 -10.876  -0.621  0.00  0.00     0.002 C 
ATOM     34  C   UNL d   1      28.522 -11.917   0.268  0.00  0.00     0.024 C 
ATOM     35  C   UNL d   1      28.159 -13.231  -0.048  0.00  0.00     0.041 C 
ATOM     36 CL   UNL d   1      28.756 -14.492   0.969  0.00  0.00    -0.084 Cl
ENDBRANCH  19  30
ENDBRANCH   1  19
TORSDOF 7
ENDMDL
MODEL 8
REMARK VINA RESULT:    -9.158      1.729      4.004
REMARK INTER + INTRA:         -13.402
REMARK INTER:                 -11.246
REMARK INTRA:                  -2.156
REMARK CONF_INDEPENDENT:        2.088
REMARK UNBOUND:                -2.156
REMARK  7 active torsions:
REMARK  status: ('A' for Active; 'I' for Inactive)
REMARK    1  A    between atoms: C_2  and  C_3 
REMARK       I    between atoms: C_2  and  N_15 
REMARK    2  A    between atoms: C_3  and  N_4 
REMARK    3  A    between atoms: C_6  and  C_7 
REMARK    4  A    between atoms: N_15  and  C_16 
REMARK    5  A    between atoms: C_16  and  C_17 
REMARK    6  A    between atoms: C_17  and  C_18 
REMARK    7  A    between atoms: C_17  and  C_27 
ROOT
ATOM      1  C   UNL d   1      25.743 -15.357  -0.545  0.00  0.00     0.136 C 
ENDROOT
BRANCH   1   2
ATOM      2  N   UNL d   1      26.221 -16.425   0.311  0.00  0.00    -0.359 N 
ATOM      3  C   UNL d   1      25.893 -17.760   0.215  0.00  0.00     0.237 C 
ATOM      4  O   UNL d   1      26.425 -18.531   1.010  0.00  0.00    -0.272 OA
ATOM      5  H   UNL d   1      26.849 -16.232   1.082  0.00  0.00     0.162 HD
BRANCH   3   6
ATOM      6  C   UNL d   1      24.932 -18.204  -0.897  0.00  0.00     0.251 C 
BRANCH   6   7
ATOM      7  N   UNL d   1      23.531 -18.180  -0.496  0.00  0.00    -0.247 N 
ATOM      8  N   UNL d   1      22.823 -19.353  -0.145  0.00  0.00    -0.199 NA
ATOM      9  C   UNL d   1      21.469 -18.997  -0.607  0.00  0.00     0.265 C 
ATOM     10  H   UNL d   1      22.770 -19.312   0.881  0.00  0.00     0.150 HD
ATOM     11  O   UNL d   1      21.381 -17.572  -0.569  0.00  0.00    -0.275 OA
ATOM     12  C   UNL d   1      22.671 -17.122  -0.659  0.00  0.00     0.379 C 
ATOM     13  O   UNL d   1      22.982 -15.950  -0.861  0.00  0.00    -0.237 OA
BRANCH   9  14
ATOM     14  C   UNL d   1      20.361 -19.596   0.227  0.00  0.00     0.027 A 
ATOM     15  C   UNL d   1      20.308 -19.820   1.592  0.00  0.00     0.019 A 
ATOM     16  C   UNL d   1      19.092 -20.439   2.013  0.00  0.00     0.008 A 
ATOM     17  C   UNL d   1      18.230 -20.656   0.962  0.00  0.00     0.050 A 
ATOM     18  S   UNL d   1      18.892 -20.113  -0.520  0.00  0.00    -0.102 SA
ENDBRANCH   9  14
ENDBRANCH   6   7
ENDBRANCH   3   6
ENDBRANCH   1   2
BRANCH   1  19
ATOM     19  C   UNL d   1      26.858 -14.451  -1.139  0.00  0.00     0.069 C 
BRANCH  19  20
ATOM     20  C   UNL d   1      28.075 -15.282  -1.516  0.00  0.00    -0.040 A 
ATOM     21  C   UNL d   1      29.193 -15.414  -0.792  0.00  0.00    -0.005 A 
ATOM     22  C   UNL d   1      29.636 -14.849   0.435  0.00  0.00     0.014 A 
ATOM     23  C   UNL d   1      30.020 -16.399  -1.502  0.00  0.00     0.038 A 
ATOM     24  C   UNL d   1      30.777 -15.255   0.990  0.00  0.00     0.001 A 
ATOM     25  C   UNL d   1      31.612 -16.227   0.323  0.00  0.00     0.002 A 
ATOM     26  C   UNL d   1      31.299 -16.787  -0.865  0.00  0.00     0.030 A 
ATOM     27  N   UNL d   1      29.468 -16.786  -2.590  0.00  0.00    -0.385 N 
ATOM     28  C   UNL d   1      28.149 -16.125  -2.764  0.00  0.00     0.155 A 
ATOM     29  H   UNL d   1      29.888 -17.466  -3.223  0.00  0.00     0.160 HD
ENDBRANCH  19  20
BRANCH  19  30
ATOM     30  C   UNL d   1      26.382 -13.662  -2.371  0.00  0.00    -0.026 C 
ATOM     31  C   UNL d   1      25.289 -14.121  -3.136  0.00  0.00     0.009 C 
ATOM     32  C   UNL d   1      25.076 -13.699  -4.444  0.00  0.00     0.001 C 
ATOM     33  C   UNL d   1      25.789 -12.618  -4.926  0.00  0.00     0.002 C 
ATOM     34  C   UNL d   1      26.734 -11.998  -4.110  0.00  0.00     0.024 C 
ATOM     35  C   UNL d   1      27.091 -12.564  -2.880  0.00  0.00     0.041 C 
ATOM     36 CL   UNL d   1      28.452 -11.892  -2.056  0.00  0.00    -0.084 Cl
ENDBRANCH  19  30
ENDBRANCH   1  19
TORSDOF 7
ENDMDL
MODEL 9
REMARK VINA RESULT:    -7.783      3.954      8.063
REMARK INTER + INTRA:         -13.410
REMARK INTER:                  -9.871
REMARK INTRA:                  -3.539
REMARK CONF_INDEPENDENT:        2.088
REMARK UNBOUND:                -3.539
REMARK  7 active torsions:
REMARK  status: ('A' for Active; 'I' for Inactive)
REMARK    1  A    between atoms: C_2  and  C_3 
REMARK       I    between atoms: C_2  and  N_15 
REMARK    2  A    between atoms: C_3  and  N_4 
REMARK    3  A    between atoms: C_6  and  C_7 
REMARK    4  A    between atoms: N_15  and  C_16 
REMARK    5  A    between atoms: C_16  and  C_17 
REMARK    6  A    between atoms: C_17  and  C_18 
REMARK    7  A    between atoms: C_17  and  C_27 
ROOT
ATOM      1  C   UNL d   1      26.105 -13.978  -1.961  0.00  0.00     0.136 C 
ENDROOT
BRANCH   1   2
ATOM      2  N   UNL d   1      26.273 -12.547  -2.122  0.00  0.00    -0.359 N 
ATOM      3  C   UNL d   1      26.128 -11.833  -3.291  0.00  0.00     0.237 C 
ATOM      4  O   UNL d   1      26.275 -10.613  -3.229  0.00  0.00    -0.272 OA
ATOM      5  H   UNL d   1      26.537 -11.963  -1.337  0.00  0.00     0.162 HD
BRANCH   3   6
ATOM      6  C   UNL d   1      25.748 -12.587  -4.573  0.00  0.00     0.251 C 
BRANCH   6   7
ATOM      7  N   UNL d   1      26.708 -13.619  -4.943  0.00  0.00    -0.247 N 
ATOM      8  N   UNL d   1      27.947 -13.318  -5.555  0.00  0.00    -0.199 NA
ATOM      9  C   UNL d   1      28.127 -14.513  -6.398  0.00  0.00     0.265 C 
ATOM     10  H   UNL d   1      28.631 -13.427  -4.795  0.00  0.00     0.150 HD
ATOM     11  O   UNL d   1      27.407 -15.575  -5.770  0.00  0.00    -0.275 OA
ATOM     12  C   UNL d   1      26.448 -14.967  -5.006  0.00  0.00     0.379 C 
ATOM     13  O   UNL d   1      25.508 -15.556  -4.477  0.00  0.00    -0.237 OA
BRANCH   9  14
ATOM     14  C   UNL d   1      29.571 -14.920  -6.584  0.00  0.00     0.027 A 
ATOM     15  C   UNL d   1      30.106 -16.167  -6.854  0.00  0.00     0.019 A 
ATOM     16  C   UNL d   1      31.532 -16.161  -6.931  0.00  0.00     0.008 A 
ATOM     17  C   UNL d   1      32.056 -14.903  -6.740  0.00  0.00     0.050 A 
ATOM     18  S   UNL d   1      30.828 -13.742  -6.470  0.00  0.00    -0.102 SA
ENDBRANCH   9  14
ENDBRANCH   6   7
ENDBRANCH   3   6
ENDBRANCH   1   2
BRANCH   1  19
ATOM     19  C   UNL d   1      27.284 -14.694  -1.244  0.00  0.00     0.069 C 
BRANCH  19  20
ATOM     20  C   UNL d   1      26.800 -15.965  -0.564  0.00  0.00    -0.040 A 
ATOM     21  C   UNL d   1      25.564 -16.476  -0.639  0.00  0.00    -0.005 A 
ATOM     22  C   UNL d   1      24.364 -16.046  -1.266  0.00  0.00     0.014 A 
ATOM     23  C   UNL d   1      25.614 -17.759   0.077  0.00  0.00     0.038 A 
ATOM     24  C   UNL d   1      23.287 -16.829  -1.269  0.00  0.00     0.001 A 
ATOM     25  C   UNL d   1      23.302 -18.099  -0.580  0.00  0.00     0.002 A 
ATOM     26  C   UNL d   1      24.378 -18.574   0.081  0.00  0.00     0.030 A 
ATOM     27  N   UNL d   1      26.768 -17.974   0.586  0.00  0.00    -0.385 N 
ATOM     28  C   UNL d   1      27.693 -16.858   0.259  0.00  0.00     0.155 A 
ATOM     29  H   UNL d   1      27.000 -18.809   1.123  0.00  0.00     0.160 HD
ENDBRANCH  19  20
BRANCH  19  30
ATOM     30  C   UNL d   1      28.433 -15.042  -2.205  0.00  0.00    -0.026 C 
ATOM     31  C   UNL d   1      28.524 -16.330  -2.776  0.00  0.00     0.009 C 
ATOM     32  C   UNL d   1      29.714 -16.819  -3.304  0.00  0.00     0.001 C 
ATOM     33  C   UNL d   1      30.765 -15.948  -3.514  0.00  0.00     0.002 C 
ATOM     34  C   UNL d   1      30.629 -14.608  -3.157  0.00  0.00     0.024 C 
ATOM     35  C   UNL d   1      29.513 -14.175  -2.432  0.00  0.00     0.041 C 
ATOM     36 CL   UNL d   1      29.545 -12.570  -1.796  0.00  0.00    -0.084 Cl
ENDBRANCH  19  30
ENDBRANCH   1  19
TORSDOF 7
ENDMDL
