MODEL 1
REMARK VINA RESULT:    -8.243      0.000      0.000
REMARK INTER + INTRA:         -11.575
REMARK INTER:                 -10.033
REMARK INTRA:                  -1.542
REMARK CONF_INDEPENDENT:        1.790
REMARK UNBOUND:                -1.542
REMARK  6 active torsions:
REMARK  status: ('A' for Active; 'I' for Inactive)
REMARK    1  A    between atoms: C_2  and  C_10 
REMARK    2  A    between atoms: C_2  and  O_3 
REMARK    3  A    between atoms: O_3  and  C_4 
REMARK       I    between atoms: C_10  and  N_12 
REMARK    4  A    between atoms: N_12  and  N_13 
REMARK       I    between atoms: N_13  and  C_14 
REMARK    5  A    between atoms: C_14  and  C_16 
REMARK    6  A    between atoms: C_20  and  N_21 
ROOT
ATOM      1  C   UNL d   1      22.637 -16.826  -0.895  0.00  0.00     0.265 C 
ATOM      2  O   UNL d   1      21.855 -15.923  -1.200  0.00  0.00    -0.269 OA
ATOM      3  N   UNL d   1      23.981 -16.768  -1.284  0.00  0.00    -0.265 N 
ATOM      4  H   UNL d   1      24.673 -17.488  -1.082  0.00  0.00     0.190 HD
ENDROOT
BRANCH   3   5
ATOM      5  N   UNL d   1      24.423 -15.709  -2.120  0.00  0.00    -0.263 N 
ATOM      6  C   UNL d   1      25.723 -15.699  -2.617  0.00  0.00     0.270 C 
ATOM      7  O   UNL d   1      26.536 -16.600  -2.392  0.00  0.00    -0.266 OA
ATOM      8  H   UNL d   1      23.725 -15.002  -2.356  0.00  0.00     0.190 HD
BRANCH   6   9
ATOM      9  C   UNL d   1      26.125 -14.504  -3.423  0.00  0.00     0.035 A 
ATOM     10  C   UNL d   1      25.544 -13.248  -3.245  0.00  0.00     0.017 A 
ATOM     11  C   UNL d   1      25.903 -12.204  -4.098  0.00  0.00     0.003 A 
ATOM     12  C   UNL d   1      26.866 -12.404  -5.097  0.00  0.00     0.029 A 
ATOM     13  C   UNL d   1      27.451 -13.658  -5.337  0.00  0.00     0.030 A 
ATOM     14  C   UNL d   1      27.043 -14.688  -4.465  0.00  0.00     0.046 A 
BRANCH  13  15
ATOM     15  N   UNL d   1      28.358 -13.884  -6.360  0.00  0.00    -0.390 N 
ATOM     16  C   UNL d   1      28.506 -12.993  -7.512  0.00  0.00     0.149 C 
ATOM     17  C   UNL d   1      29.193 -15.085  -6.423  0.00  0.00     0.149 C 
ENDBRANCH  13  15
ENDBRANCH   6   9
ENDBRANCH   3   5
BRANCH   1  18
ATOM     18  C   UNL d   1      22.213 -18.112  -0.084  0.00  0.00     0.218 C 
ATOM     19  C   UNL d   1      23.432 -19.047  -0.148  0.00  0.00     0.050 C 
BRANCH  18  20
ATOM     20  O   UNL d   1      20.978 -18.655  -0.609  0.00  0.00    -0.337 OA
BRANCH  20  21
ATOM     21  C   UNL d   1      20.075 -19.322   0.178  0.00  0.00     0.070 C 
ATOM     22  C   UNL d   1      20.147 -19.458   1.559  0.00  0.00     0.037 C 
ATOM     23  C   UNL d   1      19.427 -20.450   2.228  0.00  0.00     0.003 C 
ATOM     24  C   UNL d   1      18.404 -21.112   1.571  0.00  0.00     0.000 C 
ATOM     25  C   UNL d   1      18.163 -20.829   0.228  0.00  0.00     0.003 C 
ATOM     26  C   UNL d   1      19.021 -19.968  -0.475  0.00  0.00     0.037 C 
ENDBRANCH  20  21
ENDBRANCH  18  20
ENDBRANCH   1  18
TORSDOF 6
ENDMDL
MODEL 2
REMARK VINA RESULT:    -8.068      1.571      2.539
REMARK INTER + INTRA:         -11.189
REMARK INTER:                  -9.858
REMARK INTRA:                  -1.331
REMARK CONF_INDEPENDENT:        1.790
REMARK UNBOUND:                -1.331
REMARK  6 active torsions:
REMARK  status: ('A' for Active; 'I' for Inactive)
REMARK    1  A    between atoms: C_2  and  C_10 
REMARK    2  A    between atoms: C_2  and  O_3 
REMARK    3  A    between atoms: O_3  and  C_4 
REMARK       I    between atoms: C_10  and  N_12 
REMARK    4  A    between atoms: N_12  and  N_13 
REMARK       I    between atoms: N_13  and  C_14 
REMARK    5  A    between atoms: C_14  and  C_16 
REMARK    6  A    between atoms: C_20  and  N_21 
ROOT
ATOM      1  C   UNL d   1      25.055 -17.075  -1.393  0.00  0.00     0.265 C 
ATOM      2  O   UNL d   1      26.204 -17.505  -1.275  0.00  0.00    -0.269 OA
ATOM      3  N   UNL d   1      24.760 -16.074  -2.326  0.00  0.00    -0.265 N 
ATOM      4  H   UNL d   1      23.838 -15.662  -2.461  0.00  0.00     0.190 HD
ENDROOT
BRANCH   3   5
ATOM      5  N   UNL d   1      25.812 -15.480  -3.072  0.00  0.00    -0.263 N 
ATOM      6  C   UNL d   1      25.532 -14.527  -4.048  0.00  0.00     0.270 C 
ATOM      7  O   UNL d   1      24.390 -14.129  -4.293  0.00  0.00    -0.266 OA
ATOM      8  H   UNL d   1      26.758 -15.763  -2.818  0.00  0.00     0.190 HD
BRANCH   6   9
ATOM      9  C   UNL d   1      26.696 -14.015  -4.839  0.00  0.00     0.035 A 
ATOM     10  C   UNL d   1      26.716 -12.742  -5.408  0.00  0.00     0.017 A 
ATOM     11  C   UNL d   1      27.795 -12.371  -6.210  0.00  0.00     0.003 A 
ATOM     12  C   UNL d   1      28.866 -13.253  -6.411  0.00  0.00     0.029 A 
ATOM     13  C   UNL d   1      28.873 -14.556  -5.889  0.00  0.00     0.030 A 
ATOM     14  C   UNL d   1      27.754 -14.895  -5.102  0.00  0.00     0.046 A 
BRANCH  13  15
ATOM     15  N   UNL d   1      29.896 -15.459  -6.130  0.00  0.00    -0.390 N 
ATOM     16  C   UNL d   1      30.801 -15.359  -7.277  0.00  0.00     0.149 C 
ATOM     17  C   UNL d   1      30.112 -16.648  -5.301  0.00  0.00     0.149 C 
ENDBRANCH  13  15
ENDBRANCH   6   9
ENDBRANCH   3   5
BRANCH   1  18
ATOM     18  C   UNL d   1      23.841 -17.573  -0.516  0.00  0.00     0.218 C 
ATOM     19  C   UNL d   1      24.474 -18.414   0.605  0.00  0.00     0.050 C 
BRANCH  18  20
ATOM     20  O   UNL d   1      22.869 -18.258  -1.342  0.00  0.00    -0.337 OA
BRANCH  20  21
ATOM     21  C   UNL d   1      21.746 -18.846  -0.821  0.00  0.00     0.070 C 
ATOM     22  C   UNL d   1      20.664 -19.321  -1.553  0.00  0.00     0.037 C 
ATOM     23  C   UNL d   1      19.424 -19.544  -0.952  0.00  0.00     0.003 C 
ATOM     24  C   UNL d   1      19.332 -19.589   0.429  0.00  0.00     0.000 C 
ATOM     25  C   UNL d   1      20.468 -19.332   1.195  0.00  0.00     0.003 C 
ATOM     26  C   UNL d   1      21.659 -18.923   0.572  0.00  0.00     0.037 C 
ENDBRANCH  20  21
ENDBRANCH  18  20
ENDBRANCH   1  18
TORSDOF 6
ENDMDL
MODEL 3
REMARK VINA RESULT:    -7.911      1.536      2.454
REMARK INTER + INTRA:         -11.177
REMARK INTER:                  -9.701
REMARK INTRA:                  -1.476
REMARK CONF_INDEPENDENT:        1.790
REMARK UNBOUND:                -1.476
REMARK  6 active torsions:
REMARK  status: ('A' for Active; 'I' for Inactive)
REMARK    1  A    between atoms: C_2  and  C_10 
REMARK    2  A    between atoms: C_2  and  O_3 
REMARK    3  A    between atoms: O_3  and  C_4 
REMARK       I    between atoms: C_10  and  N_12 
REMARK    4  A    between atoms: N_12  and  N_13 
REMARK       I    between atoms: N_13  and  C_14 
REMARK    5  A    between atoms: C_14  and  C_16 
REMARK    6  A    between atoms: C_20  and  N_21 
ROOT
ATOM      1  C   UNL d   1      22.802 -16.879  -0.852  0.00  0.00     0.265 C 
ATOM      2  O   UNL d   1      22.032 -15.917  -0.897  0.00  0.00    -0.269 OA
ATOM      3  N   UNL d   1      24.060 -16.815  -1.464  0.00  0.00    -0.265 N 
ATOM      4  H   UNL d   1      24.735 -17.578  -1.481  0.00  0.00     0.190 HD
ENDROOT
BRANCH   3   5
ATOM      5  N   UNL d   1      24.410 -15.669  -2.227  0.00  0.00    -0.263 N 
ATOM      6  C   UNL d   1      25.713 -15.501  -2.686  0.00  0.00     0.270 C 
ATOM      7  O   UNL d   1      26.608 -16.328  -2.492  0.00  0.00    -0.266 OA
ATOM      8  H   UNL d   1      23.650 -15.023  -2.441  0.00  0.00     0.190 HD
BRANCH   6   9
ATOM      9  C   UNL d   1      26.009 -14.225  -3.412  0.00  0.00     0.035 A 
ATOM     10  C   UNL d   1      26.267 -14.183  -4.782  0.00  0.00     0.017 A 
ATOM     11  C   UNL d   1      26.628 -12.971  -5.371  0.00  0.00     0.003 A 
ATOM     12  C   UNL d   1      26.691 -11.800  -4.602  0.00  0.00     0.029 A 
ATOM     13  C   UNL d   1      26.475 -11.800  -3.214  0.00  0.00     0.030 A 
ATOM     14  C   UNL d   1      26.134 -13.050  -2.659  0.00  0.00     0.046 A 
BRANCH  13  15
ATOM     15  N   UNL d   1      26.594 -10.663  -2.432  0.00  0.00    -0.390 N 
ATOM     16  C   UNL d   1      25.996  -9.376  -2.792  0.00  0.00     0.149 C 
ATOM     17  C   UNL d   1      27.405 -10.624  -1.213  0.00  0.00     0.149 C 
ENDBRANCH  13  15
ENDBRANCH   6   9
ENDBRANCH   3   5
BRANCH   1  18
ATOM     18  C   UNL d   1      22.453 -18.246  -0.146  0.00  0.00     0.218 C 
ATOM     19  C   UNL d   1      23.699 -19.126  -0.334  0.00  0.00     0.050 C 
BRANCH  18  20
ATOM     20  O   UNL d   1      21.219 -18.787  -0.676  0.00  0.00    -0.337 OA
BRANCH  20  21
ATOM     21  C   UNL d   1      20.266 -19.365   0.123  0.00  0.00     0.070 C 
ATOM     22  C   UNL d   1      20.272 -19.379   1.513  0.00  0.00     0.037 C 
ATOM     23  C   UNL d   1      19.501 -20.295   2.231  0.00  0.00     0.003 C 
ATOM     24  C   UNL d   1      18.493 -20.994   1.588  0.00  0.00     0.000 C 
ATOM     25  C   UNL d   1      18.321 -20.827   0.215  0.00  0.00     0.003 C 
ATOM     26  C   UNL d   1      19.228 -20.047  -0.520  0.00  0.00     0.037 C 
ENDBRANCH  20  21
ENDBRANCH  18  20
ENDBRANCH   1  18
TORSDOF 6
ENDMDL
MODEL 4
REMARK VINA RESULT:    -7.753      1.907      2.770
REMARK INTER + INTRA:         -10.953
REMARK INTER:                  -9.543
REMARK INTRA:                  -1.410
REMARK CONF_INDEPENDENT:        1.790
REMARK UNBOUND:                -1.410
REMARK  6 active torsions:
REMARK  status: ('A' for Active; 'I' for Inactive)
REMARK    1  A    between atoms: C_2  and  C_10 
REMARK    2  A    between atoms: C_2  and  O_3 
REMARK    3  A    between atoms: O_3  and  C_4 
REMARK       I    between atoms: C_10  and  N_12 
REMARK    4  A    between atoms: N_12  and  N_13 
REMARK       I    between atoms: N_13  and  C_14 
REMARK    5  A    between atoms: C_14  and  C_16 
REMARK    6  A    between atoms: C_20  and  N_21 
ROOT
ATOM      1  C   UNL d   1      24.627 -16.896  -1.430  0.00  0.00     0.265 C 
ATOM      2  O   UNL d   1      25.704 -17.450  -1.666  0.00  0.00    -0.269 OA
ATOM      3  N   UNL d   1      24.288 -15.695  -2.066  0.00  0.00    -0.265 N 
ATOM      4  H   UNL d   1      23.427 -15.178  -1.902  0.00  0.00     0.190 HD
ENDROOT
BRANCH   3   5
ATOM      5  N   UNL d   1      25.235 -15.060  -2.913  0.00  0.00    -0.263 N 
ATOM      6  C   UNL d   1      24.826 -14.082  -3.815  0.00  0.00     0.270 C 
ATOM      7  O   UNL d   1      23.658 -13.697  -3.908  0.00  0.00    -0.266 OA
ATOM      8  H   UNL d   1      26.209 -15.335  -2.783  0.00  0.00     0.190 HD
BRANCH   6   9
ATOM      9  C   UNL d   1      25.879 -13.525  -4.723  0.00  0.00     0.035 A 
ATOM     10  C   UNL d   1      26.999 -14.258  -5.113  0.00  0.00     0.017 A 
ATOM     11  C   UNL d   1      27.984 -13.641  -5.884  0.00  0.00     0.003 A 
ATOM     12  C   UNL d   1      27.831 -12.309  -6.295  0.00  0.00     0.029 A 
ATOM     13  C   UNL d   1      26.739 -11.521  -5.897  0.00  0.00     0.030 A 
ATOM     14  C   UNL d   1      25.780 -12.180  -5.102  0.00  0.00     0.046 A 
BRANCH  13  15
ATOM     15  N   UNL d   1      26.606 -10.186  -6.245  0.00  0.00    -0.390 N 
ATOM     16  C   UNL d   1      25.606  -9.298  -5.650  0.00  0.00     0.149 C 
ATOM     17  C   UNL d   1      27.402  -9.564  -7.305  0.00  0.00     0.149 C 
ENDBRANCH  13  15
ENDBRANCH   6   9
ENDBRANCH   3   5
BRANCH   1  18
ATOM     18  C   UNL d   1      23.566 -17.451  -0.403  0.00  0.00     0.218 C 
ATOM     19  C   UNL d   1      24.387 -18.200   0.659  0.00  0.00     0.050 C 
BRANCH  18  20
ATOM     20  O   UNL d   1      22.563 -18.238  -1.089  0.00  0.00    -0.337 OA
BRANCH  20  21
ATOM     21  C   UNL d   1      21.441 -18.711  -0.459  0.00  0.00     0.070 C 
ATOM     22  C   UNL d   1      21.314 -18.948   0.904  0.00  0.00     0.037 C 
ATOM     23  C   UNL d   1      20.305 -19.772   1.406  0.00  0.00     0.003 C 
ATOM     24  C   UNL d   1      19.238 -20.118   0.594  0.00  0.00     0.000 C 
ATOM     25  C   UNL d   1      19.233 -19.699  -0.736  0.00  0.00     0.003 C 
ATOM     26  C   UNL d   1      20.348 -19.033  -1.269  0.00  0.00     0.037 C 
ENDBRANCH  20  21
ENDBRANCH  18  20
ENDBRANCH   1  18
TORSDOF 6
ENDMDL
MODEL 5
REMARK VINA RESULT:    -7.371      4.466      5.837
REMARK INTER + INTRA:         -10.679
REMARK INTER:                  -9.161
REMARK INTRA:                  -1.518
REMARK CONF_INDEPENDENT:        1.790
REMARK UNBOUND:                -1.518
REMARK  6 active torsions:
REMARK  status: ('A' for Active; 'I' for Inactive)
REMARK    1  A    between atoms: C_2  and  C_10 
REMARK    2  A    between atoms: C_2  and  O_3 
REMARK    3  A    between atoms: O_3  and  C_4 
REMARK       I    between atoms: C_10  and  N_12 
REMARK    4  A    between atoms: N_12  and  N_13 
REMARK       I    between atoms: N_13  and  C_14 
REMARK    5  A    between atoms: C_14  and  C_16 
REMARK    6  A    between atoms: C_20  and  N_21 
ROOT
ATOM      1  C   UNL d   1      24.299 -17.690  -0.234  0.00  0.00     0.265 C 
ATOM      2  O   UNL d   1      24.523 -18.336   0.792  0.00  0.00    -0.269 OA
ATOM      3  N   UNL d   1      25.167 -16.668  -0.638  0.00  0.00    -0.265 N 
ATOM      4  H   UNL d   1      25.031 -16.086  -1.462  0.00  0.00     0.190 HD
ENDROOT
BRANCH   3   5
ATOM      5  N   UNL d   1      26.259 -16.308   0.196  0.00  0.00    -0.263 N 
ATOM      6  C   UNL d   1      26.792 -15.023   0.140  0.00  0.00     0.270 C 
ATOM      7  O   UNL d   1      26.341 -14.138  -0.592  0.00  0.00    -0.266 OA
ATOM      8  H   UNL d   1      26.583 -17.024   0.846  0.00  0.00     0.190 HD
BRANCH   6   9
ATOM      9  C   UNL d   1      27.992 -14.757   0.995  0.00  0.00     0.035 A 
ATOM     10  C   UNL d   1      29.297 -14.904   0.525  0.00  0.00     0.017 A 
ATOM     11  C   UNL d   1      30.363 -14.729   1.408  0.00  0.00     0.003 A 
ATOM     12  C   UNL d   1      30.127 -14.373   2.743  0.00  0.00     0.029 A 
ATOM     13  C   UNL d   1      28.831 -14.249   3.270  0.00  0.00     0.030 A 
ATOM     14  C   UNL d   1      27.785 -14.455   2.348  0.00  0.00     0.046 A 
BRANCH  13  15
ATOM     15  N   UNL d   1      28.584 -13.957   4.601  0.00  0.00    -0.390 N 
ATOM     16  C   UNL d   1      29.009 -14.821   5.705  0.00  0.00     0.149 C 
ATOM     17  C   UNL d   1      27.796 -12.796   5.022  0.00  0.00     0.149 C 
ENDBRANCH  13  15
ENDBRANCH   6   9
ENDBRANCH   3   5
BRANCH   1  18
ATOM     18  C   UNL d   1      23.040 -17.923  -1.156  0.00  0.00     0.218 C 
ATOM     19  C   UNL d   1      22.122 -16.718  -0.895  0.00  0.00     0.050 C 
BRANCH  18  20
ATOM     20  O   UNL d   1      22.457 -19.223  -0.896  0.00  0.00    -0.337 OA
BRANCH  20  21
ATOM     21  C   UNL d   1      21.246 -19.375  -0.272  0.00  0.00     0.070 C 
ATOM     22  C   UNL d   1      21.027 -19.324   1.100  0.00  0.00     0.037 C 
ATOM     23  C   UNL d   1      19.871 -19.860   1.669  0.00  0.00     0.003 C 
ATOM     24  C   UNL d   1      18.792 -20.172   0.859  0.00  0.00     0.000 C 
ATOM     25  C   UNL d   1      18.911 -20.019  -0.521  0.00  0.00     0.003 C 
ATOM     26  C   UNL d   1      20.145 -19.660  -1.085  0.00  0.00     0.037 C 
ENDBRANCH  20  21
ENDBRANCH  18  20
ENDBRANCH   1  18
TORSDOF 6
ENDMDL
MODEL 6
REMARK VINA RESULT:    -7.202      8.227     10.332
REMARK INTER + INTRA:         -10.613
REMARK INTER:                  -8.992
REMARK INTRA:                  -1.621
REMARK CONF_INDEPENDENT:        1.790
REMARK UNBOUND:                -1.621
REMARK  6 active torsions:
REMARK  status: ('A' for Active; 'I' for Inactive)
REMARK    1  A    between atoms: C_2  and  C_10 
REMARK    2  A    between atoms: C_2  and  O_3 
REMARK    3  A    between atoms: O_3  and  C_4 
REMARK       I    between atoms: C_10  and  N_12 
REMARK    4  A    between atoms: N_12  and  N_13 
REMARK       I    between atoms: N_13  and  C_14 
REMARK    5  A    between atoms: C_14  and  C_16 
REMARK    6  A    between atoms: C_20  and  N_21 
ROOT
ATOM      1  C   UNL d   1      27.495 -14.404   1.896  0.00  0.00     0.265 C 
ATOM      2  O   UNL d   1      26.740 -13.430   1.935  0.00  0.00    -0.269 OA
ATOM      3  N   UNL d   1      28.216 -14.794   3.032  0.00  0.00    -0.265 N 
ATOM      4  H   UNL d   1      28.869 -15.575   3.062  0.00  0.00     0.190 HD
ENDROOT
BRANCH   3   5
ATOM      5  N   UNL d   1      28.152 -14.002   4.208  0.00  0.00    -0.263 N 
ATOM      6  C   UNL d   1      28.984 -14.278   5.289  0.00  0.00     0.270 C 
ATOM      7  O   UNL d   1      29.825 -15.180   5.278  0.00  0.00    -0.266 OA
ATOM      8  H   UNL d   1      27.502 -13.216   4.185  0.00  0.00     0.190 HD
BRANCH   6   9
ATOM      9  C   UNL d   1      28.791 -13.442   6.516  0.00  0.00     0.035 A 
ATOM     10  C   UNL d   1      28.609 -12.060   6.462  0.00  0.00     0.017 A 
ATOM     11  C   UNL d   1      28.530 -11.336   7.652  0.00  0.00     0.003 A 
ATOM     12  C   UNL d   1      28.592 -11.994   8.888  0.00  0.00     0.029 A 
ATOM     13  C   UNL d   1      28.809 -13.378   8.992  0.00  0.00     0.030 A 
ATOM     14  C   UNL d   1      28.905 -14.065   7.765  0.00  0.00     0.046 A 
BRANCH  13  15
ATOM     15  N   UNL d   1      28.934 -14.032  10.207  0.00  0.00    -0.390 N 
ATOM     16  C   UNL d   1      29.785 -15.208  10.401  0.00  0.00     0.149 C 
ATOM     17  C   UNL d   1      28.157 -13.656  11.390  0.00  0.00     0.149 C 
ENDBRANCH  13  15
ENDBRANCH   6   9
ENDBRANCH   3   5
BRANCH   1  18
ATOM     18  C   UNL d   1      27.740 -15.268   0.599  0.00  0.00     0.218 C 
ATOM     19  C   UNL d   1      29.056 -14.740   0.006  0.00  0.00     0.050 C 
BRANCH  18  20
ATOM     20  O   UNL d   1      26.588 -15.204  -0.276  0.00  0.00    -0.337 OA
BRANCH  20  21
ATOM     21  C   UNL d   1      25.734 -16.262  -0.447  0.00  0.00     0.070 C 
ATOM     22  C   UNL d   1      24.534 -16.232  -1.148  0.00  0.00     0.037 C 
ATOM     23  C   UNL d   1      23.558 -17.212  -0.956  0.00  0.00     0.003 C 
ATOM     24  C   UNL d   1      23.888 -18.386  -0.300  0.00  0.00     0.000 C 
ATOM     25  C   UNL d   1      25.170 -18.534   0.226  0.00  0.00     0.003 C 
ATOM     26  C   UNL d   1      26.075 -17.461   0.187  0.00  0.00     0.037 C 
ENDBRANCH  20  21
ENDBRANCH  18  20
ENDBRANCH   1  18
TORSDOF 6
ENDMDL
MODEL 7
REMARK VINA RESULT:    -6.895      6.316      8.285
REMARK INTER + INTRA:         -10.804
REMARK INTER:                  -8.685
REMARK INTRA:                  -2.119
REMARK CONF_INDEPENDENT:        1.790
REMARK UNBOUND:                -2.119
REMARK  6 active torsions:
REMARK  status: ('A' for Active; 'I' for Inactive)
REMARK    1  A    between atoms: C_2  and  C_10 
REMARK    2  A    between atoms: C_2  and  O_3 
REMARK    3  A    between atoms: O_3  and  C_4 
REMARK       I    between atoms: C_10  and  N_12 
REMARK    4  A    between atoms: N_12  and  N_13 
REMARK       I    between atoms: N_13  and  C_14 
REMARK    5  A    between atoms: C_14  and  C_16 
REMARK    6  A    between atoms: C_20  and  N_21 
ROOT
ATOM      1  C   UNL d   1      27.883 -16.266  -0.286  0.00  0.00     0.265 C 
ATOM      2  O   UNL d   1      28.830 -16.956   0.099  0.00  0.00    -0.269 OA
ATOM      3  N   UNL d   1      27.365 -15.249   0.526  0.00  0.00    -0.265 N 
ATOM      4  H   UNL d   1      26.575 -14.657   0.278  0.00  0.00     0.190 HD
ENDROOT
BRANCH   3   5
ATOM      5  N   UNL d   1      27.871 -15.079   1.842  0.00  0.00    -0.263 N 
ATOM      6  C   UNL d   1      27.370 -14.073   2.663  0.00  0.00     0.270 C 
ATOM      7  O   UNL d   1      26.463 -13.311   2.319  0.00  0.00    -0.266 OA
ATOM      8  H   UNL d   1      28.573 -15.754   2.145  0.00  0.00     0.190 HD
BRANCH   6   9
ATOM      9  C   UNL d   1      28.018 -13.916   4.004  0.00  0.00     0.035 A 
ATOM     10  C   UNL d   1      28.415 -15.006   4.778  0.00  0.00     0.017 A 
ATOM     11  C   UNL d   1      28.926 -14.784   6.057  0.00  0.00     0.003 A 
ATOM     12  C   UNL d   1      29.074 -13.478   6.544  0.00  0.00     0.029 A 
ATOM     13  C   UNL d   1      28.655 -12.353   5.816  0.00  0.00     0.030 A 
ATOM     14  C   UNL d   1      28.127 -12.626   4.539  0.00  0.00     0.046 A 
BRANCH  13  15
ATOM     15  N   UNL d   1      28.740 -11.061   6.310  0.00  0.00    -0.390 N 
ATOM     16  C   UNL d   1      28.555  -9.870   5.479  0.00  0.00     0.149 C 
ATOM     17  C   UNL d   1      29.108 -10.769   7.698  0.00  0.00     0.149 C 
ENDBRANCH  13  15
ENDBRANCH   6   9
ENDBRANCH   3   5
BRANCH   1  18
ATOM     18  C   UNL d   1      27.164 -16.466  -1.676  0.00  0.00     0.218 C 
ATOM     19  C   UNL d   1      28.021 -15.690  -2.688  0.00  0.00     0.050 C 
BRANCH  18  20
ATOM     20  O   UNL d   1      25.776 -16.061  -1.589  0.00  0.00    -0.337 OA
BRANCH  20  21
ATOM     21  C   UNL d   1      24.824 -16.828  -0.970  0.00  0.00     0.070 C 
ATOM     22  C   UNL d   1      25.031 -18.081  -0.404  0.00  0.00     0.037 C 
ATOM     23  C   UNL d   1      23.966 -18.945  -0.146  0.00  0.00     0.003 C 
ATOM     24  C   UNL d   1      22.670 -18.457  -0.165  0.00  0.00     0.000 C 
ATOM     25  C   UNL d   1      22.450 -17.127  -0.518  0.00  0.00     0.003 C 
ATOM     26  C   UNL d   1      23.518 -16.329  -0.957  0.00  0.00     0.037 C 
ENDBRANCH  20  21
ENDBRANCH  18  20
ENDBRANCH   1  18
TORSDOF 6
ENDMDL
MODEL 8
REMARK VINA RESULT:    -6.791      3.024      4.741
REMARK INTER + INTRA:         -10.892
REMARK INTER:                  -8.581
REMARK INTRA:                  -2.311
REMARK CONF_INDEPENDENT:        1.790
REMARK UNBOUND:                -2.311
REMARK  6 active torsions:
REMARK  status: ('A' for Active; 'I' for Inactive)
REMARK    1  A    between atoms: C_2  and  C_10 
REMARK    2  A    between atoms: C_2  and  O_3 
REMARK    3  A    between atoms: O_3  and  C_4 
REMARK       I    between atoms: C_10  and  N_12 
REMARK    4  A    between atoms: N_12  and  N_13 
REMARK       I    between atoms: N_13  and  C_14 
REMARK    5  A    between atoms: C_14  and  C_16 
REMARK    6  A    between atoms: C_20  and  N_21 
ROOT
ATOM      1  C   UNL d   1      26.739 -15.376  -0.619  0.00  0.00     0.265 C 
ATOM      2  O   UNL d   1      27.355 -14.483  -0.032  0.00  0.00    -0.269 OA
ATOM      3  N   UNL d   1      26.157 -15.137  -1.871  0.00  0.00    -0.265 N 
ATOM      4  H   UNL d   1      25.620 -15.822  -2.399  0.00  0.00     0.190 HD
ENDROOT
BRANCH   3   5
ATOM      5  N   UNL d   1      26.193 -13.828  -2.421  0.00  0.00    -0.263 N 
ATOM      6  C   UNL d   1      25.566 -13.557  -3.633  0.00  0.00     0.270 C 
ATOM      7  O   UNL d   1      24.932 -14.405  -4.268  0.00  0.00    -0.266 OA
ATOM      8  H   UNL d   1      26.661 -13.117  -1.858  0.00  0.00     0.190 HD
BRANCH   6   9
ATOM      9  C   UNL d   1      25.724 -12.171  -4.176  0.00  0.00     0.035 A 
ATOM     10  C   UNL d   1      25.912 -11.912  -5.533  0.00  0.00     0.017 A 
ATOM     11  C   UNL d   1      26.147 -10.602  -5.952  0.00  0.00     0.003 A 
ATOM     12  C   UNL d   1      26.154  -9.552  -5.023  0.00  0.00     0.029 A 
ATOM     13  C   UNL d   1      26.005  -9.768  -3.643  0.00  0.00     0.030 A 
ATOM     14  C   UNL d   1      25.792 -11.108  -3.264  0.00  0.00     0.046 A 
BRANCH  13  15
ATOM     15  N   UNL d   1      26.072  -8.747  -2.709  0.00  0.00    -0.390 N 
ATOM     16  C   UNL d   1      25.535  -7.405  -2.947  0.00  0.00     0.149 C 
ATOM     17  C   UNL d   1      26.762  -8.895  -1.426  0.00  0.00     0.149 C 
ENDBRANCH  13  15
ENDBRANCH   6   9
ENDBRANCH   3   5
BRANCH   1  18
ATOM     18  C   UNL d   1      26.526 -16.824  -0.030  0.00  0.00     0.218 C 
ATOM     19  C   UNL d   1      27.941 -17.359   0.241  0.00  0.00     0.050 C 
BRANCH  18  20
ATOM     20  O   UNL d   1      25.715 -17.620  -0.928  0.00  0.00    -0.337 OA
BRANCH  20  21
ATOM     21  C   UNL d   1      24.366 -17.783  -0.751  0.00  0.00     0.070 C 
ATOM     22  C   UNL d   1      23.718 -18.990  -0.517  0.00  0.00     0.037 C 
ATOM     23  C   UNL d   1      22.345 -19.129  -0.730  0.00  0.00     0.003 C 
ATOM     24  C   UNL d   1      21.560 -17.999  -0.881  0.00  0.00     0.000 C 
ATOM     25  C   UNL d   1      22.168 -16.745  -0.896  0.00  0.00     0.003 C 
ATOM     26  C   UNL d   1      23.568 -16.641  -0.871  0.00  0.00     0.037 C 
ENDBRANCH  20  21
ENDBRANCH  18  20
ENDBRANCH   1  18
TORSDOF 6
ENDMDL
MODEL 9
REMARK VINA RESULT:    -6.775      2.576      3.617
REMARK INTER + INTRA:         -10.802
REMARK INTER:                  -8.564
REMARK INTRA:                  -2.237
REMARK CONF_INDEPENDENT:        1.790
REMARK UNBOUND:                -2.237
REMARK  6 active torsions:
REMARK  status: ('A' for Active; 'I' for Inactive)
REMARK    1  A    between atoms: C_2  and  C_10 
REMARK    2  A    between atoms: C_2  and  O_3 
REMARK    3  A    between atoms: O_3  and  C_4 
REMARK       I    between atoms: C_10  and  N_12 
REMARK    4  A    between atoms: N_12  and  N_13 
REMARK       I    between atoms: N_13  and  C_14 
REMARK    5  A    between atoms: C_14  and  C_16 
REMARK    6  A    between atoms: C_20  and  N_21 
ROOT
ATOM      1  C   UNL d   1      26.571 -15.900  -0.594  0.00  0.00     0.265 C 
ATOM      2  O   UNL d   1      27.289 -15.077  -0.023  0.00  0.00    -0.269 OA
ATOM      3  N   UNL d   1      26.003 -15.607  -1.840  0.00  0.00    -0.265 N 
ATOM      4  H   UNL d   1      25.386 -16.233  -2.356  0.00  0.00     0.190 HD
ENDROOT
BRANCH   3   5
ATOM      5  N   UNL d   1      26.175 -14.314  -2.402  0.00  0.00    -0.263 N 
ATOM      6  C   UNL d   1      25.738 -14.045  -3.696  0.00  0.00     0.270 C 
ATOM      7  O   UNL d   1      25.163 -14.880  -4.400  0.00  0.00    -0.266 OA
ATOM      8  H   UNL d   1      26.591 -13.611  -1.791  0.00  0.00     0.190 HD
BRANCH   6   9
ATOM      9  C   UNL d   1      26.034 -12.680  -4.234  0.00  0.00     0.035 A 
ATOM     10  C   UNL d   1      25.729 -11.514  -3.533  0.00  0.00     0.017 A 
ATOM     11  C   UNL d   1      25.949 -10.276  -4.139  0.00  0.00     0.003 A 
ATOM     12  C   UNL d   1      26.506 -10.205  -5.423  0.00  0.00     0.029 A 
ATOM     13  C   UNL d   1      26.796 -11.352  -6.181  0.00  0.00     0.030 A 
ATOM     14  C   UNL d   1      26.539 -12.579  -5.538  0.00  0.00     0.046 A 
BRANCH  13  15
ATOM     15  N   UNL d   1      27.290 -11.295  -7.475  0.00  0.00    -0.390 N 
ATOM     16  C   UNL d   1      26.686 -10.479  -8.529  0.00  0.00     0.149 C 
ATOM     17  C   UNL d   1      28.415 -12.117  -7.926  0.00  0.00     0.149 C 
ENDBRANCH  13  15
ENDBRANCH   6   9
ENDBRANCH   3   5
BRANCH   1  18
ATOM     18  C   UNL d   1      26.207 -17.311   0.010  0.00  0.00     0.218 C 
ATOM     19  C   UNL d   1      27.558 -17.970   0.334  0.00  0.00     0.050 C 
BRANCH  18  20
ATOM     20  O   UNL d   1      25.355 -18.046  -0.901  0.00  0.00    -0.337 OA
BRANCH  20  21
ATOM     21  C   UNL d   1      23.996 -18.122  -0.737  0.00  0.00     0.070 C 
ATOM     22  C   UNL d   1      23.269 -19.286  -0.516  0.00  0.00     0.037 C 
ATOM     23  C   UNL d   1      21.892 -19.334  -0.742  0.00  0.00     0.003 C 
ATOM     24  C   UNL d   1      21.183 -18.154  -0.893  0.00  0.00     0.000 C 
ATOM     25  C   UNL d   1      21.871 -16.943  -0.895  0.00  0.00     0.003 C 
ATOM     26  C   UNL d   1      23.275 -16.930  -0.857  0.00  0.00     0.037 C 
ENDBRANCH  20  21
ENDBRANCH  18  20
ENDBRANCH   1  18
TORSDOF 6
ENDMDL
