MODEL 1
REMARK VINA RESULT:    -8.637      0.000      0.000
REMARK INTER + INTRA:         -14.096
REMARK INTER:                 -12.813
REMARK INTRA:                  -1.283
REMARK CONF_INDEPENDENT:        4.176
REMARK UNBOUND:                -1.283
REMARK  14 active torsions:
REMARK  status: ('A' for Active; 'I' for Inactive)
REMARK    1  A    between atoms: C_2  and  C_3 
REMARK       I    between atoms: C_2  and  N_18 
REMARK    2  A    between atoms: C_3  and  C_4 
REMARK    3  A    between atoms: C_4  and  C_5 
REMARK    4  A    between atoms: C_5  and  C_6 
REMARK    5  A    between atoms: C_6  and  O_8 
REMARK    6  A    between atoms: O_8  and  C_9 
REMARK    7  A    between atoms: C_9  and  C_10 
REMARK    8  A    between atoms: C_10  and  C_11 
REMARK    9  A    between atoms: C_11  and  C_12 
REMARK   10  A    between atoms: N_18  and  C_19 
REMARK   11  A    between atoms: C_19  and  N_21 
REMARK   12  A    between atoms: N_21  and  C_22 
REMARK   13  A    between atoms: C_24  and  N_25 
REMARK   14  A    between atoms: C_30  and  O_31 
ROOT
ATOM      1  O   UNL d   1      24.362 -14.095  -4.329  0.00  0.00    -0.273 OA
ATOM      2  C   UNL d   1      25.484 -13.627  -4.138  0.00  0.00     0.223 C 
ATOM      3  N   UNL d   1      25.685 -12.234  -4.127  0.00  0.00    -0.304 N 
ATOM      4  H   UNL d   1      24.818 -11.758  -4.349  0.00  0.00     0.171 HD
ENDROOT
BRANCH   2   5
ATOM      5  C   UNL d   1      26.709 -14.494  -3.908  0.00  0.00     0.103 C 
BRANCH   5   6
ATOM      6  C   UNL d   1      26.644 -15.557  -2.841  0.00  0.00     0.019 C 
BRANCH   6   7
ATOM      7  C   UNL d   1      25.195 -16.044  -2.640  0.00  0.00     0.111 C 
BRANCH   7   8
ATOM      8  C   UNL d   1      24.875 -16.034  -1.168  0.00  0.00     0.258 C 
ATOM      9  O   UNL d   1      25.595 -15.513  -0.312  0.00  0.00    -0.265 OA
BRANCH   8  10
ATOM     10  O   UNL d   1      23.702 -16.663  -0.894  0.00  0.00    -0.321 OA
BRANCH  10  11
ATOM     11  C   UNL d   1      23.878 -17.822  -0.061  0.00  0.00     0.179 C 
BRANCH  11  12
ATOM     12  C   UNL d   1      23.022 -18.964  -0.588  0.00  0.00     0.031 C 
BRANCH  12  13
ATOM     13  C   UNL d   1      21.593 -18.496  -0.840  0.00  0.00     0.041 C 
BRANCH  13  14
ATOM     14  C   UNL d   1      20.550 -19.322  -0.132  0.00  0.00    -0.058 A 
ATOM     15  C   UNL d   1      19.448 -19.854  -0.818  0.00  0.00     0.007 A 
ATOM     16  C   UNL d   1      18.399 -20.445  -0.113  0.00  0.00     0.001 A 
ATOM     17  C   UNL d   1      18.479 -20.581   1.272  0.00  0.00     0.000 A 
ATOM     18  C   UNL d   1      19.594 -20.104   1.956  0.00  0.00     0.001 A 
ATOM     19  C   UNL d   1      20.621 -19.473   1.259  0.00  0.00     0.007 A 
ENDBRANCH  13  14
ENDBRANCH  12  13
ENDBRANCH  11  12
ENDBRANCH  10  11
ENDBRANCH   8  10
ENDBRANCH   7   8
ENDBRANCH   6   7
ENDBRANCH   5   6
ENDBRANCH   2   5
BRANCH   3  20
ATOM     20  C   UNL d   1      26.797 -11.442  -3.752  0.00  0.00     0.178 C 
ATOM     21  S   UNL d   1      28.214 -11.259  -4.672  0.00  0.00    -0.040 SA
BRANCH  20  22
ATOM     22  N   UNL d   1      26.654 -10.825  -2.493  0.00  0.00    -0.331 N 
ATOM     23  H   UNL d   1      27.161 -11.194  -1.698  0.00  0.00     0.168 HD
BRANCH  22  24
ATOM     24  C   UNL d   1      26.153  -9.483  -2.381  0.00  0.00     0.070 A 
ATOM     25  C   UNL d   1      26.281  -8.750  -1.197  0.00  0.00     0.068 A 
ATOM     26  C   UNL d   1      25.807  -7.418  -1.172  0.00  0.00     0.105 A 
ATOM     27  C   UNL d   1      25.351  -6.779  -2.336  0.00  0.00     0.039 A 
ATOM     28  C   UNL d   1      25.232  -7.508  -3.511  0.00  0.00     0.041 A 
ATOM     29  C   UNL d   1      25.561  -8.859  -3.502  0.00  0.00     0.092 A 
BRANCH  26  30
ATOM     30  N   UNL d   1      25.663  -6.709   0.108  0.00  0.00    -0.116 N 
ATOM     31  O   UNL d   1      25.961  -5.508   0.138  0.00  0.00    -0.532 OA
ATOM     32  O   UNL d   1      25.306  -7.372   1.095  0.00  0.00    -0.532 OA
ENDBRANCH  26  30
BRANCH  29  33
ATOM     33  O   UNL d   1      25.258  -9.604  -4.613  0.00  0.00    -0.358 OA
ATOM     34  H   UNL d   1      24.358  -9.952  -4.498  0.00  0.00     0.217 HD
ENDBRANCH  29  33
ENDBRANCH  22  24
ENDBRANCH  20  22
ENDBRANCH   3  20
TORSDOF 14
ENDMDL
MODEL 2
REMARK VINA RESULT:    -7.494      2.400      3.780
REMARK INTER + INTRA:         -13.960
REMARK INTER:                 -11.670
REMARK INTRA:                  -2.291
REMARK CONF_INDEPENDENT:        4.176
REMARK UNBOUND:                -2.291
REMARK  14 active torsions:
REMARK  status: ('A' for Active; 'I' for Inactive)
REMARK    1  A    between atoms: C_2  and  C_3 
REMARK       I    between atoms: C_2  and  N_18 
REMARK    2  A    between atoms: C_3  and  C_4 
REMARK    3  A    between atoms: C_4  and  C_5 
REMARK    4  A    between atoms: C_5  and  C_6 
REMARK    5  A    between atoms: C_6  and  O_8 
REMARK    6  A    between atoms: O_8  and  C_9 
REMARK    7  A    between atoms: C_9  and  C_10 
REMARK    8  A    between atoms: C_10  and  C_11 
REMARK    9  A    between atoms: C_11  and  C_12 
REMARK   10  A    between atoms: N_18  and  C_19 
REMARK   11  A    between atoms: C_19  and  N_21 
REMARK   12  A    between atoms: N_21  and  C_22 
REMARK   13  A    between atoms: C_24  and  N_25 
REMARK   14  A    between atoms: C_30  and  O_31 
ROOT
ATOM      1  O   UNL d   1      28.309 -11.895  -2.976  0.00  0.00    -0.273 OA
ATOM      2  C   UNL d   1      27.209 -11.353  -3.076  0.00  0.00     0.223 C 
ATOM      3  N   UNL d   1      27.110 -10.006  -3.472  0.00  0.00    -0.304 N 
ATOM      4  H   UNL d   1      28.036  -9.608  -3.581  0.00  0.00     0.171 HD
ENDROOT
BRANCH   2   5
ATOM      5  C   UNL d   1      25.906 -12.075  -2.786  0.00  0.00     0.103 C 
BRANCH   5   6
ATOM      6  C   UNL d   1      25.146 -12.675  -3.942  0.00  0.00     0.019 C 
BRANCH   6   7
ATOM      7  C   UNL d   1      26.113 -13.301  -4.966  0.00  0.00     0.111 C 
BRANCH   7   8
ATOM      8  C   UNL d   1      26.187 -14.786  -4.725  0.00  0.00     0.258 C 
ATOM      9  O   UNL d   1      26.788 -15.572  -5.461  0.00  0.00    -0.265 OA
BRANCH   8  10
ATOM     10  O   UNL d   1      25.516 -15.157  -3.602  0.00  0.00    -0.321 OA
BRANCH  10  11
ATOM     11  C   UNL d   1      26.313 -15.975  -2.729  0.00  0.00     0.179 C 
BRANCH  11  12
ATOM     12  C   UNL d   1      26.266 -15.409  -1.317  0.00  0.00     0.031 C 
BRANCH  12  13
ATOM     13  C   UNL d   1      25.926 -16.501  -0.309  0.00  0.00     0.041 C 
BRANCH  13  14
ATOM     14  C   UNL d   1      24.574 -17.132  -0.531  0.00  0.00    -0.058 A 
ATOM     15  C   UNL d   1      23.457 -16.363  -0.886  0.00  0.00     0.007 A 
ATOM     16  C   UNL d   1      22.184 -16.934  -0.894  0.00  0.00     0.001 A 
ATOM     17  C   UNL d   1      22.027 -18.293  -0.627  0.00  0.00     0.000 A 
ATOM     18  C   UNL d   1      23.138 -19.076  -0.327  0.00  0.00     0.001 A 
ATOM     19  C   UNL d   1      24.404 -18.498  -0.273  0.00  0.00     0.007 A 
ENDBRANCH  13  14
ENDBRANCH  12  13
ENDBRANCH  11  12
ENDBRANCH  10  11
ENDBRANCH   8  10
ENDBRANCH   7   8
ENDBRANCH   6   7
ENDBRANCH   5   6
ENDBRANCH   2   5
BRANCH   3  20
ATOM     20  C   UNL d   1      26.000  -9.209  -3.846  0.00  0.00     0.178 C 
ATOM     21  S   UNL d   1      25.307  -9.174  -5.397  0.00  0.00    -0.040 SA
BRANCH  20  22
ATOM     22  N   UNL d   1      25.519  -8.386  -2.807  0.00  0.00    -0.331 N 
ATOM     23  H   UNL d   1      24.531  -8.169  -2.762  0.00  0.00     0.168 HD
BRANCH  22  24
ATOM     24  C   UNL d   1      26.286  -8.185  -1.609  0.00  0.00     0.070 A 
ATOM     25  C   UNL d   1      25.718  -8.343  -0.341  0.00  0.00     0.068 A 
ATOM     26  C   UNL d   1      26.543  -8.175   0.794  0.00  0.00     0.105 A 
ATOM     27  C   UNL d   1      27.931  -8.001   0.674  0.00  0.00     0.039 A 
ATOM     28  C   UNL d   1      28.492  -7.851  -0.586  0.00  0.00     0.041 A 
ATOM     29  C   UNL d   1      27.661  -7.870  -1.700  0.00  0.00     0.092 A 
BRANCH  26  30
ATOM     30  N   UNL d   1      25.945  -8.053   2.132  0.00  0.00    -0.116 N 
ATOM     31  O   UNL d   1      26.318  -7.116   2.847  0.00  0.00    -0.532 OA
ATOM     32  O   UNL d   1      25.143  -8.933   2.485  0.00  0.00    -0.532 OA
ENDBRANCH  26  30
BRANCH  29  33
ATOM     33  O   UNL d   1      28.201  -7.533  -2.915  0.00  0.00    -0.358 OA
ATOM     34  H   UNL d   1      28.231  -6.562  -2.964  0.00  0.00     0.217 HD
ENDBRANCH  29  33
ENDBRANCH  22  24
ENDBRANCH  20  22
ENDBRANCH   3  20
TORSDOF 14
ENDMDL
MODEL 3
REMARK VINA RESULT:    -6.507      2.486      3.566
REMARK INTER + INTRA:         -13.711
REMARK INTER:                 -10.683
REMARK INTRA:                  -3.028
REMARK CONF_INDEPENDENT:        4.176
REMARK UNBOUND:                -3.028
REMARK  14 active torsions:
REMARK  status: ('A' for Active; 'I' for Inactive)
REMARK    1  A    between atoms: C_2  and  C_3 
REMARK       I    between atoms: C_2  and  N_18 
REMARK    2  A    between atoms: C_3  and  C_4 
REMARK    3  A    between atoms: C_4  and  C_5 
REMARK    4  A    between atoms: C_5  and  C_6 
REMARK    5  A    between atoms: C_6  and  O_8 
REMARK    6  A    between atoms: O_8  and  C_9 
REMARK    7  A    between atoms: C_9  and  C_10 
REMARK    8  A    between atoms: C_10  and  C_11 
REMARK    9  A    between atoms: C_11  and  C_12 
REMARK   10  A    between atoms: N_18  and  C_19 
REMARK   11  A    between atoms: C_19  and  N_21 
REMARK   12  A    between atoms: N_21  and  C_22 
REMARK   13  A    between atoms: C_24  and  N_25 
REMARK   14  A    between atoms: C_30  and  O_31 
ROOT
ATOM      1  O   UNL d   1      30.009 -15.552  -2.447  0.00  0.00    -0.273 OA
ATOM      2  C   UNL d   1      29.046 -15.365  -1.705  0.00  0.00     0.223 C 
ATOM      3  N   UNL d   1      28.452 -14.093  -1.610  0.00  0.00    -0.304 N 
ATOM      4  H   UNL d   1      28.970 -13.427  -2.171  0.00  0.00     0.171 HD
ENDROOT
BRANCH   2   5
ATOM      5  C   UNL d   1      28.440 -16.466  -0.851  0.00  0.00     0.103 C 
BRANCH   5   6
ATOM      6  C   UNL d   1      27.174 -17.129  -1.331  0.00  0.00     0.019 C 
BRANCH   6   7
ATOM      7  C   UNL d   1      25.953 -16.615  -0.543  0.00  0.00     0.111 C 
BRANCH   7   8
ATOM      8  C   UNL d   1      24.746 -16.635  -1.443  0.00  0.00     0.258 C 
ATOM      9  O   UNL d   1      24.280 -15.633  -1.991  0.00  0.00    -0.265 OA
BRANCH   8  10
ATOM     10  O   UNL d   1      24.231 -17.886  -1.583  0.00  0.00    -0.321 OA
BRANCH  10  11
ATOM     11  C   UNL d   1      24.012 -18.537  -0.320  0.00  0.00     0.179 C 
BRANCH  11  12
ATOM     12  C   UNL d   1      22.642 -18.153   0.221  0.00  0.00     0.031 C 
BRANCH  12  13
ATOM     13  C   UNL d   1      21.535 -18.750  -0.642  0.00  0.00     0.041 C 
BRANCH  13  14
ATOM     14  C   UNL d   1      20.407 -19.357   0.154  0.00  0.00    -0.058 A 
ATOM     15  C   UNL d   1      20.410 -19.343   1.556  0.00  0.00     0.007 A 
ATOM     16  C   UNL d   1      19.462 -20.079   2.268  0.00  0.00     0.001 A 
ATOM     17  C   UNL d   1      18.458 -20.767   1.589  0.00  0.00     0.000 A 
ATOM     18  C   UNL d   1      18.415 -20.741   0.197  0.00  0.00     0.001 A 
ATOM     19  C   UNL d   1      19.388 -20.046  -0.517  0.00  0.00     0.007 A 
ENDBRANCH  13  14
ENDBRANCH  12  13
ENDBRANCH  11  12
ENDBRANCH  10  11
ENDBRANCH   8  10
ENDBRANCH   7   8
ENDBRANCH   6   7
ENDBRANCH   5   6
ENDBRANCH   2   5
BRANCH   3  20
ATOM     20  C   UNL d   1      27.251 -13.653  -1.001  0.00  0.00     0.178 C 
ATOM     21  S   UNL d   1      27.091 -13.229   0.637  0.00  0.00    -0.040 SA
BRANCH  20  22
ATOM     22  N   UNL d   1      26.148 -13.629  -1.877  0.00  0.00    -0.331 N 
ATOM     23  H   UNL d   1      25.287 -14.088  -1.605  0.00  0.00     0.168 HD
BRANCH  22  24
ATOM     24  C   UNL d   1      26.063 -12.657  -2.932  0.00  0.00     0.070 A 
ATOM     25  C   UNL d   1      26.601 -11.374  -2.791  0.00  0.00     0.068 A 
ATOM     26  C   UNL d   1      26.524 -10.485  -3.887  0.00  0.00     0.105 A 
ATOM     27  C   UNL d   1      26.057 -10.905  -5.143  0.00  0.00     0.039 A 
ATOM     28  C   UNL d   1      25.531 -12.182  -5.281  0.00  0.00     0.041 A 
ATOM     29  C   UNL d   1      25.472 -13.010  -4.166  0.00  0.00     0.092 A 
BRANCH  26  30
ATOM     30  N   UNL d   1      26.815  -9.056  -3.701  0.00  0.00    -0.116 N 
ATOM     31  O   UNL d   1      26.119  -8.426  -2.895  0.00  0.00    -0.532 OA
ATOM     32  O   UNL d   1      27.703  -8.553  -4.408  0.00  0.00    -0.532 OA
ENDBRANCH  26  30
BRANCH  29  33
ATOM     33  O   UNL d   1      24.780 -14.190  -4.274  0.00  0.00    -0.358 OA
ATOM     34  H   UNL d   1      24.599 -14.508  -3.374  0.00  0.00     0.217 HD
ENDBRANCH  29  33
ENDBRANCH  22  24
ENDBRANCH  20  22
ENDBRANCH   3  20
TORSDOF 14
ENDMDL
MODEL 4
REMARK VINA RESULT:    -5.986      4.914      8.839
REMARK INTER + INTRA:         -14.948
REMARK INTER:                 -10.163
REMARK INTRA:                  -4.786
REMARK CONF_INDEPENDENT:        4.176
REMARK UNBOUND:                -4.786
REMARK  14 active torsions:
REMARK  status: ('A' for Active; 'I' for Inactive)
REMARK    1  A    between atoms: C_2  and  C_3 
REMARK       I    between atoms: C_2  and  N_18 
REMARK    2  A    between atoms: C_3  and  C_4 
REMARK    3  A    between atoms: C_4  and  C_5 
REMARK    4  A    between atoms: C_5  and  C_6 
REMARK    5  A    between atoms: C_6  and  O_8 
REMARK    6  A    between atoms: O_8  and  C_9 
REMARK    7  A    between atoms: C_9  and  C_10 
REMARK    8  A    between atoms: C_10  and  C_11 
REMARK    9  A    between atoms: C_11  and  C_12 
REMARK   10  A    between atoms: N_18  and  C_19 
REMARK   11  A    between atoms: C_19  and  N_21 
REMARK   12  A    between atoms: N_21  and  C_22 
REMARK   13  A    between atoms: C_24  and  N_25 
REMARK   14  A    between atoms: C_30  and  O_31 
ROOT
ATOM      1  O   UNL d   1      27.891 -15.512  -6.225  0.00  0.00    -0.273 OA
ATOM      2  C   UNL d   1      27.478 -15.084  -5.149  0.00  0.00     0.223 C 
ATOM      3  N   UNL d   1      26.268 -15.557  -4.606  0.00  0.00    -0.304 N 
ATOM      4  H   UNL d   1      25.831 -16.205  -5.252  0.00  0.00     0.171 HD
ENDROOT
BRANCH   2   5
ATOM      5  C   UNL d   1      28.221 -14.034  -4.341  0.00  0.00     0.103 C 
BRANCH   5   6
ATOM      6  C   UNL d   1      29.543 -14.410  -3.723  0.00  0.00     0.019 C 
BRANCH   6   7
ATOM      7  C   UNL d   1      29.617 -13.936  -2.258  0.00  0.00     0.111 C 
BRANCH   7   8
ATOM      8  C   UNL d   1      28.766 -14.842  -1.407  0.00  0.00     0.258 C 
ATOM      9  O   UNL d   1      29.102 -15.979  -1.065  0.00  0.00    -0.265 OA
BRANCH   8  10
ATOM     10  O   UNL d   1      27.587 -14.261  -1.059  0.00  0.00    -0.321 OA
BRANCH  10  11
ATOM     11  C   UNL d   1      27.714 -13.396   0.082  0.00  0.00     0.179 C 
BRANCH  11  12
ATOM     12  C   UNL d   1      28.531 -14.092   1.162  0.00  0.00     0.031 C 
BRANCH  12  13
ATOM     13  C   UNL d   1      27.653 -14.450   2.356  0.00  0.00     0.041 C 
BRANCH  13  14
ATOM     14  C   UNL d   1      28.298 -14.166   3.689  0.00  0.00    -0.058 A 
ATOM     15  C   UNL d   1      29.389 -13.293   3.803  0.00  0.00     0.007 A 
ATOM     16  C   UNL d   1      30.090 -13.198   5.006  0.00  0.00     0.001 A 
ATOM     17  C   UNL d   1      29.658 -13.909   6.124  0.00  0.00     0.000 A 
ATOM     18  C   UNL d   1      28.542 -14.737   6.034  0.00  0.00     0.001 A 
ATOM     19  C   UNL d   1      27.869 -14.870   4.822  0.00  0.00     0.007 A 
ENDBRANCH  13  14
ENDBRANCH  12  13
ENDBRANCH  11  12
ENDBRANCH  10  11
ENDBRANCH   8  10
ENDBRANCH   7   8
ENDBRANCH   6   7
ENDBRANCH   5   6
ENDBRANCH   2   5
BRANCH   3  20
ATOM     20  C   UNL d   1      25.671 -15.387  -3.334  0.00  0.00     0.178 C 
ATOM     21  S   UNL d   1      24.470 -14.241  -2.971  0.00  0.00    -0.040 SA
BRANCH  20  22
ATOM     22  N   UNL d   1      26.194 -16.242  -2.343  0.00  0.00    -0.331 N 
ATOM     23  H   UNL d   1      27.161 -16.138  -2.057  0.00  0.00     0.168 HD
BRANCH  22  24
ATOM     24  C   UNL d   1      25.325 -16.962  -1.455  0.00  0.00     0.070 A 
ATOM     25  C   UNL d   1      24.034 -17.339  -1.839  0.00  0.00     0.068 A 
ATOM     26  C   UNL d   1      23.250 -18.087  -0.932  0.00  0.00     0.105 A 
ATOM     27  C   UNL d   1      23.786 -18.579   0.270  0.00  0.00     0.039 A 
ATOM     28  C   UNL d   1      25.070 -18.209   0.644  0.00  0.00     0.041 A 
ATOM     29  C   UNL d   1      25.791 -17.352  -0.180  0.00  0.00     0.092 A 
BRANCH  26  30
ATOM     30  N   UNL d   1      21.810 -18.263  -1.169  0.00  0.00    -0.116 N 
ATOM     31  O   UNL d   1      21.435 -19.325  -1.681  0.00  0.00    -0.532 OA
ATOM     32  O   UNL d   1      21.063 -17.310  -0.895  0.00  0.00    -0.532 OA
ENDBRANCH  26  30
BRANCH  29  33
ATOM     33  O   UNL d   1      26.976 -16.848   0.293  0.00  0.00    -0.358 OA
ATOM     34  H   UNL d   1      27.225 -16.099  -0.275  0.00  0.00     0.217 HD
ENDBRANCH  29  33
ENDBRANCH  22  24
ENDBRANCH  20  22
ENDBRANCH   3  20
TORSDOF 14
ENDMDL
MODEL 5
REMARK VINA RESULT:    -5.867      3.414      4.845
REMARK INTER + INTRA:         -14.187
REMARK INTER:                 -10.044
REMARK INTRA:                  -4.144
REMARK CONF_INDEPENDENT:        4.176
REMARK UNBOUND:                -4.144
REMARK  14 active torsions:
REMARK  status: ('A' for Active; 'I' for Inactive)
REMARK    1  A    between atoms: C_2  and  C_3 
REMARK       I    between atoms: C_2  and  N_18 
REMARK    2  A    between atoms: C_3  and  C_4 
REMARK    3  A    between atoms: C_4  and  C_5 
REMARK    4  A    between atoms: C_5  and  C_6 
REMARK    5  A    between atoms: C_6  and  O_8 
REMARK    6  A    between atoms: O_8  and  C_9 
REMARK    7  A    between atoms: C_9  and  C_10 
REMARK    8  A    between atoms: C_10  and  C_11 
REMARK    9  A    between atoms: C_11  and  C_12 
REMARK   10  A    between atoms: N_18  and  C_19 
REMARK   11  A    between atoms: C_19  and  N_21 
REMARK   12  A    between atoms: N_21  and  C_22 
REMARK   13  A    between atoms: C_24  and  N_25 
REMARK   14  A    between atoms: C_30  and  O_31 
ROOT
ATOM      1  O   UNL d   1      24.326 -14.174  -3.512  0.00  0.00    -0.273 OA
ATOM      2  C   UNL d   1      25.534 -14.200  -3.287  0.00  0.00     0.223 C 
ATOM      3  N   UNL d   1      26.142 -13.184  -2.526  0.00  0.00    -0.304 N 
ATOM      4  H   UNL d   1      25.458 -12.475  -2.286  0.00  0.00     0.171 HD
ENDROOT
BRANCH   2   5
ATOM      5  C   UNL d   1      26.444 -15.301  -3.803  0.00  0.00     0.103 C 
BRANCH   5   6
ATOM      6  C   UNL d   1      27.765 -14.910  -4.416  0.00  0.00     0.019 C 
BRANCH   6   7
ATOM      7  C   UNL d   1      28.875 -15.894  -3.998  0.00  0.00     0.111 C 
BRANCH   7   8
ATOM      8  C   UNL d   1      28.999 -15.883  -2.497  0.00  0.00     0.258 C 
ATOM      9  O   UNL d   1      29.931 -15.352  -1.888  0.00  0.00    -0.265 OA
BRANCH   8  10
ATOM     10  O   UNL d   1      27.962 -16.523  -1.892  0.00  0.00    -0.321 OA
BRANCH  10  11
ATOM     11  C   UNL d   1      28.400 -17.462  -0.896  0.00  0.00     0.179 C 
BRANCH  11  12
ATOM     12  C   UNL d   1      27.217 -17.879  -0.033  0.00  0.00     0.031 C 
BRANCH  12  13
ATOM     13  C   UNL d   1      26.174 -16.767   0.026  0.00  0.00     0.041 C 
BRANCH  13  14
ATOM     14  C   UNL d   1      24.762 -17.248  -0.192  0.00  0.00    -0.058 A 
ATOM     15  C   UNL d   1      24.440 -18.612  -0.161  0.00  0.00     0.007 A 
ATOM     16  C   UNL d   1      23.175 -19.045  -0.559  0.00  0.00     0.001 A 
ATOM     17  C   UNL d   1      22.198 -18.116  -0.912  0.00  0.00     0.000 A 
ATOM     18  C   UNL d   1      22.492 -16.755  -0.893  0.00  0.00     0.001 A 
ATOM     19  C   UNL d   1      23.769 -16.324  -0.542  0.00  0.00     0.007 A 
ENDBRANCH  13  14
ENDBRANCH  12  13
ENDBRANCH  11  12
ENDBRANCH  10  11
ENDBRANCH   8  10
ENDBRANCH   7   8
ENDBRANCH   6   7
ENDBRANCH   5   6
ENDBRANCH   2   5
BRANCH   3  20
ATOM     20  C   UNL d   1      27.438 -13.066  -1.968  0.00  0.00     0.178 C 
ATOM     21  S   UNL d   1      28.694 -12.123  -2.617  0.00  0.00    -0.040 SA
BRANCH  20  22
ATOM     22  N   UNL d   1      27.631 -13.851  -0.813  0.00  0.00    -0.331 N 
ATOM     23  H   UNL d   1      28.141 -14.723  -0.884  0.00  0.00     0.168 HD
BRANCH  22  24
ATOM     24  C   UNL d   1      27.493 -13.281   0.499  0.00  0.00     0.070 A 
ATOM     25  C   UNL d   1      26.998 -11.987   0.687  0.00  0.00     0.068 A 
ATOM     26  C   UNL d   1      26.845 -11.507   2.007  0.00  0.00     0.105 A 
ATOM     27  C   UNL d   1      27.038 -12.343   3.119  0.00  0.00     0.039 A 
ATOM     28  C   UNL d   1      27.522 -13.629   2.928  0.00  0.00     0.041 A 
ATOM     29  C   UNL d   1      27.813 -14.054   1.637  0.00  0.00     0.092 A 
BRANCH  26  30
ATOM     30  N   UNL d   1      26.601 -10.078   2.251  0.00  0.00    -0.116 N 
ATOM     31  O   UNL d   1      25.904  -9.770   3.226  0.00  0.00    -0.532 OA
ATOM     32  O   UNL d   1      27.060  -9.268   1.430  0.00  0.00    -0.532 OA
ENDBRANCH  26  30
BRANCH  29  33
ATOM     33  O   UNL d   1      28.465 -15.251   1.484  0.00  0.00    -0.358 OA
ATOM     34  H   UNL d   1      29.178 -15.284   2.144  0.00  0.00     0.217 HD
ENDBRANCH  29  33
ENDBRANCH  22  24
ENDBRANCH  20  22
ENDBRANCH   3  20
TORSDOF 14
ENDMDL
