MODEL 1
REMARK VINA RESULT:   -31.753      0.000      0.000
REMARK INTER + INTRA:         -34.874
REMARK INTER:                 -34.139
REMARK INTRA:                  -0.735
REMARK CONF_INDEPENDENT:        2.386
REMARK UNBOUND:                -0.735
REMARK  8 active torsions:
REMARK  status: ('A' for Active; 'I' for Inactive)
REMARK    1  A    between atoms: C_2  and  C_4 
REMARK    2  A    between atoms: C_7  and  O_8 
REMARK    3  A    between atoms: O_8  and  C_9 
REMARK    4  A    between atoms: C_9  and  C_10 
REMARK    5  A    between atoms: C_10  and  C_11 
REMARK       I    between atoms: C_11  and  N_13 
REMARK    6  A    between atoms: N_13  and  N_14 
REMARK       I    between atoms: N_14  and  C_15 
REMARK    7  A    between atoms: C_15  and  C_17 
REMARK    8  A    between atoms: C_17  and  C_18 
ROOT
ATOM      1  C   UNL d   1      25.701 -15.103  -3.458  0.00  0.00     0.238 C 
ATOM      2  O   UNL d   1      24.611 -14.526  -3.488  0.00  0.00    -0.272 OA
ATOM      3  N   UNL d   1      26.054 -15.966  -2.364  0.00  0.00    -0.267 N 
ATOM      4  H   UNL d   1      26.952 -16.443  -2.313  0.00  0.00     0.190 HD
ENDROOT
BRANCH   3   5
ATOM      5  N   UNL d   1      24.988 -16.355  -1.212  0.00  0.00    -0.267 N 
ATOM      6  C   UNL d   1      23.995 -17.457  -1.282  0.00  0.00     0.240 C 
ATOM      7  O   UNL d   1      23.994 -18.197  -2.275  0.00  0.00    -0.272 OA
ATOM      8  H   UNL d   1      25.182 -15.843  -0.355  0.00  0.00     0.190 HD
BRANCH   6   9
ATOM      9  C   UNL d   1      22.864 -17.651   0.077  0.00  0.00     0.141 C 
BRANCH   9  10
ATOM     10  C   UNL d   1      21.402 -18.589   0.085  0.00  0.00    -0.039 C 
ATOM     11  C   UNL d   1      21.219 -19.246  -1.156  0.00  0.00     0.113 C 
ATOM     12  N   UNL d   1      19.874 -18.900  -1.257  0.00  0.00    -0.282 NA
ATOM     13  C   UNL d   1      19.300 -19.668  -0.272  0.00  0.00     0.019 A 
ATOM     14  H   UNL d   1      19.528 -17.953  -1.336  0.00  0.00     0.128 HD
ATOM     15  C   UNL d   1      18.170 -20.454  -0.429  0.00  0.00     0.024 A 
ATOM     16  C   UNL d   1      20.191 -19.515   0.830  0.00  0.00    -0.011 A 
ATOM     17  C   UNL d   1      17.710 -21.341   0.502  0.00  0.00     0.002 A 
ATOM     18  C   UNL d   1      18.428 -21.313   1.689  0.00  0.00     0.001 A 
ATOM     19  C   UNL d   1      19.632 -20.406   1.899  0.00  0.00     0.013 A 
ENDBRANCH   9  10
ENDBRANCH   6   9
ENDBRANCH   3   5
BRANCH   1  20
ATOM     20  C   UNL d   1      26.741 -14.893  -4.658  0.00  0.00     0.131 C 
BRANCH  20  21
ATOM     21  C   UNL d   1      27.573 -13.554  -4.614  0.00  0.00     0.185 C 
BRANCH  21  22
ATOM     22  O   UNL d   1      27.286 -12.649  -5.727  0.00  0.00    -0.351 OA
BRANCH  22  23
ATOM     23  C   UNL d   1      26.544 -11.514  -5.430  0.00  0.00     0.068 A 
ATOM     24  C   UNL d   1      26.016 -10.766  -6.494  0.00  0.00     0.037 A 
ATOM     25  C   UNL d   1      25.281  -9.573  -6.266  0.00  0.00     0.010 A 
ATOM     26  C   UNL d   1      25.047  -9.092  -4.966  0.00  0.00    -0.055 A 
ATOM     27  C   UNL d   1      25.541  -9.882  -3.915  0.00  0.00     0.010 A 
ATOM     28  C   UNL d   1      26.281 -11.055  -4.141  0.00  0.00     0.037 A 
BRANCH  26  29
ATOM     29  C   UNL d   1      24.228  -7.826  -4.678  0.00  0.00     0.010 C 
ATOM     30  C   UNL d   1      25.086  -6.546  -4.572  0.00  0.00     0.015 C 
ATOM     31  C   UNL d   1      23.105  -7.542  -5.690  0.00  0.00     0.015 C 
ENDBRANCH  26  29
ENDBRANCH  22  23
ENDBRANCH  21  22
ENDBRANCH  20  21
ENDBRANCH   1  20
TORSDOF 8
ENDMDL
MODEL 2
REMARK VINA RESULT:   -31.588      5.825      7.550
REMARK INTER + INTRA:         -35.305
REMARK INTER:                 -33.974
REMARK INTRA:                  -1.331
REMARK CONF_INDEPENDENT:        2.386
REMARK UNBOUND:                -1.331
REMARK  8 active torsions:
REMARK  status: ('A' for Active; 'I' for Inactive)
REMARK    1  A    between atoms: C_2  and  C_4 
REMARK    2  A    between atoms: C_7  and  O_8 
REMARK    3  A    between atoms: O_8  and  C_9 
REMARK    4  A    between atoms: C_9  and  C_10 
REMARK    5  A    between atoms: C_10  and  C_11 
REMARK       I    between atoms: C_11  and  N_13 
REMARK    6  A    between atoms: N_13  and  N_14 
REMARK       I    between atoms: N_14  and  C_15 
REMARK    7  A    between atoms: C_15  and  C_17 
REMARK    8  A    between atoms: C_17  and  C_18 
ROOT
ATOM      1  C   UNL d   1      27.880 -16.401  -0.478  0.00  0.00     0.238 C 
ATOM      2  O   UNL d   1      27.722 -16.770  -1.645  0.00  0.00    -0.272 OA
ATOM      3  N   UNL d   1      26.761 -16.011   0.335  0.00  0.00    -0.267 N 
ATOM      4  H   UNL d   1      26.869 -15.692   1.296  0.00  0.00     0.190 HD
ENDROOT
BRANCH   3   5
ATOM      5  N   UNL d   1      25.237 -16.193  -0.174  0.00  0.00    -0.267 N 
ATOM      6  C   UNL d   1      24.493 -17.477  -0.250  0.00  0.00     0.240 C 
ATOM      7  O   UNL d   1      25.043 -18.510   0.156  0.00  0.00    -0.272 OA
ATOM      8  H   UNL d   1      24.788 -15.289  -0.295  0.00  0.00     0.190 HD
BRANCH   6   9
ATOM      9  C   UNL d   1      22.846 -17.450  -0.921  0.00  0.00     0.141 C 
BRANCH   9  10
ATOM     10  C   UNL d   1      21.496 -18.407  -0.396  0.00  0.00    -0.039 C 
ATOM     11  C   UNL d   1      21.102 -19.318  -1.407  0.00  0.00     0.113 C 
ATOM     12  N   UNL d   1      19.744 -19.041  -1.270  0.00  0.00    -0.282 NA
ATOM     13  C   UNL d   1      19.453 -19.598  -0.048  0.00  0.00     0.019 A 
ATOM     14  H   UNL d   1      19.319 -18.142  -1.458  0.00  0.00     0.128 HD
ATOM     15  C   UNL d   1      18.378 -20.432   0.214  0.00  0.00     0.024 A 
ATOM     16  C   UNL d   1      20.545 -19.189   0.771  0.00  0.00    -0.011 A 
ATOM     17  C   UNL d   1      18.196 -21.114   1.383  0.00  0.00     0.002 A 
ATOM     18  C   UNL d   1      19.147 -20.813   2.348  0.00  0.00     0.001 A 
ATOM     19  C   UNL d   1      20.296 -19.848   2.095  0.00  0.00     0.013 A 
ENDBRANCH   9  10
ENDBRANCH   6   9
ENDBRANCH   3   5
BRANCH   1  20
ATOM     20  C   UNL d   1      29.355 -16.358   0.146  0.00  0.00     0.131 C 
BRANCH  20  21
ATOM     21  C   UNL d   1      29.683 -15.097   1.033  0.00  0.00     0.185 C 
BRANCH  21  22
ATOM     22  O   UNL d   1      28.533 -14.591   1.783  0.00  0.00    -0.351 OA
BRANCH  22  23
ATOM     23  C   UNL d   1      28.738 -14.324   3.130  0.00  0.00     0.068 A 
ATOM     24  C   UNL d   1      27.641 -14.416   4.001  0.00  0.00     0.037 A 
ATOM     25  C   UNL d   1      27.768 -14.119   5.383  0.00  0.00     0.010 A 
ATOM     26  C   UNL d   1      28.998 -13.724   5.939  0.00  0.00    -0.055 A 
ATOM     27  C   UNL d   1      30.091 -13.689   5.060  0.00  0.00     0.010 A 
ATOM     28  C   UNL d   1      29.963 -13.968   3.689  0.00  0.00     0.037 A 
BRANCH  26  29
ATOM     29  C   UNL d   1      29.182 -13.429   7.435  0.00  0.00     0.010 C 
ATOM     30  C   UNL d   1      30.603 -13.736   7.955  0.00  0.00     0.015 C 
ATOM     31  C   UNL d   1      28.844 -11.987   7.853  0.00  0.00     0.015 C 
ENDBRANCH  26  29
ENDBRANCH  22  23
ENDBRANCH  21  22
ENDBRANCH  20  21
ENDBRANCH   1  20
TORSDOF 8
ENDMDL
MODEL 3
REMARK VINA RESULT:   -31.306      3.385      6.349
REMARK INTER + INTRA:         -35.043
REMARK INTER:                 -33.693
REMARK INTRA:                  -1.350
REMARK CONF_INDEPENDENT:        2.386
REMARK UNBOUND:                -1.350
REMARK  8 active torsions:
REMARK  status: ('A' for Active; 'I' for Inactive)
REMARK    1  A    between atoms: C_2  and  C_4 
REMARK    2  A    between atoms: C_7  and  O_8 
REMARK    3  A    between atoms: O_8  and  C_9 
REMARK    4  A    between atoms: C_9  and  C_10 
REMARK    5  A    between atoms: C_10  and  C_11 
REMARK       I    between atoms: C_11  and  N_13 
REMARK    6  A    between atoms: N_13  and  N_14 
REMARK       I    between atoms: N_14  and  C_15 
REMARK    7  A    between atoms: C_15  and  C_17 
REMARK    8  A    between atoms: C_17  and  C_18 
ROOT
ATOM      1  C   UNL d   1      25.547 -14.808  -3.452  0.00  0.00     0.238 C 
ATOM      2  O   UNL d   1      24.503 -14.157  -3.362  0.00  0.00    -0.272 OA
ATOM      3  N   UNL d   1      25.896 -15.791  -2.462  0.00  0.00    -0.267 N 
ATOM      4  H   UNL d   1      26.758 -16.331  -2.510  0.00  0.00     0.190 HD
ENDROOT
BRANCH   3   5
ATOM      5  N   UNL d   1      24.872 -16.208  -1.283  0.00  0.00    -0.267 N 
ATOM      6  C   UNL d   1      24.004 -17.414  -1.271  0.00  0.00     0.240 C 
ATOM      7  O   UNL d   1      24.088 -18.219  -2.209  0.00  0.00    -0.272 OA
ATOM      8  H   UNL d   1      25.006 -15.618  -0.465  0.00  0.00     0.190 HD
BRANCH   6   9
ATOM      9  C   UNL d   1      22.893 -17.630   0.101  0.00  0.00     0.141 C 
BRANCH   9  10
ATOM     10  C   UNL d   1      21.437 -18.576   0.118  0.00  0.00    -0.039 C 
ATOM     11  C   UNL d   1      21.235 -19.211  -1.132  0.00  0.00     0.113 C 
ATOM     12  N   UNL d   1      19.886 -18.871  -1.202  0.00  0.00    -0.282 NA
ATOM     13  C   UNL d   1      19.334 -19.660  -0.222  0.00  0.00     0.019 A 
ATOM     14  H   UNL d   1      19.535 -17.924  -1.258  0.00  0.00     0.128 HD
ATOM     15  C   UNL d   1      18.206 -20.450  -0.373  0.00  0.00     0.024 A 
ATOM     16  C   UNL d   1      20.244 -19.523   0.866  0.00  0.00    -0.011 A 
ATOM     17  C   UNL d   1      17.767 -21.356   0.549  0.00  0.00     0.002 A 
ATOM     18  C   UNL d   1      18.506 -21.346   1.724  0.00  0.00     0.001 A 
ATOM     19  C   UNL d   1      19.709 -20.437   1.928  0.00  0.00     0.013 A 
ENDBRANCH   9  10
ENDBRANCH   6   9
ENDBRANCH   3   5
BRANCH   1  20
ATOM     20  C   UNL d   1      26.529 -14.563  -4.693  0.00  0.00     0.131 C 
BRANCH  20  21
ATOM     21  C   UNL d   1      28.062 -14.462  -4.339  0.00  0.00     0.185 C 
BRANCH  21  22
ATOM     22  O   UNL d   1      28.548 -15.569  -3.515  0.00  0.00    -0.351 OA
BRANCH  22  23
ATOM     23  C   UNL d   1      29.382 -16.488  -4.138  0.00  0.00     0.068 A 
ATOM     24  C   UNL d   1      29.702 -16.287  -5.490  0.00  0.00     0.037 A 
ATOM     25  C   UNL d   1      30.517 -17.206  -6.201  0.00  0.00     0.010 A 
ATOM     26  C   UNL d   1      31.041 -18.354  -5.582  0.00  0.00    -0.055 A 
ATOM     27  C   UNL d   1      30.751 -18.508  -4.217  0.00  0.00     0.010 A 
ATOM     28  C   UNL d   1      29.932 -17.607  -3.516  0.00  0.00     0.037 A 
BRANCH  26  29
ATOM     29  C   UNL d   1      31.954 -19.352  -6.309  0.00  0.00     0.010 C 
ATOM     30  C   UNL d   1      31.918 -20.774  -5.707  0.00  0.00     0.015 C 
ATOM     31  C   UNL d   1      31.689 -19.486  -7.818  0.00  0.00     0.015 C 
ENDBRANCH  26  29
ENDBRANCH  22  23
ENDBRANCH  21  22
ENDBRANCH  20  21
ENDBRANCH   1  20
TORSDOF 8
ENDMDL
MODEL 4
REMARK VINA RESULT:   -31.277      5.341      6.745
REMARK INTER + INTRA:         -34.916
REMARK INTER:                 -33.663
REMARK INTRA:                  -1.252
REMARK CONF_INDEPENDENT:        2.386
REMARK UNBOUND:                -1.252
REMARK  8 active torsions:
REMARK  status: ('A' for Active; 'I' for Inactive)
REMARK    1  A    between atoms: C_2  and  C_4 
REMARK    2  A    between atoms: C_7  and  O_8 
REMARK    3  A    between atoms: O_8  and  C_9 
REMARK    4  A    between atoms: C_9  and  C_10 
REMARK    5  A    between atoms: C_10  and  C_11 
REMARK       I    between atoms: C_11  and  N_13 
REMARK    6  A    between atoms: N_13  and  N_14 
REMARK       I    between atoms: N_14  and  C_15 
REMARK    7  A    between atoms: C_15  and  C_17 
REMARK    8  A    between atoms: C_17  and  C_18 
ROOT
ATOM      1  C   UNL d   1      27.772 -17.389  -0.307  0.00  0.00     0.238 C 
ATOM      2  O   UNL d   1      27.199 -17.817   0.698  0.00  0.00    -0.272 OA
ATOM      3  N   UNL d   1      27.028 -16.905  -1.437  0.00  0.00    -0.267 N 
ATOM      4  H   UNL d   1      27.480 -16.559  -2.281  0.00  0.00     0.190 HD
ENDROOT
BRANCH   3   5
ATOM      5  N   UNL d   1      25.420 -16.740  -1.386  0.00  0.00    -0.267 N 
ATOM      6  C   UNL d   1      24.467 -17.697  -0.768  0.00  0.00     0.240 C 
ATOM      7  O   UNL d   1      24.916 -18.693  -0.184  0.00  0.00    -0.272 OA
ATOM      8  H   UNL d   1      25.144 -15.813  -1.699  0.00  0.00     0.190 HD
BRANCH   6   9
ATOM      9  C   UNL d   1      22.728 -17.349  -0.902  0.00  0.00     0.141 C 
BRANCH   9  10
ATOM     10  C   UNL d   1      21.422 -18.367  -0.378  0.00  0.00    -0.039 C 
ATOM     11  C   UNL d   1      21.102 -19.325  -1.371  0.00  0.00     0.113 C 
ATOM     12  N   UNL d   1      19.727 -19.121  -1.268  0.00  0.00    -0.282 NA
ATOM     13  C   UNL d   1      19.443 -19.662  -0.038  0.00  0.00     0.019 A 
ATOM     14  H   UNL d   1      19.257 -18.254  -1.489  0.00  0.00     0.128 HD
ATOM     15  C   UNL d   1      18.411 -20.549   0.226  0.00  0.00     0.024 A 
ATOM     16  C   UNL d   1      20.492 -19.171   0.792  0.00  0.00    -0.011 A 
ATOM     17  C   UNL d   1      18.242 -21.209   1.409  0.00  0.00     0.002 A 
ATOM     18  C   UNL d   1      19.154 -20.830   2.384  0.00  0.00     0.001 A 
ATOM     19  C   UNL d   1      20.253 -19.809   2.128  0.00  0.00     0.013 A 
ENDBRANCH   9  10
ENDBRANCH   6   9
ENDBRANCH   3   5
BRANCH   1  20
ATOM     20  C   UNL d   1      29.374 -17.367  -0.356  0.00  0.00     0.131 C 
BRANCH  20  21
ATOM     21  C   UNL d   1      30.018 -17.725  -1.749  0.00  0.00     0.185 C 
BRANCH  21  22
ATOM     22  O   UNL d   1      29.421 -17.004  -2.874  0.00  0.00    -0.351 OA
BRANCH  22  23
ATOM     23  C   UNL d   1      29.923 -17.295  -4.135  0.00  0.00     0.068 A 
ATOM     24  C   UNL d   1      30.479 -18.565  -4.354  0.00  0.00     0.037 A 
ATOM     25  C   UNL d   1      31.046 -18.918  -5.607  0.00  0.00     0.010 A 
ATOM     26  C   UNL d   1      31.072 -18.013  -6.682  0.00  0.00    -0.055 A 
ATOM     27  C   UNL d   1      30.465 -16.767  -6.457  0.00  0.00     0.010 A 
ATOM     28  C   UNL d   1      29.917 -16.411  -5.213  0.00  0.00     0.037 A 
BRANCH  26  29
ATOM     29  C   UNL d   1      31.645 -18.370  -8.061  0.00  0.00     0.010 C 
ATOM     30  C   UNL d   1      33.175 -18.184  -8.161  0.00  0.00     0.015 C 
ATOM     31  C   UNL d   1      31.325 -19.796  -8.542  0.00  0.00     0.015 C 
ENDBRANCH  26  29
ENDBRANCH  22  23
ENDBRANCH  21  22
ENDBRANCH  20  21
ENDBRANCH   1  20
TORSDOF 8
ENDMDL
MODEL 5
REMARK VINA RESULT:   -30.990      3.313      4.447
REMARK INTER + INTRA:         -34.249
REMARK INTER:                 -33.376
REMARK INTRA:                  -0.873
REMARK CONF_INDEPENDENT:        2.386
REMARK UNBOUND:                -0.873
REMARK  8 active torsions:
REMARK  status: ('A' for Active; 'I' for Inactive)
REMARK    1  A    between atoms: C_2  and  C_4 
REMARK    2  A    between atoms: C_7  and  O_8 
REMARK    3  A    between atoms: O_8  and  C_9 
REMARK    4  A    between atoms: C_9  and  C_10 
REMARK    5  A    between atoms: C_10  and  C_11 
REMARK       I    between atoms: C_11  and  N_13 
REMARK    6  A    between atoms: N_13  and  N_14 
REMARK       I    between atoms: N_14  and  C_15 
REMARK    7  A    between atoms: C_15  and  C_17 
REMARK    8  A    between atoms: C_17  and  C_18 
ROOT
ATOM      1  C   UNL d   1      26.411 -14.539  -2.631  0.00  0.00     0.238 C 
ATOM      2  O   UNL d   1      26.149 -13.680  -1.784  0.00  0.00    -0.272 OA
ATOM      3  N   UNL d   1      25.952 -15.893  -2.483  0.00  0.00    -0.267 N 
ATOM      4  H   UNL d   1      26.166 -16.619  -3.163  0.00  0.00     0.190 HD
ENDROOT
BRANCH   3   5
ATOM      5  N   UNL d   1      24.937 -16.319  -1.299  0.00  0.00    -0.267 N 
ATOM      6  C   UNL d   1      23.946 -17.424  -1.359  0.00  0.00     0.240 C 
ATOM      7  O   UNL d   1      23.905 -18.135  -2.373  0.00  0.00    -0.272 OA
ATOM      8  H   UNL d   1      25.166 -15.832  -0.436  0.00  0.00     0.190 HD
BRANCH   6   9
ATOM      9  C   UNL d   1      22.874 -17.662   0.040  0.00  0.00     0.141 C 
BRANCH   9  10
ATOM     10  C   UNL d   1      21.409 -18.594   0.079  0.00  0.00    -0.039 C 
ATOM     11  C   UNL d   1      21.246 -19.325  -1.124  0.00  0.00     0.113 C 
ATOM     12  N   UNL d   1      19.904 -18.982  -1.270  0.00  0.00    -0.282 NA
ATOM     13  C   UNL d   1      19.309 -19.687  -0.251  0.00  0.00     0.019 A 
ATOM     14  H   UNL d   1      19.564 -18.040  -1.413  0.00  0.00     0.128 HD
ATOM     15  C   UNL d   1      18.179 -20.478  -0.381  0.00  0.00     0.024 A 
ATOM     16  C   UNL d   1      20.180 -19.470   0.855  0.00  0.00    -0.011 A 
ATOM     17  C   UNL d   1      17.699 -21.305   0.594  0.00  0.00     0.002 A 
ATOM     18  C   UNL d   1      18.395 -21.207   1.790  0.00  0.00     0.001 A 
ATOM     19  C   UNL d   1      19.599 -20.293   1.966  0.00  0.00     0.013 A 
ENDBRANCH   9  10
ENDBRANCH   6   9
ENDBRANCH   3   5
BRANCH   1  20
ATOM     20  C   UNL d   1      27.275 -14.141  -3.921  0.00  0.00     0.131 C 
BRANCH  20  21
ATOM     21  C   UNL d   1      26.724 -14.671  -5.300  0.00  0.00     0.185 C 
BRANCH  21  22
ATOM     22  O   UNL d   1      27.724 -15.385  -6.095  0.00  0.00    -0.351 OA
BRANCH  22  23
ATOM     23  C   UNL d   1      28.794 -14.635  -6.565  0.00  0.00     0.068 A 
ATOM     24  C   UNL d   1      28.519 -13.460  -7.283  0.00  0.00     0.037 A 
ATOM     25  C   UNL d   1      29.562 -12.665  -7.827  0.00  0.00     0.010 A 
ATOM     26  C   UNL d   1      30.913 -13.017  -7.666  0.00  0.00    -0.055 A 
ATOM     27  C   UNL d   1      31.167 -14.166  -6.901  0.00  0.00     0.010 A 
ATOM     28  C   UNL d   1      30.135 -14.963  -6.376  0.00  0.00     0.037 A 
BRANCH  26  29
ATOM     29  C   UNL d   1      32.069 -12.164  -8.209  0.00  0.00     0.010 C 
ATOM     30  C   UNL d   1      33.390 -12.947  -8.374  0.00  0.00     0.015 C 
ATOM     31  C   UNL d   1      31.780 -11.466  -9.549  0.00  0.00     0.015 C 
ENDBRANCH  26  29
ENDBRANCH  22  23
ENDBRANCH  21  22
ENDBRANCH  20  21
ENDBRANCH   1  20
TORSDOF 8
ENDMDL
MODEL 6
REMARK VINA RESULT:   -30.901      3.824      5.009
REMARK INTER + INTRA:         -34.744
REMARK INTER:                 -33.288
REMARK INTRA:                  -1.456
REMARK CONF_INDEPENDENT:        2.386
REMARK UNBOUND:                -1.456
REMARK  8 active torsions:
REMARK  status: ('A' for Active; 'I' for Inactive)
REMARK    1  A    between atoms: C_2  and  C_4 
REMARK    2  A    between atoms: C_7  and  O_8 
REMARK    3  A    between atoms: O_8  and  C_9 
REMARK    4  A    between atoms: C_9  and  C_10 
REMARK    5  A    between atoms: C_10  and  C_11 
REMARK       I    between atoms: C_11  and  N_13 
REMARK    6  A    between atoms: N_13  and  N_14 
REMARK       I    between atoms: N_14  and  C_15 
REMARK    7  A    between atoms: C_15  and  C_17 
REMARK    8  A    between atoms: C_17  and  C_18 
ROOT
ATOM      1  C   UNL d   1      26.017 -15.487  -3.223  0.00  0.00     0.238 C 
ATOM      2  O   UNL d   1      24.901 -14.983  -3.371  0.00  0.00    -0.272 OA
ATOM      3  N   UNL d   1      26.340 -16.245  -2.045  0.00  0.00    -0.267 N 
ATOM      4  H   UNL d   1      27.258 -16.659  -1.898  0.00  0.00     0.190 HD
ENDROOT
BRANCH   3   5
ATOM      5  N   UNL d   1      25.218 -16.616  -0.941  0.00  0.00    -0.267 N 
ATOM      6  C   UNL d   1      24.036 -17.487  -1.162  0.00  0.00     0.240 C 
ATOM      7  O   UNL d   1      23.897 -18.037  -2.263  0.00  0.00    -0.272 OA
ATOM      8  H   UNL d   1      25.505 -16.300  -0.018  0.00  0.00     0.190 HD
BRANCH   6   9
ATOM      9  C   UNL d   1      22.887 -17.691   0.180  0.00  0.00     0.141 C 
BRANCH   9  10
ATOM     10  C   UNL d   1      21.418 -18.618   0.156  0.00  0.00    -0.039 C 
ATOM     11  C   UNL d   1      21.245 -19.255  -1.097  0.00  0.00     0.113 C 
ATOM     12  N   UNL d   1      19.903 -18.897  -1.208  0.00  0.00    -0.282 NA
ATOM     13  C   UNL d   1      19.312 -19.675  -0.242  0.00  0.00     0.019 A 
ATOM     14  H   UNL d   1      19.566 -17.946  -1.277  0.00  0.00     0.128 HD
ATOM     15  C   UNL d   1      18.178 -20.450  -0.424  0.00  0.00     0.024 A 
ATOM     16  C   UNL d   1      20.191 -19.546   0.872  0.00  0.00    -0.011 A 
ATOM     17  C   UNL d   1      17.700 -21.347   0.487  0.00  0.00     0.002 A 
ATOM     18  C   UNL d   1      18.404 -21.343   1.683  0.00  0.00     0.001 A 
ATOM     19  C   UNL d   1      19.613 -20.449   1.921  0.00  0.00     0.013 A 
ENDBRANCH   9  10
ENDBRANCH   6   9
ENDBRANCH   3   5
BRANCH   1  20
ATOM     20  C   UNL d   1      27.128 -15.299  -4.363  0.00  0.00     0.131 C 
BRANCH  20  21
ATOM     21  C   UNL d   1      28.561 -14.882  -3.856  0.00  0.00     0.185 C 
BRANCH  21  22
ATOM     22  O   UNL d   1      29.012 -15.635  -2.686  0.00  0.00    -0.351 OA
BRANCH  22  23
ATOM     23  C   UNL d   1      28.806 -15.041  -1.448  0.00  0.00     0.068 A 
ATOM     24  C   UNL d   1      29.328 -15.676  -0.310  0.00  0.00     0.037 A 
ATOM     25  C   UNL d   1      29.124 -15.147   0.991  0.00  0.00     0.010 A 
ATOM     26  C   UNL d   1      28.394 -13.963   1.196  0.00  0.00    -0.055 A 
ATOM     27  C   UNL d   1      27.925 -13.318   0.041  0.00  0.00     0.010 A 
ATOM     28  C   UNL d   1      28.114 -13.849  -1.247  0.00  0.00     0.037 A 
BRANCH  26  29
ATOM     29  C   UNL d   1      28.182 -13.342   2.584  0.00  0.00     0.010 C 
ATOM     30  C   UNL d   1      27.038 -12.305   2.628  0.00  0.00     0.015 C 
ATOM     31  C   UNL d   1      27.924 -14.356   3.711  0.00  0.00     0.015 C 
ENDBRANCH  26  29
ENDBRANCH  22  23
ENDBRANCH  21  22
ENDBRANCH  20  21
ENDBRANCH   1  20
TORSDOF 8
ENDMDL
MODEL 7
REMARK VINA RESULT:   -30.889      2.363      3.624
REMARK INTER + INTRA:         -34.866
REMARK INTER:                 -33.275
REMARK INTRA:                  -1.591
REMARK CONF_INDEPENDENT:        2.386
REMARK UNBOUND:                -1.591
REMARK  8 active torsions:
REMARK  status: ('A' for Active; 'I' for Inactive)
REMARK    1  A    between atoms: C_2  and  C_4 
REMARK    2  A    between atoms: C_7  and  O_8 
REMARK    3  A    between atoms: O_8  and  C_9 
REMARK    4  A    between atoms: C_9  and  C_10 
REMARK    5  A    between atoms: C_10  and  C_11 
REMARK       I    between atoms: C_11  and  N_13 
REMARK    6  A    between atoms: N_13  and  N_14 
REMARK       I    between atoms: N_14  and  C_15 
REMARK    7  A    between atoms: C_15  and  C_17 
REMARK    8  A    between atoms: C_17  and  C_18 
ROOT
ATOM      1  C   UNL d   1      28.023 -16.683  -0.190  0.00  0.00     0.238 C 
ATOM      2  O   UNL d   1      27.516 -16.295   0.866  0.00  0.00    -0.272 OA
ATOM      3  N   UNL d   1      27.206 -17.070  -1.308  0.00  0.00    -0.267 N 
ATOM      4  H   UNL d   1      27.603 -17.405  -2.183  0.00  0.00     0.190 HD
ENDROOT
BRANCH   3   5
ATOM      5  N   UNL d   1      25.603 -16.860  -1.300  0.00  0.00    -0.267 N 
ATOM      6  C   UNL d   1      24.617 -17.720  -0.597  0.00  0.00     0.240 C 
ATOM      7  O   UNL d   1      25.031 -18.659   0.097  0.00  0.00    -0.272 OA
ATOM      8  H   UNL d   1      25.356 -15.965  -1.714  0.00  0.00     0.190 HD
BRANCH   6   9
ATOM      9  C   UNL d   1      22.890 -17.344  -0.795  0.00  0.00     0.141 C 
BRANCH   9  10
ATOM     10  C   UNL d   1      21.549 -18.336  -0.310  0.00  0.00    -0.039 C 
ATOM     11  C   UNL d   1      21.281 -19.329  -1.284  0.00  0.00     0.113 C 
ATOM     12  N   UNL d   1      19.905 -19.116  -1.270  0.00  0.00    -0.282 NA
ATOM     13  C   UNL d   1      19.545 -19.609  -0.039  0.00  0.00     0.019 A 
ATOM     14  H   UNL d   1      19.453 -18.256  -1.551  0.00  0.00     0.128 HD
ATOM     15  C   UNL d   1      18.494 -20.481   0.197  0.00  0.00     0.024 A 
ATOM     16  C   UNL d   1      20.547 -19.091   0.832  0.00  0.00    -0.011 A 
ATOM     17  C   UNL d   1      18.252 -21.095   1.392  0.00  0.00     0.002 A 
ATOM     18  C   UNL d   1      19.108 -20.683   2.404  0.00  0.00     0.001 A 
ATOM     19  C   UNL d   1      20.226 -19.677   2.175  0.00  0.00     0.013 A 
ENDBRANCH   9  10
ENDBRANCH   6   9
ENDBRANCH   3   5
BRANCH   1  20
ATOM     20  C   UNL d   1      29.618 -16.755  -0.323  0.00  0.00     0.131 C 
BRANCH  20  21
ATOM     21  C   UNL d   1      30.223 -16.110  -1.629  0.00  0.00     0.185 C 
BRANCH  21  22
ATOM     22  O   UNL d   1      29.446 -16.393  -2.836  0.00  0.00    -0.351 OA
BRANCH  22  23
ATOM     23  C   UNL d   1      28.581 -15.396  -3.266  0.00  0.00     0.068 A 
ATOM     24  C   UNL d   1      28.639 -14.145  -2.632  0.00  0.00     0.037 A 
ATOM     25  C   UNL d   1      27.759 -13.091  -2.993  0.00  0.00     0.010 A 
ATOM     26  C   UNL d   1      26.795 -13.254  -4.003  0.00  0.00    -0.055 A 
ATOM     27  C   UNL d   1      26.788 -14.495  -4.658  0.00  0.00     0.010 A 
ATOM     28  C   UNL d   1      27.649 -15.544  -4.291  0.00  0.00     0.037 A 
BRANCH  26  29
ATOM     29  C   UNL d   1      25.850 -12.127  -4.445  0.00  0.00     0.010 C 
ATOM     30  C   UNL d   1      25.723 -10.987  -3.412  0.00  0.00     0.015 C 
ATOM     31  C   UNL d   1      26.202 -11.484  -5.797  0.00  0.00     0.015 C 
ENDBRANCH  26  29
ENDBRANCH  22  23
ENDBRANCH  21  22
ENDBRANCH  20  21
ENDBRANCH   1  20
TORSDOF 8
ENDMDL
MODEL 8
REMARK VINA RESULT:   -30.867      5.263      6.546
REMARK INTER + INTRA:         -34.754
REMARK INTER:                 -33.253
REMARK INTRA:                  -1.501
REMARK CONF_INDEPENDENT:        2.386
REMARK UNBOUND:                -1.501
REMARK  8 active torsions:
REMARK  status: ('A' for Active; 'I' for Inactive)
REMARK    1  A    between atoms: C_2  and  C_4 
REMARK    2  A    between atoms: C_7  and  O_8 
REMARK    3  A    between atoms: O_8  and  C_9 
REMARK    4  A    between atoms: C_9  and  C_10 
REMARK    5  A    between atoms: C_10  and  C_11 
REMARK       I    between atoms: C_11  and  N_13 
REMARK    6  A    between atoms: N_13  and  N_14 
REMARK       I    between atoms: N_14  and  C_15 
REMARK    7  A    between atoms: C_15  and  C_17 
REMARK    8  A    between atoms: C_17  and  C_18 
ROOT
ATOM      1  C   UNL d   1      27.600 -15.237   0.639  0.00  0.00     0.238 C 
ATOM      2  O   UNL d   1      26.936 -14.265   1.009  0.00  0.00    -0.272 OA
ATOM      3  N   UNL d   1      26.968 -16.390   0.059  0.00  0.00    -0.267 N 
ATOM      4  H   UNL d   1      27.495 -17.208  -0.242  0.00  0.00     0.190 HD
ENDROOT
BRANCH   3   5
ATOM      5  N   UNL d   1      25.390 -16.407  -0.291  0.00  0.00    -0.267 N 
ATOM      6  C   UNL d   1      24.509 -17.602  -0.280  0.00  0.00     0.240 C 
ATOM      7  O   UNL d   1      24.983 -18.690   0.076  0.00  0.00    -0.272 OA
ATOM      8  H   UNL d   1      25.030 -15.459  -0.373  0.00  0.00     0.190 HD
BRANCH   6   9
ATOM      9  C   UNL d   1      22.815 -17.397  -0.780  0.00  0.00     0.141 C 
BRANCH   9  10
ATOM     10  C   UNL d   1      21.467 -18.388  -0.313  0.00  0.00    -0.039 C 
ATOM     11  C   UNL d   1      21.157 -19.325  -1.329  0.00  0.00     0.113 C 
ATOM     12  N   UNL d   1      19.785 -19.089  -1.270  0.00  0.00    -0.282 NA
ATOM     13  C   UNL d   1      19.446 -19.637  -0.056  0.00  0.00     0.019 A 
ATOM     14  H   UNL d   1      19.344 -18.207  -1.495  0.00  0.00     0.128 HD
ATOM     15  C   UNL d   1      18.384 -20.500   0.161  0.00  0.00     0.024 A 
ATOM     16  C   UNL d   1      20.478 -19.182   0.814  0.00  0.00    -0.011 A 
ATOM     17  C   UNL d   1      18.159 -21.170   1.329  0.00  0.00     0.002 A 
ATOM     18  C   UNL d   1      19.047 -20.827   2.339  0.00  0.00     0.001 A 
ATOM     19  C   UNL d   1      20.178 -19.830   2.133  0.00  0.00     0.013 A 
ENDBRANCH   9  10
ENDBRANCH   6   9
ENDBRANCH   3   5
BRANCH   1  20
ATOM     20  C   UNL d   1      29.194 -15.216   0.803  0.00  0.00     0.131 C 
BRANCH  20  21
ATOM     21  C   UNL d   1      30.009 -15.863  -0.381  0.00  0.00     0.185 C 
BRANCH  21  22
ATOM     22  O   UNL d   1      29.191 -16.678  -1.280  0.00  0.00    -0.351 OA
BRANCH  22  23
ATOM     23  C   UNL d   1      29.798 -17.111  -2.451  0.00  0.00     0.068 A 
ATOM     24  C   UNL d   1      29.431 -16.495  -3.658  0.00  0.00     0.037 A 
ATOM     25  C   UNL d   1      29.981 -16.913  -4.899  0.00  0.00     0.010 A 
ATOM     26  C   UNL d   1      30.919 -17.957  -4.971  0.00  0.00    -0.055 A 
ATOM     27  C   UNL d   1      31.309 -18.524  -3.748  0.00  0.00     0.010 A 
ATOM     28  C   UNL d   1      30.754 -18.122  -2.521  0.00  0.00     0.037 A 
BRANCH  26  29
ATOM     29  C   UNL d   1      31.561 -18.413  -6.289  0.00  0.00     0.010 C 
ATOM     30  C   UNL d   1      31.055 -19.787  -6.780  0.00  0.00     0.015 C 
ATOM     31  C   UNL d   1      31.407 -17.424  -7.457  0.00  0.00     0.015 C 
ENDBRANCH  26  29
ENDBRANCH  22  23
ENDBRANCH  21  22
ENDBRANCH  20  21
ENDBRANCH   1  20
TORSDOF 8
ENDMDL
MODEL 9
REMARK VINA RESULT:   -30.760      1.597      2.459
REMARK INTER + INTRA:         -34.912
REMARK INTER:                 -33.146
REMARK INTRA:                  -1.766
REMARK CONF_INDEPENDENT:        2.386
REMARK UNBOUND:                -1.766
REMARK  8 active torsions:
REMARK  status: ('A' for Active; 'I' for Inactive)
REMARK    1  A    between atoms: C_2  and  C_4 
REMARK    2  A    between atoms: C_7  and  O_8 
REMARK    3  A    between atoms: O_8  and  C_9 
REMARK    4  A    between atoms: C_9  and  C_10 
REMARK    5  A    between atoms: C_10  and  C_11 
REMARK       I    between atoms: C_11  and  N_13 
REMARK    6  A    between atoms: N_13  and  N_14 
REMARK       I    between atoms: N_14  and  C_15 
REMARK    7  A    between atoms: C_15  and  C_17 
REMARK    8  A    between atoms: C_17  and  C_18 
ROOT
ATOM      1  C   UNL d   1      27.869 -16.237  -1.599  0.00  0.00     0.238 C 
ATOM      2  O   UNL d   1      28.165 -16.192  -0.402  0.00  0.00    -0.272 OA
ATOM      3  N   UNL d   1      26.548 -16.611  -2.023  0.00  0.00    -0.267 N 
ATOM      4  H   UNL d   1      26.285 -16.666  -3.006  0.00  0.00     0.190 HD
ENDROOT
BRANCH   3   5
ATOM      5  N   UNL d   1      25.346 -16.829  -0.963  0.00  0.00    -0.267 N 
ATOM      6  C   UNL d   1      24.103 -17.604  -1.206  0.00  0.00     0.240 C 
ATOM      7  O   UNL d   1      23.968 -18.193  -2.287  0.00  0.00    -0.272 OA
ATOM      8  H   UNL d   1      25.615 -16.494  -0.042  0.00  0.00     0.190 HD
BRANCH   6   9
ATOM      9  C   UNL d   1      22.877 -17.642   0.082  0.00  0.00     0.141 C 
BRANCH   9  10
ATOM     10  C   UNL d   1      21.417 -18.583   0.099  0.00  0.00    -0.039 C 
ATOM     11  C   UNL d   1      21.224 -19.234  -1.144  0.00  0.00     0.113 C 
ATOM     12  N   UNL d   1      19.878 -18.890  -1.232  0.00  0.00    -0.282 NA
ATOM     13  C   UNL d   1      19.313 -19.663  -0.246  0.00  0.00     0.019 A 
ATOM     14  H   UNL d   1      19.530 -17.942  -1.304  0.00  0.00     0.128 HD
ATOM     15  C   UNL d   1      18.183 -20.450  -0.397  0.00  0.00     0.024 A 
ATOM     16  C   UNL d   1      20.213 -19.514   0.849  0.00  0.00    -0.011 A 
ATOM     17  C   UNL d   1      17.732 -21.341   0.534  0.00  0.00     0.002 A 
ATOM     18  C   UNL d   1      18.460 -21.318   1.715  0.00  0.00     0.001 A 
ATOM     19  C   UNL d   1      19.665 -20.411   1.918  0.00  0.00     0.013 A 
ENDBRANCH   9  10
ENDBRANCH   6   9
ENDBRANCH   3   5
BRANCH   1  20
ATOM     20  C   UNL d   1      28.971 -15.867  -2.702  0.00  0.00     0.131 C 
BRANCH  20  21
ATOM     21  C   UNL d   1      28.581 -16.200  -4.193  0.00  0.00     0.185 C 
BRANCH  21  22
ATOM     22  O   UNL d   1      27.182 -15.913  -4.512  0.00  0.00    -0.351 OA
BRANCH  22  23
ATOM     23  C   UNL d   1      26.841 -14.576  -4.662  0.00  0.00     0.068 A 
ATOM     24  C   UNL d   1      25.586 -14.152  -4.197  0.00  0.00     0.037 A 
ATOM     25  C   UNL d   1      25.155 -12.809  -4.352  0.00  0.00     0.010 A 
ATOM     26  C   UNL d   1      25.967 -11.844  -4.974  0.00  0.00    -0.055 A 
ATOM     27  C   UNL d   1      27.238 -12.277  -5.385  0.00  0.00     0.010 A 
ATOM     28  C   UNL d   1      27.660 -13.611  -5.246  0.00  0.00     0.037 A 
BRANCH  26  29
ATOM     29  C   UNL d   1      25.550 -10.375  -5.129  0.00  0.00     0.010 C 
ATOM     30  C   UNL d   1      25.540  -9.592  -3.798  0.00  0.00     0.015 C 
ATOM     31  C   UNL d   1      26.396  -9.567  -6.128  0.00  0.00     0.015 C 
ENDBRANCH  26  29
ENDBRANCH  22  23
ENDBRANCH  21  22
ENDBRANCH  20  21
ENDBRANCH   1  20
TORSDOF 8
ENDMDL
