MODEL 1
REMARK VINA RESULT:    -8.648      0.000      0.000
REMARK INTER + INTRA:         -14.259
REMARK INTER:                 -11.631
REMARK INTRA:                  -2.628
REMARK CONF_INDEPENDENT:        2.983
REMARK UNBOUND:                -2.628
REMARK  10 active torsions:
REMARK  status: ('A' for Active; 'I' for Inactive)
REMARK    1  A    between atoms: C_2  and  O_3 
REMARK    2  A    between atoms: O_3  and  C_4 
REMARK    3  A    between atoms: C_9  and  C_10 
REMARK    4  A    between atoms: C_12  and  C_13 
REMARK       I    between atoms: C_13  and  N_15 
REMARK    5  A    between atoms: N_15  and  C_16 
REMARK    6  A    between atoms: C_16  and  C_17 
REMARK    7  A    between atoms: C_16  and  C_21 
REMARK    8  A    between atoms: C_17  and  C_18 
REMARK    9  A    between atoms: C_18  and  S_19 
REMARK   10  A    between atoms: C_21  and  O_23 
ROOT
ATOM      1  C   UNL d   1      26.308 -12.383  -4.261  0.00  0.00     0.072 C 
ATOM      2  N   UNL d   1      25.528 -13.057  -3.473  0.00  0.00    -0.245 NA
ATOM      3  C   UNL d   1      25.671 -14.427  -3.440  0.00  0.00     0.122 C 
ATOM      4  C   UNL d   1      26.354 -15.118  -4.386  0.00  0.00     0.025 C 
ATOM      5  C   UNL d   1      27.019 -14.381  -5.531  0.00  0.00     0.039 C 
ATOM      6  C   UNL d   1      28.092 -14.833  -6.223  0.00  0.00     0.052 C 
ATOM      7  C   UNL d   1      29.026 -14.073  -7.201  0.00  0.00    -0.008 C 
ATOM      8  C   UNL d   1      30.319 -14.483  -7.255  0.00  0.00    -0.003 C 
ATOM      9  C   UNL d   1      30.640 -15.677  -6.509  0.00  0.00     0.002 C 
ATOM     10  C   UNL d   1      30.036 -15.818  -5.301  0.00  0.00     0.026 C 
ATOM     11  C   UNL d   1      28.985 -14.744  -5.020  0.00  0.00     0.021 C 
ATOM     12  N   UNL d   1      28.762 -13.558  -4.490  0.00  0.00    -0.381 N 
ATOM     13  C   UNL d   1      27.424 -13.011  -5.084  0.00  0.00     0.149 C 
ATOM     14  H   UNL d   1      29.495 -12.865  -4.343  0.00  0.00     0.160 HD
ENDROOT
BRANCH   3  15
ATOM     15  C   UNL d   1      24.805 -15.148  -2.431  0.00  0.00     0.270 C 
ATOM     16  O   UNL d   1      23.601 -14.893  -2.395  0.00  0.00    -0.266 OA
ATOM     17  N   UNL d   1      25.399 -16.087  -1.625  0.00  0.00    -0.342 N 
ATOM     18  H   UNL d   1      26.404 -16.086  -1.489  0.00  0.00     0.163 HD
BRANCH  17  19
ATOM     19  C   UNL d   1      24.619 -16.985  -0.732  0.00  0.00     0.185 C 
BRANCH  19  20
ATOM     20  C   UNL d   1      23.625 -17.856  -1.538  0.00  0.00     0.045 C 
BRANCH  20  21
ATOM     21  C   UNL d   1      22.884 -18.905  -0.699  0.00  0.00     0.076 C 
BRANCH  21  22
ATOM     22  S   UNL d   1      21.092 -18.924  -0.993  0.00  0.00    -0.173 SA
ATOM     23  C   UNL d   1      20.558 -19.737   0.549  0.00  0.00     0.089 C 
ENDBRANCH  21  22
ENDBRANCH  20  21
ENDBRANCH  19  20
BRANCH  19  24
ATOM     24  C   UNL d   1      25.604 -17.895   0.041  0.00  0.00     0.281 C 
ATOM     25  O   UNL d   1      25.252 -18.575   1.031  0.00  0.00    -0.263 OA
BRANCH  24  26
ATOM     26  O   UNL d   1      26.861 -17.881  -0.467  0.00  0.00    -0.325 OA
ATOM     27  C   UNL d   1      27.814 -17.042   0.212  0.00  0.00     0.213 C 
ENDBRANCH  24  26
ENDBRANCH  19  24
ENDBRANCH  17  19
ENDBRANCH   3  15
BRANCH   1  28
ATOM     28  C   UNL d   1      25.913 -10.953  -4.540  0.00  0.00     0.024 A 
ATOM     29  C   UNL d   1      25.741 -10.118  -3.425  0.00  0.00     0.016 A 
ATOM     30  C   UNL d   1      25.421  -8.763  -3.582  0.00  0.00     0.001 A 
ATOM     31  C   UNL d   1      25.238  -8.230  -4.854  0.00  0.00     0.003 A 
ATOM     32  C   UNL d   1      25.319  -9.068  -5.969  0.00  0.00     0.037 A 
ATOM     33  C   UNL d   1      25.661 -10.429  -5.827  0.00  0.00     0.081 A 
BRANCH  33  34
ATOM     34  O   UNL d   1      25.853 -11.087  -7.015  0.00  0.00    -0.351 OA
BRANCH  34  35
ATOM     35  C   UNL d   1      27.151 -11.006  -7.606  0.00  0.00     0.171 C 
ATOM     36  C   UNL d   1      27.047 -11.489  -9.042  0.00  0.00     0.034 C 
ENDBRANCH  34  35
ENDBRANCH  33  34
ENDBRANCH   1  28
TORSDOF 10
ENDMDL
MODEL 2
REMARK VINA RESULT:    -8.082      4.121      7.458
REMARK INTER + INTRA:         -13.851
REMARK INTER:                 -11.065
REMARK INTRA:                  -2.786
REMARK CONF_INDEPENDENT:        2.983
REMARK UNBOUND:                -2.786
REMARK  10 active torsions:
REMARK  status: ('A' for Active; 'I' for Inactive)
REMARK    1  A    between atoms: C_2  and  O_3 
REMARK    2  A    between atoms: O_3  and  C_4 
REMARK    3  A    between atoms: C_9  and  C_10 
REMARK    4  A    between atoms: C_12  and  C_13 
REMARK       I    between atoms: C_13  and  N_15 
REMARK    5  A    between atoms: N_15  and  C_16 
REMARK    6  A    between atoms: C_16  and  C_17 
REMARK    7  A    between atoms: C_16  and  C_21 
REMARK    8  A    between atoms: C_17  and  C_18 
REMARK    9  A    between atoms: C_18  and  S_19 
REMARK   10  A    between atoms: C_21  and  O_23 
ROOT
ATOM      1  C   UNL d   1      25.111 -15.749  -0.879  0.00  0.00     0.072 C 
ATOM      2  N   UNL d   1      25.537 -15.229   0.231  0.00  0.00    -0.245 NA
ATOM      3  C   UNL d   1      26.648 -14.417   0.177  0.00  0.00     0.122 C 
ATOM      4  C   UNL d   1      27.480 -14.377  -0.892  0.00  0.00     0.025 C 
ATOM      5  C   UNL d   1      27.193 -15.235  -2.108  0.00  0.00     0.039 C 
ATOM      6  C   UNL d   1      27.602 -14.952  -3.368  0.00  0.00     0.052 C 
ATOM      7  C   UNL d   1      27.147 -15.575  -4.714  0.00  0.00    -0.008 C 
ATOM      8  C   UNL d   1      27.172 -14.763  -5.802  0.00  0.00    -0.003 C 
ATOM      9  C   UNL d   1      27.763 -13.460  -5.611  0.00  0.00     0.002 C 
ATOM     10  C   UNL d   1      27.499 -12.842  -4.431  0.00  0.00     0.026 C 
ATOM     11  C   UNL d   1      26.742 -13.725  -3.440  0.00  0.00     0.021 C 
ATOM     12  N   UNL d   1      25.553 -14.089  -3.001  0.00  0.00    -0.381 N 
ATOM     13  C   UNL d   1      25.717 -15.444  -2.242  0.00  0.00     0.149 C 
ATOM     14  H   UNL d   1      24.700 -13.992  -3.551  0.00  0.00     0.160 HD
ENDROOT
BRANCH   3  15
ATOM     15  C   UNL d   1      27.038 -13.760   1.484  0.00  0.00     0.270 C 
ATOM     16  O   UNL d   1      26.298 -12.896   1.955  0.00  0.00    -0.266 OA
ATOM     17  N   UNL d   1      28.184 -14.188   2.104  0.00  0.00    -0.342 N 
ATOM     18  H   UNL d   1      28.895 -14.689   1.583  0.00  0.00     0.163 HD
BRANCH  17  19
ATOM     19  C   UNL d   1      28.566 -13.750   3.474  0.00  0.00     0.185 C 
BRANCH  19  20
ATOM     20  C   UNL d   1      28.204 -14.823   4.529  0.00  0.00     0.045 C 
BRANCH  20  21
ATOM     21  C   UNL d   1      28.465 -14.394   5.979  0.00  0.00     0.076 C 
BRANCH  21  22
ATOM     22  S   UNL d   1      27.807 -12.747   6.369  0.00  0.00    -0.173 SA
ATOM     23  C   UNL d   1      28.871 -12.345   7.794  0.00  0.00     0.089 C 
ENDBRANCH  21  22
ENDBRANCH  20  21
ENDBRANCH  19  20
BRANCH  19  24
ATOM     24  C   UNL d   1      30.090 -13.480   3.503  0.00  0.00     0.281 C 
ATOM     25  O   UNL d   1      30.630 -12.786   4.393  0.00  0.00    -0.263 OA
BRANCH  24  26
ATOM     26  O   UNL d   1      30.761 -14.075   2.487  0.00  0.00    -0.325 OA
ATOM     27  C   UNL d   1      31.616 -15.177   2.845  0.00  0.00     0.213 C 
ENDBRANCH  24  26
ENDBRANCH  19  24
ENDBRANCH  17  19
ENDBRANCH   3  15
BRANCH   1  28
ATOM     28  C   UNL d   1      24.127 -16.888  -0.756  0.00  0.00     0.024 A 
ATOM     29  C   UNL d   1      22.768 -16.565  -0.896  0.00  0.00     0.016 A 
ATOM     30  C   UNL d   1      21.782 -17.559  -0.845  0.00  0.00     0.001 A 
ATOM     31  C   UNL d   1      22.138 -18.886  -0.624  0.00  0.00     0.003 A 
ATOM     32  C   UNL d   1      23.477 -19.211  -0.397  0.00  0.00     0.037 A 
ATOM     33  C   UNL d   1      24.482 -18.223  -0.465  0.00  0.00     0.081 A 
BRANCH  33  34
ATOM     34  O   UNL d   1      25.760 -18.715  -0.374  0.00  0.00    -0.351 OA
BRANCH  34  35
ATOM     35  C   UNL d   1      26.585 -18.205   0.674  0.00  0.00     0.171 C 
ATOM     36  C   UNL d   1      27.833 -17.610   0.045  0.00  0.00     0.034 C 
ENDBRANCH  34  35
ENDBRANCH  33  34
ENDBRANCH   1  28
TORSDOF 10
ENDMDL
MODEL 3
REMARK VINA RESULT:    -7.937      4.013      7.065
REMARK INTER + INTRA:         -13.561
REMARK INTER:                 -10.920
REMARK INTRA:                  -2.641
REMARK CONF_INDEPENDENT:        2.983
REMARK UNBOUND:                -2.641
REMARK  10 active torsions:
REMARK  status: ('A' for Active; 'I' for Inactive)
REMARK    1  A    between atoms: C_2  and  O_3 
REMARK    2  A    between atoms: O_3  and  C_4 
REMARK    3  A    between atoms: C_9  and  C_10 
REMARK    4  A    between atoms: C_12  and  C_13 
REMARK       I    between atoms: C_13  and  N_15 
REMARK    5  A    between atoms: N_15  and  C_16 
REMARK    6  A    between atoms: C_16  and  C_17 
REMARK    7  A    between atoms: C_16  and  C_21 
REMARK    8  A    between atoms: C_17  and  C_18 
REMARK    9  A    between atoms: C_18  and  S_19 
REMARK   10  A    between atoms: C_21  and  O_23 
ROOT
ATOM      1  C   UNL d   1      27.551 -15.380  -2.242  0.00  0.00     0.072 C 
ATOM      2  N   UNL d   1      28.222 -14.688  -1.372  0.00  0.00    -0.245 NA
ATOM      3  C   UNL d   1      27.732 -14.621  -0.087  0.00  0.00     0.122 C 
ATOM      4  C   UNL d   1      26.463 -14.972   0.238  0.00  0.00     0.025 C 
ATOM      5  C   UNL d   1      25.523 -15.487  -0.833  0.00  0.00     0.039 C 
ATOM      6  C   UNL d   1      24.469 -16.307  -0.607  0.00  0.00     0.052 C 
ATOM      7  C   UNL d   1      23.619 -17.120  -1.618  0.00  0.00    -0.008 C 
ATOM      8  C   UNL d   1      23.097 -18.293  -1.175  0.00  0.00    -0.003 C 
ATOM      9  C   UNL d   1      23.268 -18.575   0.230  0.00  0.00     0.002 C 
ATOM     10  C   UNL d   1      24.460 -18.224   0.779  0.00  0.00     0.026 C 
ATOM     11  C   UNL d   1      25.357 -17.436  -0.174  0.00  0.00     0.021 C 
ATOM     12  N   UNL d   1      26.309 -17.517  -1.083  0.00  0.00    -0.381 N 
ATOM     13  C   UNL d   1      26.306 -16.186  -1.901  0.00  0.00     0.149 C 
ATOM     14  H   UNL d   1      26.499 -18.364  -1.619  0.00  0.00     0.160 HD
ENDROOT
BRANCH   3  15
ATOM     15  C   UNL d   1      28.607 -13.885   0.905  0.00  0.00     0.270 C 
ATOM     16  O   UNL d   1      28.515 -12.660   0.980  0.00  0.00    -0.266 OA
ATOM     17  N   UNL d   1      29.438 -14.627   1.706  0.00  0.00    -0.342 N 
ATOM     18  H   UNL d   1      29.689 -15.576   1.450  0.00  0.00     0.163 HD
BRANCH  17  19
ATOM     19  C   UNL d   1      30.200 -14.034   2.838  0.00  0.00     0.185 C 
BRANCH  19  20
ATOM     20  C   UNL d   1      29.658 -14.525   4.202  0.00  0.00     0.045 C 
BRANCH  20  21
ATOM     21  C   UNL d   1      28.156 -14.289   4.404  0.00  0.00     0.076 C 
BRANCH  21  22
ATOM     22  S   UNL d   1      27.781 -13.229   5.830  0.00  0.00    -0.173 SA
ATOM     23  C   UNL d   1      29.250 -13.590   6.849  0.00  0.00     0.089 C 
ENDBRANCH  21  22
ENDBRANCH  20  21
ENDBRANCH  19  20
BRANCH  19  24
ATOM     24  C   UNL d   1      31.690 -14.428   2.695  0.00  0.00     0.281 C 
ATOM     25  O   UNL d   1      32.612 -13.768   3.225  0.00  0.00    -0.263 OA
BRANCH  24  26
ATOM     26  O   UNL d   1      31.882 -15.548   1.956  0.00  0.00    -0.325 OA
ATOM     27  C   UNL d   1      32.996 -16.378   2.333  0.00  0.00     0.213 C 
ENDBRANCH  24  26
ENDBRANCH  19  24
ENDBRANCH  17  19
ENDBRANCH   3  15
BRANCH   1  28
ATOM     28  C   UNL d   1      27.904 -15.162  -3.693  0.00  0.00     0.024 A 
ATOM     29  C   UNL d   1      29.270 -15.161  -4.017  0.00  0.00     0.016 A 
ATOM     30  C   UNL d   1      29.697 -15.014  -5.343  0.00  0.00     0.001 A 
ATOM     31  C   UNL d   1      28.766 -14.836  -6.361  0.00  0.00     0.003 A 
ATOM     32  C   UNL d   1      27.408 -14.747  -6.045  0.00  0.00     0.037 A 
ATOM     33  C   UNL d   1      26.964 -14.913  -4.717  0.00  0.00     0.081 A 
BRANCH  33  34
ATOM     34  O   UNL d   1      25.599 -14.955  -4.582  0.00  0.00    -0.351 OA
BRANCH  34  35
ATOM     35  C   UNL d   1      24.932 -13.728  -4.284  0.00  0.00     0.171 C 
ATOM     36  C   UNL d   1      25.927 -12.802  -3.607  0.00  0.00     0.034 C 
ENDBRANCH  34  35
ENDBRANCH  33  34
ENDBRANCH   1  28
TORSDOF 10
ENDMDL
MODEL 4
REMARK VINA RESULT:    -7.888      4.078      7.592
REMARK INTER + INTRA:         -13.725
REMARK INTER:                 -10.871
REMARK INTRA:                  -2.854
REMARK CONF_INDEPENDENT:        2.983
REMARK UNBOUND:                -2.854
REMARK  10 active torsions:
REMARK  status: ('A' for Active; 'I' for Inactive)
REMARK    1  A    between atoms: C_2  and  O_3 
REMARK    2  A    between atoms: O_3  and  C_4 
REMARK    3  A    between atoms: C_9  and  C_10 
REMARK    4  A    between atoms: C_12  and  C_13 
REMARK       I    between atoms: C_13  and  N_15 
REMARK    5  A    between atoms: N_15  and  C_16 
REMARK    6  A    between atoms: C_16  and  C_17 
REMARK    7  A    between atoms: C_16  and  C_21 
REMARK    8  A    between atoms: C_17  and  C_18 
REMARK    9  A    between atoms: C_18  and  S_19 
REMARK   10  A    between atoms: C_21  and  O_23 
ROOT
ATOM      1  C   UNL d   1      25.146 -15.624  -0.891  0.00  0.00     0.072 C 
ATOM      2  N   UNL d   1      25.530 -15.097   0.230  0.00  0.00    -0.245 NA
ATOM      3  C   UNL d   1      26.606 -14.238   0.203  0.00  0.00     0.122 C 
ATOM      4  C   UNL d   1      27.454 -14.153  -0.852  0.00  0.00     0.025 C 
ATOM      5  C   UNL d   1      27.225 -15.011  -2.080  0.00  0.00     0.039 C 
ATOM      6  C   UNL d   1      27.642 -14.700  -3.330  0.00  0.00     0.052 C 
ATOM      7  C   UNL d   1      27.237 -15.328  -4.689  0.00  0.00    -0.008 C 
ATOM      8  C   UNL d   1      27.246 -14.506  -5.770  0.00  0.00    -0.003 C 
ATOM      9  C   UNL d   1      27.777 -13.181  -5.557  0.00  0.00     0.002 C 
ATOM     10  C   UNL d   1      27.467 -12.586  -4.377  0.00  0.00     0.026 C 
ATOM     11  C   UNL d   1      26.732 -13.509  -3.407  0.00  0.00     0.021 C 
ATOM     12  N   UNL d   1      25.553 -13.927  -2.991  0.00  0.00    -0.381 N 
ATOM     13  C   UNL d   1      25.761 -15.282  -2.241  0.00  0.00     0.149 C 
ATOM     14  H   UNL d   1      24.706 -13.861  -3.555  0.00  0.00     0.160 HD
ENDROOT
BRANCH   3  15
ATOM     15  C   UNL d   1      26.946 -13.578   1.521  0.00  0.00     0.270 C 
ATOM     16  O   UNL d   1      27.522 -14.241   2.384  0.00  0.00    -0.266 OA
ATOM     17  N   UNL d   1      26.628 -12.252   1.679  0.00  0.00    -0.342 N 
ATOM     18  H   UNL d   1      25.935 -11.814   1.083  0.00  0.00     0.163 HD
BRANCH  17  19
ATOM     19  C   UNL d   1      27.078 -11.455   2.852  0.00  0.00     0.185 C 
BRANCH  19  20
ATOM     20  C   UNL d   1      28.619 -11.483   2.995  0.00  0.00     0.045 C 
BRANCH  20  21
ATOM     21  C   UNL d   1      29.129 -12.370   4.138  0.00  0.00     0.076 C 
BRANCH  21  22
ATOM     22  S   UNL d   1      27.797 -13.058   5.163  0.00  0.00    -0.173 SA
ATOM     23  C   UNL d   1      28.445 -14.748   5.378  0.00  0.00     0.089 C 
ENDBRANCH  21  22
ENDBRANCH  20  21
ENDBRANCH  19  20
BRANCH  19  24
ATOM     24  C   UNL d   1      26.595  -9.995   2.675  0.00  0.00     0.281 C 
ATOM     25  O   UNL d   1      26.637  -9.158   3.605  0.00  0.00    -0.263 OA
BRANCH  24  26
ATOM     26  O   UNL d   1      26.142  -9.726   1.426  0.00  0.00    -0.325 OA
ATOM     27  C   UNL d   1      26.510  -8.447   0.875  0.00  0.00     0.213 C 
ENDBRANCH  24  26
ENDBRANCH  19  24
ENDBRANCH  17  19
ENDBRANCH   3  15
BRANCH   1  28
ATOM     28  C   UNL d   1      24.209 -16.805  -0.796  0.00  0.00     0.024 A 
ATOM     29  C   UNL d   1      22.836 -16.530  -0.895  0.00  0.00     0.016 A 
ATOM     30  C   UNL d   1      21.890 -17.563  -0.865  0.00  0.00     0.001 A 
ATOM     31  C   UNL d   1      22.301 -18.883  -0.705  0.00  0.00     0.003 A 
ATOM     32  C   UNL d   1      23.656 -19.164  -0.518  0.00  0.00     0.037 A 
ATOM     33  C   UNL d   1      24.621 -18.136  -0.565  0.00  0.00     0.081 A 
BRANCH  33  34
ATOM     34  O   UNL d   1      25.918 -18.580  -0.520  0.00  0.00    -0.351 OA
BRANCH  34  35
ATOM     35  C   UNL d   1      26.703 -18.196   0.610  0.00  0.00     0.171 C 
ATOM     36  C   UNL d   1      27.923 -17.446   0.105  0.00  0.00     0.034 C 
ENDBRANCH  34  35
ENDBRANCH  33  34
ENDBRANCH   1  28
TORSDOF 10
ENDMDL
MODEL 5
REMARK VINA RESULT:    -7.701      4.069      7.268
REMARK INTER + INTRA:         -13.593
REMARK INTER:                 -10.684
REMARK INTRA:                  -2.909
REMARK CONF_INDEPENDENT:        2.983
REMARK UNBOUND:                -2.909
REMARK  10 active torsions:
REMARK  status: ('A' for Active; 'I' for Inactive)
REMARK    1  A    between atoms: C_2  and  O_3 
REMARK    2  A    between atoms: O_3  and  C_4 
REMARK    3  A    between atoms: C_9  and  C_10 
REMARK    4  A    between atoms: C_12  and  C_13 
REMARK       I    between atoms: C_13  and  N_15 
REMARK    5  A    between atoms: N_15  and  C_16 
REMARK    6  A    between atoms: C_16  and  C_17 
REMARK    7  A    between atoms: C_16  and  C_21 
REMARK    8  A    between atoms: C_17  and  C_18 
REMARK    9  A    between atoms: C_18  and  S_19 
REMARK   10  A    between atoms: C_21  and  O_23 
ROOT
ATOM      1  C   UNL d   1      28.249 -15.922  -1.818  0.00  0.00     0.072 C 
ATOM      2  N   UNL d   1      28.824 -15.250  -0.869  0.00  0.00    -0.245 NA
ATOM      3  C   UNL d   1      28.115 -15.041   0.294  0.00  0.00     0.122 C 
ATOM      4  C   UNL d   1      26.775 -15.230   0.383  0.00  0.00     0.025 C 
ATOM      5  C   UNL d   1      25.996 -15.712  -0.824  0.00  0.00     0.039 C 
ATOM      6  C   UNL d   1      24.828 -16.396  -0.768  0.00  0.00     0.052 C 
ATOM      7  C   UNL d   1      24.090 -17.179  -1.885  0.00  0.00    -0.008 C 
ATOM      8  C   UNL d   1      23.359 -18.255  -1.496  0.00  0.00    -0.003 C 
ATOM      9  C   UNL d   1      23.229 -18.457  -0.073  0.00  0.00     0.002 C 
ATOM     10  C   UNL d   1      24.331 -18.200   0.678  0.00  0.00     0.026 C 
ATOM     11  C   UNL d   1      25.478 -17.582  -0.119  0.00  0.00     0.021 C 
ATOM     12  N   UNL d   1      26.566 -17.827  -0.822  0.00  0.00    -0.381 N 
ATOM     13  C   UNL d   1      26.875 -16.564  -1.686  0.00  0.00     0.149 C 
ATOM     14  H   UNL d   1      26.751 -18.725  -1.271  0.00  0.00     0.160 HD
ENDROOT
BRANCH   3  15
ATOM     15  C   UNL d   1      28.871 -14.339   1.400  0.00  0.00     0.270 C 
ATOM     16  O   UNL d   1      29.679 -13.460   1.100  0.00  0.00    -0.266 OA
ATOM     17  N   UNL d   1      28.590 -14.689   2.697  0.00  0.00    -0.342 N 
ATOM     18  H   UNL d   1      28.137 -15.572   2.905  0.00  0.00     0.163 HD
BRANCH  17  19
ATOM     19  C   UNL d   1      29.130 -13.942   3.864  0.00  0.00     0.185 C 
BRANCH  19  20
ATOM     20  C   UNL d   1      28.842 -12.426   3.745  0.00  0.00     0.045 C 
BRANCH  20  21
ATOM     21  C   UNL d   1      27.405 -12.088   3.328  0.00  0.00     0.076 C 
BRANCH  21  22
ATOM     22  S   UNL d   1      27.297 -10.656   2.216  0.00  0.00    -0.173 SA
ATOM     23  C   UNL d   1      27.294 -11.534   0.618  0.00  0.00     0.089 C 
ENDBRANCH  21  22
ENDBRANCH  20  21
ENDBRANCH  19  20
BRANCH  19  24
ATOM     24  C   UNL d   1      28.480 -14.497   5.155  0.00  0.00     0.281 C 
ATOM     25  O   UNL d   1      27.782 -15.536   5.159  0.00  0.00    -0.263 OA
BRANCH  24  26
ATOM     26  O   UNL d   1      28.753 -13.756   6.256  0.00  0.00    -0.325 OA
ATOM     27  C   UNL d   1      29.978 -14.068   6.947  0.00  0.00     0.213 C 
ENDBRANCH  24  26
ENDBRANCH  19  24
ENDBRANCH  17  19
ENDBRANCH   3  15
BRANCH   1  28
ATOM     28  C   UNL d   1      28.890 -15.845  -3.183  0.00  0.00     0.024 A 
ATOM     29  C   UNL d   1      30.285 -15.997  -3.234  0.00  0.00     0.016 A 
ATOM     30  C   UNL d   1      30.966 -15.988  -4.458  0.00  0.00     0.001 A 
ATOM     31  C   UNL d   1      30.268 -15.796  -5.645  0.00  0.00     0.003 A 
ATOM     32  C   UNL d   1      28.893 -15.555  -5.604  0.00  0.00     0.037 A 
ATOM     33  C   UNL d   1      28.191 -15.582  -4.381  0.00  0.00     0.081 A 
BRANCH  33  34
ATOM     34  O   UNL d   1      26.829 -15.484  -4.512  0.00  0.00    -0.351 OA
BRANCH  34  35
ATOM     35  C   UNL d   1      26.272 -14.172  -4.597  0.00  0.00     0.171 C 
ATOM     36  C   UNL d   1      25.124 -14.081  -3.607  0.00  0.00     0.034 C 
ENDBRANCH  34  35
ENDBRANCH  33  34
ENDBRANCH   1  28
TORSDOF 10
ENDMDL
MODEL 6
REMARK VINA RESULT:    -7.629      3.421      6.796
REMARK INTER + INTRA:         -13.912
REMARK INTER:                 -10.612
REMARK INTRA:                  -3.300
REMARK CONF_INDEPENDENT:        2.983
REMARK UNBOUND:                -3.300
REMARK  10 active torsions:
REMARK  status: ('A' for Active; 'I' for Inactive)
REMARK    1  A    between atoms: C_2  and  O_3 
REMARK    2  A    between atoms: O_3  and  C_4 
REMARK    3  A    between atoms: C_9  and  C_10 
REMARK    4  A    between atoms: C_12  and  C_13 
REMARK       I    between atoms: C_13  and  N_15 
REMARK    5  A    between atoms: N_15  and  C_16 
REMARK    6  A    between atoms: C_16  and  C_17 
REMARK    7  A    between atoms: C_16  and  C_21 
REMARK    8  A    between atoms: C_17  and  C_18 
REMARK    9  A    between atoms: C_18  and  S_19 
REMARK   10  A    between atoms: C_21  and  O_23 
ROOT
ATOM      1  C   UNL d   1      26.461 -15.476  -2.474  0.00  0.00     0.072 C 
ATOM      2  N   UNL d   1      27.653 -15.805  -2.081  0.00  0.00    -0.245 NA
ATOM      3  C   UNL d   1      27.766 -16.730  -1.067  0.00  0.00     0.122 C 
ATOM      4  C   UNL d   1      26.726 -17.079  -0.270  0.00  0.00     0.025 C 
ATOM      5  C   UNL d   1      25.361 -16.459  -0.490  0.00  0.00     0.039 C 
ATOM      6  C   UNL d   1      24.185 -17.034  -0.145  0.00  0.00     0.052 C 
ATOM      7  C   UNL d   1      22.741 -16.651  -0.560  0.00  0.00    -0.008 C 
ATOM      8  C   UNL d   1      21.840 -17.663  -0.650  0.00  0.00    -0.003 C 
ATOM      9  C   UNL d   1      22.293 -18.959  -0.202  0.00  0.00     0.002 C 
ATOM     10  C   UNL d   1      23.574 -19.291  -0.504  0.00  0.00     0.026 C 
ATOM     11  C   UNL d   1      24.365 -18.147  -1.136  0.00  0.00     0.021 C 
ATOM     12  N   UNL d   1      24.722 -17.571  -2.266  0.00  0.00    -0.381 N 
ATOM     13  C   UNL d   1      25.189 -16.116  -1.937  0.00  0.00     0.149 C 
ATOM     14  H   UNL d   1      24.204 -17.681  -3.138  0.00  0.00     0.160 HD
ENDROOT
BRANCH   3  15
ATOM     15  C   UNL d   1      29.178 -17.149  -0.721  0.00  0.00     0.270 C 
ATOM     16  O   UNL d   1      29.713 -18.036  -1.387  0.00  0.00    -0.266 OA
ATOM     17  N   UNL d   1      29.814 -16.489   0.300  0.00  0.00    -0.342 N 
ATOM     18  H   UNL d   1      29.280 -15.968   0.988  0.00  0.00     0.163 HD
BRANCH  17  19
ATOM     19  C   UNL d   1      31.257 -16.684   0.605  0.00  0.00     0.185 C 
BRANCH  19  20
ATOM     20  C   UNL d   1      32.129 -16.510  -0.662  0.00  0.00     0.045 C 
BRANCH  20  21
ATOM     21  C   UNL d   1      32.254 -15.060  -1.146  0.00  0.00     0.076 C 
BRANCH  21  22
ATOM     22  S   UNL d   1      30.865 -14.529  -2.190  0.00  0.00    -0.173 SA
ATOM     23  C   UNL d   1      29.878 -13.656  -0.930  0.00  0.00     0.089 C 
ENDBRANCH  21  22
ENDBRANCH  20  21
ENDBRANCH  19  20
BRANCH  19  24
ATOM     24  C   UNL d   1      31.683 -15.654   1.679  0.00  0.00     0.281 C 
ATOM     25  O   UNL d   1      32.814 -15.671   2.212  0.00  0.00    -0.263 OA
BRANCH  24  26
ATOM     26  O   UNL d   1      30.718 -14.745   1.964  0.00  0.00    -0.325 OA
ATOM     27  C   UNL d   1      30.512 -14.450   3.358  0.00  0.00     0.213 C 
ENDBRANCH  24  26
ENDBRANCH  19  24
ENDBRANCH  17  19
ENDBRANCH   3  15
BRANCH   1  28
ATOM     28  C   UNL d   1      26.350 -14.233  -3.324  0.00  0.00     0.024 A 
ATOM     29  C   UNL d   1      25.885 -13.073  -2.686  0.00  0.00     0.016 A 
ATOM     30  C   UNL d   1      25.791 -11.858  -3.377  0.00  0.00     0.001 A 
ATOM     31  C   UNL d   1      26.133 -11.792  -4.724  0.00  0.00     0.003 A 
ATOM     32  C   UNL d   1      26.514 -12.956  -5.395  0.00  0.00     0.037 A 
ATOM     33  C   UNL d   1      26.632 -14.181  -4.706  0.00  0.00     0.081 A 
BRANCH  33  34
ATOM     34  O   UNL d   1      27.163 -15.200  -5.458  0.00  0.00    -0.351 OA
BRANCH  34  35
ATOM     35  C   UNL d   1      28.553 -15.124  -5.775  0.00  0.00     0.171 C 
ATOM     36  C   UNL d   1      29.278 -16.193  -4.977  0.00  0.00     0.034 C 
ENDBRANCH  34  35
ENDBRANCH  33  34
ENDBRANCH   1  28
TORSDOF 10
ENDMDL
MODEL 7
REMARK VINA RESULT:    -7.613      3.463      7.947
REMARK INTER + INTRA:         -13.596
REMARK INTER:                 -10.596
REMARK INTRA:                  -3.000
REMARK CONF_INDEPENDENT:        2.983
REMARK UNBOUND:                -3.000
REMARK  10 active torsions:
REMARK  status: ('A' for Active; 'I' for Inactive)
REMARK    1  A    between atoms: C_2  and  O_3 
REMARK    2  A    between atoms: O_3  and  C_4 
REMARK    3  A    between atoms: C_9  and  C_10 
REMARK    4  A    between atoms: C_12  and  C_13 
REMARK       I    between atoms: C_13  and  N_15 
REMARK    5  A    between atoms: N_15  and  C_16 
REMARK    6  A    between atoms: C_16  and  C_17 
REMARK    7  A    between atoms: C_16  and  C_21 
REMARK    8  A    between atoms: C_17  and  C_18 
REMARK    9  A    between atoms: C_18  and  S_19 
REMARK   10  A    between atoms: C_21  and  O_23 
ROOT
ATOM      1  C   UNL d   1      25.722 -15.990  -1.416  0.00  0.00     0.072 C 
ATOM      2  N   UNL d   1      26.017 -16.066  -2.677  0.00  0.00    -0.245 NA
ATOM      3  C   UNL d   1      26.829 -15.089  -3.209  0.00  0.00     0.122 C 
ATOM      4  C   UNL d   1      27.080 -13.916  -2.577  0.00  0.00     0.025 C 
ATOM      5  C   UNL d   1      26.474 -13.644  -1.215  0.00  0.00     0.039 C 
ATOM      6  C   UNL d   1      26.999 -12.807  -0.288  0.00  0.00     0.052 C 
ATOM      7  C   UNL d   1      26.649 -12.658   1.215  0.00  0.00    -0.008 C 
ATOM      8  C   UNL d   1      27.658 -12.282   2.044  0.00  0.00    -0.003 C 
ATOM      9  C   UNL d   1      28.901 -11.917   1.408  0.00  0.00     0.002 C 
ATOM     10  C   UNL d   1      29.276 -12.663   0.336  0.00  0.00     0.026 C 
ATOM     11  C   UNL d   1      28.213 -13.669  -0.104  0.00  0.00     0.021 C 
ATOM     12  N   UNL d   1      27.766 -14.902   0.030  0.00  0.00    -0.381 N 
ATOM     13  C   UNL d   1      26.289 -14.934  -0.477  0.00  0.00     0.149 C 
ATOM     14  H   UNL d   1      27.965 -15.483   0.844  0.00  0.00     0.160 HD
ENDROOT
BRANCH   3  15
ATOM     15  C   UNL d   1      27.219 -15.285  -4.657  0.00  0.00     0.270 C 
ATOM     16  O   UNL d   1      26.332 -15.469  -5.490  0.00  0.00    -0.266 OA
ATOM     17  N   UNL d   1      28.551 -15.209  -4.982  0.00  0.00    -0.342 N 
ATOM     18  H   UNL d   1      29.262 -15.325  -4.269  0.00  0.00     0.163 HD
BRANCH  17  19
ATOM     19  C   UNL d   1      29.033 -15.200  -6.390  0.00  0.00     0.185 C 
BRANCH  19  20
ATOM     20  C   UNL d   1      29.362 -13.763  -6.863  0.00  0.00     0.045 C 
BRANCH  20  21
ATOM     21  C   UNL d   1      28.154 -12.819  -6.896  0.00  0.00     0.076 C 
BRANCH  21  22
ATOM     22  S   UNL d   1      27.945 -11.866  -5.364  0.00  0.00    -0.173 SA
ATOM     23  C   UNL d   1      26.130 -11.966  -5.211  0.00  0.00     0.089 C 
ENDBRANCH  21  22
ENDBRANCH  20  21
ENDBRANCH  19  20
BRANCH  19  24
ATOM     24  C   UNL d   1      30.298 -16.086  -6.488  0.00  0.00     0.281 C 
ATOM     25  O   UNL d   1      30.911 -16.262  -7.565  0.00  0.00    -0.263 OA
BRANCH  24  26
ATOM     26  O   UNL d   1      30.667 -16.630  -5.303  0.00  0.00    -0.325 OA
ATOM     27  C   UNL d   1      30.405 -18.037  -5.138  0.00  0.00     0.213 C 
ENDBRANCH  24  26
ENDBRANCH  19  24
ENDBRANCH  17  19
ENDBRANCH   3  15
BRANCH   1  28
ATOM     28  C   UNL d   1      24.577 -16.850  -0.938  0.00  0.00     0.024 A 
ATOM     29  C   UNL d   1      23.285 -16.325  -1.096  0.00  0.00     0.016 A 
ATOM     30  C   UNL d   1      22.155 -17.067  -0.727  0.00  0.00     0.001 A 
ATOM     31  C   UNL d   1      22.301 -18.332  -0.167  0.00  0.00     0.003 A 
ATOM     32  C   UNL d   1      23.582 -18.832   0.078  0.00  0.00     0.037 A 
ATOM     33  C   UNL d   1      24.728 -18.105  -0.307  0.00  0.00     0.081 A 
BRANCH  33  34
ATOM     34  O   UNL d   1      25.907 -18.787  -0.145  0.00  0.00    -0.351 OA
BRANCH  34  35
ATOM     35  C   UNL d   1      26.892 -18.200   0.707  0.00  0.00     0.171 C 
ATOM     36  C   UNL d   1      28.093 -17.830  -0.145  0.00  0.00     0.034 C 
ENDBRANCH  34  35
ENDBRANCH  33  34
ENDBRANCH   1  28
TORSDOF 10
ENDMDL
MODEL 8
REMARK VINA RESULT:    -7.254      3.336      6.849
REMARK INTER + INTRA:         -13.679
REMARK INTER:                 -10.237
REMARK INTRA:                  -3.442
REMARK CONF_INDEPENDENT:        2.983
REMARK UNBOUND:                -3.442
REMARK  10 active torsions:
REMARK  status: ('A' for Active; 'I' for Inactive)
REMARK    1  A    between atoms: C_2  and  O_3 
REMARK    2  A    between atoms: O_3  and  C_4 
REMARK    3  A    between atoms: C_9  and  C_10 
REMARK    4  A    between atoms: C_12  and  C_13 
REMARK       I    between atoms: C_13  and  N_15 
REMARK    5  A    between atoms: N_15  and  C_16 
REMARK    6  A    between atoms: C_16  and  C_17 
REMARK    7  A    between atoms: C_16  and  C_21 
REMARK    8  A    between atoms: C_17  and  C_18 
REMARK    9  A    between atoms: C_18  and  S_19 
REMARK   10  A    between atoms: C_21  and  O_23 
ROOT
ATOM      1  C   UNL d   1      26.605 -15.389  -2.823  0.00  0.00     0.072 C 
ATOM      2  N   UNL d   1      27.812 -15.768  -2.533  0.00  0.00    -0.245 NA
ATOM      3  C   UNL d   1      27.974 -16.673  -1.507  0.00  0.00     0.122 C 
ATOM      4  C   UNL d   1      26.997 -16.949  -0.608  0.00  0.00     0.025 C 
ATOM      5  C   UNL d   1      25.649 -16.266  -0.719  0.00  0.00     0.039 C 
ATOM      6  C   UNL d   1      24.484 -16.773  -0.250  0.00  0.00     0.052 C 
ATOM      7  C   UNL d   1      23.028 -16.327  -0.542  0.00  0.00    -0.008 C 
ATOM      8  C   UNL d   1      22.075 -17.295  -0.519  0.00  0.00    -0.003 C 
ATOM      9  C   UNL d   1      22.505 -18.600  -0.077  0.00  0.00     0.002 C 
ATOM     10  C   UNL d   1      23.735 -19.004  -0.486  0.00  0.00     0.026 C 
ATOM     11  C   UNL d   1      24.517 -17.917  -1.221  0.00  0.00     0.021 C 
ATOM     12  N   UNL d   1      24.795 -17.387  -2.396  0.00  0.00    -0.381 N 
ATOM     13  C   UNL d   1      25.359 -15.951  -2.153  0.00  0.00     0.149 C 
ATOM     14  H   UNL d   1      24.192 -17.492  -3.212  0.00  0.00     0.160 HD
ENDROOT
BRANCH   3  15
ATOM     15  C   UNL d   1      29.390 -17.154  -1.280  0.00  0.00     0.270 C 
ATOM     16  O   UNL d   1      29.729 -17.480  -0.143  0.00  0.00    -0.266 OA
ATOM     17  N   UNL d   1      30.224 -17.240  -2.367  0.00  0.00    -0.342 N 
ATOM     18  H   UNL d   1      30.017 -16.727  -3.217  0.00  0.00     0.163 HD
BRANCH  17  19
ATOM     19  C   UNL d   1      31.570 -17.870  -2.297  0.00  0.00     0.185 C 
BRANCH  19  20
ATOM     20  C   UNL d   1      31.525 -19.346  -2.762  0.00  0.00     0.045 C 
BRANCH  20  21
ATOM     21  C   UNL d   1      31.721 -19.536  -4.272  0.00  0.00     0.076 C 
BRANCH  21  22
ATOM     22  S   UNL d   1      30.404 -18.779  -5.268  0.00  0.00    -0.173 SA
ATOM     23  C   UNL d   1      30.906 -19.384  -6.913  0.00  0.00     0.089 C 
ENDBRANCH  21  22
ENDBRANCH  20  21
ENDBRANCH  19  20
BRANCH  19  24
ATOM     24  C   UNL d   1      32.542 -17.068  -3.194  0.00  0.00     0.281 C 
ATOM     25  O   UNL d   1      33.784 -17.208  -3.129  0.00  0.00    -0.263 OA
BRANCH  24  26
ATOM     26  O   UNL d   1      31.914 -16.222  -4.046  0.00  0.00    -0.325 OA
ATOM     27  C   UNL d   1      32.017 -14.818  -3.743  0.00  0.00     0.213 C 
ENDBRANCH  24  26
ENDBRANCH  19  24
ENDBRANCH  17  19
ENDBRANCH   3  15
BRANCH   1  28
ATOM     28  C   UNL d   1      26.475 -14.163  -3.695  0.00  0.00     0.024 A 
ATOM     29  C   UNL d   1      25.912 -13.023  -3.099  0.00  0.00     0.016 A 
ATOM     30  C   UNL d   1      25.792 -11.823  -3.812  0.00  0.00     0.001 A 
ATOM     31  C   UNL d   1      26.206 -11.752  -5.138  0.00  0.00     0.003 A 
ATOM     32  C   UNL d   1      26.687 -12.901  -5.770  0.00  0.00     0.037 A 
ATOM     33  C   UNL d   1      26.832 -14.110  -5.060  0.00  0.00     0.081 A 
BRANCH  33  34
ATOM     34  O   UNL d   1      27.459 -15.106  -5.766  0.00  0.00    -0.351 OA
BRANCH  34  35
ATOM     35  C   UNL d   1      28.769 -15.485  -5.342  0.00  0.00     0.171 C 
ATOM     36  C   UNL d   1      29.669 -15.523  -6.564  0.00  0.00     0.034 C 
ENDBRANCH  34  35
ENDBRANCH  33  34
ENDBRANCH   1  28
TORSDOF 10
ENDMDL
MODEL 9
REMARK VINA RESULT:    -7.000      3.531      7.968
REMARK INTER + INTRA:         -13.642
REMARK INTER:                  -9.983
REMARK INTRA:                  -3.659
REMARK CONF_INDEPENDENT:        2.983
REMARK UNBOUND:                -3.659
REMARK  10 active torsions:
REMARK  status: ('A' for Active; 'I' for Inactive)
REMARK    1  A    between atoms: C_2  and  O_3 
REMARK    2  A    between atoms: O_3  and  C_4 
REMARK    3  A    between atoms: C_9  and  C_10 
REMARK    4  A    between atoms: C_12  and  C_13 
REMARK       I    between atoms: C_13  and  N_15 
REMARK    5  A    between atoms: N_15  and  C_16 
REMARK    6  A    between atoms: C_16  and  C_17 
REMARK    7  A    between atoms: C_16  and  C_21 
REMARK    8  A    between atoms: C_17  and  C_18 
REMARK    9  A    between atoms: C_18  and  S_19 
REMARK   10  A    between atoms: C_21  and  O_23 
ROOT
ATOM      1  C   UNL d   1      26.941 -15.428  -0.454  0.00  0.00     0.072 C 
ATOM      2  N   UNL d   1      27.365 -14.907  -1.565  0.00  0.00    -0.245 NA
ATOM      3  C   UNL d   1      28.140 -13.771  -1.490  0.00  0.00     0.122 C 
ATOM      4  C   UNL d   1      28.228 -13.012  -0.369  0.00  0.00     0.025 C 
ATOM      5  C   UNL d   1      27.471 -13.415   0.880  0.00  0.00     0.039 C 
ATOM      6  C   UNL d   1      27.829 -13.082   2.143  0.00  0.00     0.052 C 
ATOM      7  C   UNL d   1      27.321 -13.652   3.493  0.00  0.00    -0.008 C 
ATOM      8  C   UNL d   1      28.208 -13.669   4.522  0.00  0.00    -0.003 C 
ATOM      9  C   UNL d   1      29.472 -13.016   4.283  0.00  0.00     0.002 C 
ATOM     10  C   UNL d   1      30.013 -13.174   3.047  0.00  0.00     0.026 C 
ATOM     11  C   UNL d   1      29.087 -13.896   2.069  0.00  0.00     0.021 C 
ATOM     12  N   UNL d   1      28.734 -15.065   1.573  0.00  0.00    -0.381 N 
ATOM     13  C   UNL d   1      27.322 -14.904   0.924  0.00  0.00     0.149 C 
ATOM     14  H   UNL d   1      28.900 -15.950   2.054  0.00  0.00     0.160 HD
ENDROOT
BRANCH   3  15
ATOM     15  C   UNL d   1      28.687 -13.268  -2.807  0.00  0.00     0.270 C 
ATOM     16  O   UNL d   1      29.305 -12.203  -2.824  0.00  0.00    -0.266 OA
ATOM     17  N   UNL d   1      28.501 -14.046  -3.923  0.00  0.00    -0.342 N 
ATOM     18  H   UNL d   1      27.781 -14.759  -3.938  0.00  0.00     0.163 HD
BRANCH  17  19
ATOM     19  C   UNL d   1      29.151 -13.746  -5.227  0.00  0.00     0.185 C 
BRANCH  19  20
ATOM     20  C   UNL d   1      30.613 -14.253  -5.257  0.00  0.00     0.045 C 
BRANCH  20  21
ATOM     21  C   UNL d   1      30.954 -15.258  -4.150  0.00  0.00     0.076 C 
BRANCH  21  22
ATOM     22  S   UNL d   1      29.933 -16.759  -4.203  0.00  0.00    -0.173 SA
ATOM     23  C   UNL d   1      29.644 -16.972  -2.415  0.00  0.00     0.089 C 
ENDBRANCH  21  22
ENDBRANCH  20  21
ENDBRANCH  19  20
BRANCH  19  24
ATOM     24  C   UNL d   1      28.338 -14.424  -6.355  0.00  0.00     0.281 C 
ATOM     25  O   UNL d   1      27.384 -15.200  -6.121  0.00  0.00    -0.263 OA
BRANCH  24  26
ATOM     26  O   UNL d   1      28.758 -14.085  -7.599  0.00  0.00    -0.325 OA
ATOM     27  C   UNL d   1      28.782 -12.678  -7.902  0.00  0.00     0.213 C 
ENDBRANCH  24  26
ENDBRANCH  19  24
ENDBRANCH  17  19
ENDBRANCH   3  15
BRANCH   1  28
ATOM     28  C   UNL d   1      25.831 -16.445  -0.567  0.00  0.00     0.024 A 
ATOM     29  C   UNL d   1      25.947 -17.595   0.229  0.00  0.00     0.016 A 
ATOM     30  C   UNL d   1      24.946 -18.575   0.230  0.00  0.00     0.001 A 
ATOM     31  C   UNL d   1      23.828 -18.433  -0.586  0.00  0.00     0.003 A 
ATOM     32  C   UNL d   1      23.740 -17.338  -1.447  0.00  0.00     0.037 A 
ATOM     33  C   UNL d   1      24.731 -16.334  -1.445  0.00  0.00     0.081 A 
BRANCH  33  34
ATOM     34  O   UNL d   1      24.433 -15.248  -2.228  0.00  0.00    -0.351 OA
BRANCH  34  35
ATOM     35  C   UNL d   1      25.207 -15.063  -3.413  0.00  0.00     0.171 C 
ATOM     36  C   UNL d   1      25.073 -13.612  -3.843  0.00  0.00     0.034 C 
ENDBRANCH  34  35
ENDBRANCH  33  34
ENDBRANCH   1  28
TORSDOF 10
ENDMDL
