MODEL 1
REMARK VINA RESULT:   -10.435      0.000      0.000
REMARK INTER + INTRA:         -15.246
REMARK INTER:                 -13.120
REMARK INTRA:                  -2.125
REMARK CONF_INDEPENDENT:        2.685
REMARK UNBOUND:                -2.125
REMARK  9 active torsions:
REMARK  status: ('A' for Active; 'I' for Inactive)
REMARK    1  A    between atoms: C_2  and  O_3 
REMARK    2  A    between atoms: O_3  and  C_4 
REMARK    3  A    between atoms: C_4  and  C_6 
REMARK    4  A    between atoms: C_9  and  N_10 
REMARK    5  A    between atoms: N_13  and  C_14 
REMARK    6  A    between atoms: C_18  and  N_19 
REMARK    7  A    between atoms: N_19  and  C_20 
REMARK    8  A    between atoms: C_20  and  N_22 
REMARK       I    between atoms: N_22  and  C_23 
REMARK    9  A    between atoms: C_23  and  C_25 
ROOT
ATOM      1  C   UNL d   1      22.869 -18.042  -0.904  0.00  0.00     0.041 A 
ATOM      2  C   UNL d   1      23.609 -18.918  -0.145  0.00  0.00     0.020 A 
ATOM      3  C   UNL d   1      24.932 -18.575   0.230  0.00  0.00     0.033 A 
ATOM      4  C   UNL d   1      25.589 -17.363  -0.162  0.00  0.00     0.057 A 
ATOM      5  C   UNL d   1      24.804 -16.445  -0.932  0.00  0.00     0.062 A 
ATOM      6  C   UNL d   1      23.505 -16.874  -1.285  0.00  0.00     0.049 A 
ENDROOT
BRANCH   5   7
ATOM      7  N   UNL d   1      25.270 -15.120  -1.370  0.00  0.00    -0.331 N 
ATOM      8  H   UNL d   1      25.342 -14.458  -0.621  0.00  0.00     0.168 HD
BRANCH   7   9
ATOM      9  C   UNL d   1      25.540 -14.673  -2.705  0.00  0.00     0.179 C 
ATOM     10  S   UNL d   1      24.467 -13.908  -3.758  0.00  0.00    -0.040 SA
BRANCH   9  11
ATOM     11  N   UNL d   1      26.851 -14.918  -3.166  0.00  0.00    -0.299 N 
ATOM     12  C   UNL d   1      27.134 -15.329  -4.491  0.00  0.00     0.257 C 
ATOM     13  O   UNL d   1      26.341 -15.575  -5.396  0.00  0.00    -0.267 OA
ATOM     14  H   UNL d   1      27.643 -14.744  -2.567  0.00  0.00     0.171 HD
BRANCH  12  15
ATOM     15  C   UNL d   1      28.504 -15.576  -4.919  0.00  0.00     0.033 A 
ATOM     16  C   UNL d   1      28.887 -15.110  -6.192  0.00  0.00     0.017 A 
ATOM     17  C   UNL d   1      30.078 -15.547  -6.758  0.00  0.00     0.002 A 
ATOM     18  C   UNL d   1      30.902 -16.403  -6.029  0.00  0.00     0.019 A 
ATOM     19  C   UNL d   1      30.492 -16.881  -4.781  0.00  0.00     0.011 A 
ATOM     20 BR   UNL d   1      31.557 -18.123  -3.840  0.00  0.00    -0.051 Br
ATOM     21  C   UNL d   1      29.281 -16.490  -4.224  0.00  0.00     0.036 A 
ENDBRANCH  12  15
ENDBRANCH   9  11
ENDBRANCH   7   9
ENDBRANCH   5   7
BRANCH   4  22
ATOM     22  N   UNL d   1      26.929 -17.187   0.184  0.00  0.00    -0.376 N 
ATOM     23  C   UNL d   1      27.405 -16.173   1.125  0.00  0.00     0.150 C 
ATOM     24  C   UNL d   1      28.516 -15.347   0.421  0.00  0.00     0.254 C 
ATOM     25  N   UNL d   1      29.663 -16.238  -0.126  0.00  0.00    -0.068 N 
ATOM     26  C   UNL d   1      29.101 -17.454  -0.923  0.00  0.00     0.254 C 
ATOM     27  H   UNL d   1      30.171 -16.609   0.688  0.00  0.00     0.280 HD
ATOM     28  C   UNL d   1      27.971 -18.183  -0.145  0.00  0.00     0.150 C 
BRANCH  25  29
ATOM     29  C   UNL d   1      30.655 -15.408  -0.936  0.00  0.00     0.230 C 
ATOM     30  C   UNL d   1      30.038 -14.116  -1.449  0.00  0.00     0.034 C 
ENDBRANCH  25  29
ENDBRANCH   4  22
BRANCH   1  31
ATOM     31  C   UNL d   1      21.394 -18.181  -1.148  0.00  0.00     0.293 C 
ATOM     32  O   UNL d   1      20.685 -17.181  -1.270  0.00  0.00    -0.259 OA
BRANCH  31  33
ATOM     33  O   UNL d   1      20.956 -19.471  -1.260  0.00  0.00    -0.318 OA
BRANCH  33  34
ATOM     34  C   UNL d   1      19.672 -19.733  -0.638  0.00  0.00     0.174 C 
ATOM     35  C   UNL d   1      19.789 -19.816   0.881  0.00  0.00     0.034 C 
ENDBRANCH  33  34
ENDBRANCH  31  33
ENDBRANCH   1  31
TORSDOF 9
ENDMDL
MODEL 2
REMARK VINA RESULT:    -9.911      1.717      1.986
REMARK INTER + INTRA:         -14.872
REMARK INTER:                 -12.596
REMARK INTRA:                  -2.276
REMARK CONF_INDEPENDENT:        2.685
REMARK UNBOUND:                -2.276
REMARK  9 active torsions:
REMARK  status: ('A' for Active; 'I' for Inactive)
REMARK    1  A    between atoms: C_2  and  O_3 
REMARK    2  A    between atoms: O_3  and  C_4 
REMARK    3  A    between atoms: C_4  and  C_6 
REMARK    4  A    between atoms: C_9  and  N_10 
REMARK    5  A    between atoms: N_13  and  C_14 
REMARK    6  A    between atoms: C_18  and  N_19 
REMARK    7  A    between atoms: N_19  and  C_20 
REMARK    8  A    between atoms: C_20  and  N_22 
REMARK       I    between atoms: N_22  and  C_23 
REMARK    9  A    between atoms: C_23  and  C_25 
ROOT
ATOM      1  C   UNL d   1      22.843 -18.239  -0.829  0.00  0.00     0.041 A 
ATOM      2  C   UNL d   1      23.391 -18.572   0.388  0.00  0.00     0.020 A 
ATOM      3  C   UNL d   1      24.722 -18.185   0.685  0.00  0.00     0.033 A 
ATOM      4  C   UNL d   1      25.576 -17.482  -0.226  0.00  0.00     0.057 A 
ATOM      5  C   UNL d   1      24.991 -17.118  -1.481  0.00  0.00     0.062 A 
ATOM      6  C   UNL d   1      23.669 -17.564  -1.709  0.00  0.00     0.049 A 
ENDROOT
BRANCH   5   7
ATOM      7  N   UNL d   1      25.676 -16.334  -2.520  0.00  0.00    -0.331 N 
ATOM      8  H   UNL d   1      25.636 -16.759  -3.427  0.00  0.00     0.168 HD
BRANCH   7   9
ATOM      9  C   UNL d   1      26.431 -15.125  -2.364  0.00  0.00     0.179 C 
ATOM     10  S   UNL d   1      26.264 -13.973  -1.145  0.00  0.00    -0.040 SA
BRANCH   9  11
ATOM     11  N   UNL d   1      27.409 -14.896  -3.355  0.00  0.00    -0.299 N 
ATOM     12  C   UNL d   1      27.201 -15.200  -4.723  0.00  0.00     0.257 C 
ATOM     13  O   UNL d   1      26.220 -15.723  -5.244  0.00  0.00    -0.267 OA
ATOM     14  H   UNL d   1      28.279 -14.446  -3.119  0.00  0.00     0.171 HD
BRANCH  12  15
ATOM     15  C   UNL d   1      28.244 -14.952  -5.708  0.00  0.00     0.033 A 
ATOM     16  C   UNL d   1      29.435 -15.697  -5.603  0.00  0.00     0.017 A 
ATOM     17  C   UNL d   1      30.553 -15.318  -6.334  0.00  0.00     0.002 A 
ATOM     18  C   UNL d   1      30.461 -14.232  -7.204  0.00  0.00     0.019 A 
ATOM     19  C   UNL d   1      29.281 -13.485  -7.272  0.00  0.00     0.011 A 
ATOM     20 BR   UNL d   1      29.187 -11.952  -8.369  0.00  0.00    -0.051 Br
ATOM     21  C   UNL d   1      28.170 -13.824  -6.510  0.00  0.00     0.036 A 
ENDBRANCH  12  15
ENDBRANCH   9  11
ENDBRANCH   7   9
ENDBRANCH   5   7
BRANCH   4  22
ATOM     22  N   UNL d   1      26.901 -17.249   0.145  0.00  0.00    -0.376 N 
ATOM     23  C   UNL d   1      27.318 -16.203   1.078  0.00  0.00     0.150 C 
ATOM     24  C   UNL d   1      28.411 -15.346   0.384  0.00  0.00     0.254 C 
ATOM     25  N   UNL d   1      29.603 -16.201  -0.123  0.00  0.00    -0.068 N 
ATOM     26  C   UNL d   1      29.105 -17.450  -0.911  0.00  0.00     0.254 C 
ATOM     27  H   UNL d   1      30.107 -16.539   0.707  0.00  0.00     0.280 HD
ATOM     28  C   UNL d   1      27.987 -18.209  -0.145  0.00  0.00     0.150 C 
BRANCH  25  29
ATOM     29  C   UNL d   1      30.580 -15.347  -0.927  0.00  0.00     0.230 C 
ATOM     30  C   UNL d   1      30.389 -15.513  -2.427  0.00  0.00     0.034 C 
ENDBRANCH  25  29
ENDBRANCH   4  22
BRANCH   1  31
ATOM     31  C   UNL d   1      21.384 -18.371  -1.157  0.00  0.00     0.293 C 
ATOM     32  O   UNL d   1      20.676 -17.370  -1.269  0.00  0.00    -0.259 OA
BRANCH  31  33
ATOM     33  O   UNL d   1      20.959 -19.656  -1.352  0.00  0.00    -0.318 OA
BRANCH  33  34
ATOM     34  C   UNL d   1      19.842 -20.061  -0.520  0.00  0.00     0.174 C 
ATOM     35  C   UNL d   1      20.108 -19.774   0.956  0.00  0.00     0.034 C 
ENDBRANCH  33  34
ENDBRANCH  31  33
ENDBRANCH   1  31
TORSDOF 9
ENDMDL
MODEL 3
REMARK VINA RESULT:    -9.648      1.369      1.884
REMARK INTER + INTRA:         -13.743
REMARK INTER:                 -12.333
REMARK INTRA:                  -1.411
REMARK CONF_INDEPENDENT:        2.685
REMARK UNBOUND:                -1.411
REMARK  9 active torsions:
REMARK  status: ('A' for Active; 'I' for Inactive)
REMARK    1  A    between atoms: C_2  and  O_3 
REMARK    2  A    between atoms: O_3  and  C_4 
REMARK    3  A    between atoms: C_4  and  C_6 
REMARK    4  A    between atoms: C_9  and  N_10 
REMARK    5  A    between atoms: N_13  and  C_14 
REMARK    6  A    between atoms: C_18  and  N_19 
REMARK    7  A    between atoms: N_19  and  C_20 
REMARK    8  A    between atoms: C_20  and  N_22 
REMARK       I    between atoms: N_22  and  C_23 
REMARK    9  A    between atoms: C_23  and  C_25 
ROOT
ATOM      1  C   UNL d   1      23.932 -17.547  -0.645  0.00  0.00     0.041 A 
ATOM      2  C   UNL d   1      24.943 -18.277  -0.064  0.00  0.00     0.020 A 
ATOM      3  C   UNL d   1      26.267 -17.773  -0.078  0.00  0.00     0.033 A 
ATOM      4  C   UNL d   1      26.650 -16.539  -0.699  0.00  0.00     0.057 A 
ATOM      5  C   UNL d   1      25.589 -15.773  -1.280  0.00  0.00     0.062 A 
ATOM      6  C   UNL d   1      24.303 -16.358  -1.247  0.00  0.00     0.049 A 
ENDROOT
BRANCH   5   7
ATOM      7  N   UNL d   1      25.764 -14.450  -1.900  0.00  0.00    -0.331 N 
ATOM      8  H   UNL d   1      25.819 -13.704  -1.232  0.00  0.00     0.168 HD
BRANCH   7   9
ATOM      9  C   UNL d   1      25.780 -14.121  -3.295  0.00  0.00     0.179 C 
ATOM     10  S   UNL d   1      24.459 -13.699  -4.255  0.00  0.00    -0.040 SA
BRANCH   9  11
ATOM     11  N   UNL d   1      27.050 -14.169  -3.908  0.00  0.00    -0.299 N 
ATOM     12  C   UNL d   1      27.296 -14.881  -5.108  0.00  0.00     0.257 C 
ATOM     13  O   UNL d   1      26.514 -15.573  -5.755  0.00  0.00    -0.267 OA
ATOM     14  H   UNL d   1      27.818 -13.637  -3.532  0.00  0.00     0.171 HD
BRANCH  12  15
ATOM     15  C   UNL d   1      28.626 -14.907  -5.699  0.00  0.00     0.033 A 
ATOM     16  C   UNL d   1      29.023 -13.795  -6.469  0.00  0.00     0.017 A 
ATOM     17  C   UNL d   1      30.153 -13.878  -7.271  0.00  0.00     0.002 A 
ATOM     18  C   UNL d   1      30.909 -15.049  -7.261  0.00  0.00     0.019 A 
ATOM     19  C   UNL d   1      30.483 -16.154  -6.517  0.00  0.00     0.011 A 
ATOM     20 BR   UNL d   1      31.447 -17.776  -6.584  0.00  0.00    -0.051 Br
ATOM     21  C   UNL d   1      29.328 -16.101  -5.747  0.00  0.00     0.036 A 
ENDBRANCH  12  15
ENDBRANCH   9  11
ENDBRANCH   7   9
ENDBRANCH   5   7
BRANCH   4  22
ATOM     22  N   UNL d   1      28.004 -16.202  -0.736  0.00  0.00    -0.376 N 
ATOM     23  C   UNL d   1      29.011 -16.943  -1.496  0.00  0.00     0.150 C 
ATOM     24  C   UNL d   1      30.160 -17.328  -0.525  0.00  0.00     0.254 C 
ATOM     25  N   UNL d   1      30.755 -16.097   0.210  0.00  0.00    -0.068 N 
ATOM     26  C   UNL d   1      29.629 -15.196   0.801  0.00  0.00     0.254 C 
ATOM     27  H   UNL d   1      31.260 -15.541  -0.492  0.00  0.00     0.280 HD
ATOM     28  C   UNL d   1      28.513 -14.906  -0.241  0.00  0.00     0.150 C 
BRANCH  25  29
ATOM     29  C   UNL d   1      31.774 -16.532   1.259  0.00  0.00     0.230 C 
ATOM     30  C   UNL d   1      32.096 -15.417   2.244  0.00  0.00     0.034 C 
ENDBRANCH  25  29
ENDBRANCH   4  22
BRANCH   1  31
ATOM     31  C   UNL d   1      22.472 -17.852  -0.475  0.00  0.00     0.293 C 
ATOM     32  O   UNL d   1      21.618 -17.069  -0.894  0.00  0.00    -0.259 OA
BRANCH  31  33
ATOM     33  O   UNL d   1      22.208 -19.052   0.123  0.00  0.00    -0.318 OA
BRANCH  33  34
ATOM     34  C   UNL d   1      20.924 -19.634  -0.221  0.00  0.00     0.174 C 
ATOM     35  C   UNL d   1      20.019 -19.759   1.002  0.00  0.00     0.034 C 
ENDBRANCH  33  34
ENDBRANCH  31  33
ENDBRANCH   1  31
TORSDOF 9
ENDMDL
MODEL 4
REMARK VINA RESULT:    -9.176      3.800      4.866
REMARK INTER + INTRA:         -13.713
REMARK INTER:                 -11.860
REMARK INTRA:                  -1.853
REMARK CONF_INDEPENDENT:        2.685
REMARK UNBOUND:                -1.853
REMARK  9 active torsions:
REMARK  status: ('A' for Active; 'I' for Inactive)
REMARK    1  A    between atoms: C_2  and  O_3 
REMARK    2  A    between atoms: O_3  and  C_4 
REMARK    3  A    between atoms: C_4  and  C_6 
REMARK    4  A    between atoms: C_9  and  N_10 
REMARK    5  A    between atoms: N_13  and  C_14 
REMARK    6  A    between atoms: C_18  and  N_19 
REMARK    7  A    between atoms: N_19  and  C_20 
REMARK    8  A    between atoms: C_20  and  N_22 
REMARK       I    between atoms: N_22  and  C_23 
REMARK    9  A    between atoms: C_23  and  C_25 
ROOT
ATOM      1  C   UNL d   1      23.672 -17.548  -1.022  0.00  0.00     0.041 A 
ATOM      2  C   UNL d   1      24.684 -18.261  -0.423  0.00  0.00     0.020 A 
ATOM      3  C   UNL d   1      25.997 -17.727  -0.397  0.00  0.00     0.033 A 
ATOM      4  C   UNL d   1      26.367 -16.477  -0.995  0.00  0.00     0.057 A 
ATOM      5  C   UNL d   1      25.303 -15.730  -1.596  0.00  0.00     0.062 A 
ATOM      6  C   UNL d   1      24.030 -16.345  -1.602  0.00  0.00     0.049 A 
ENDROOT
BRANCH   5   7
ATOM      7  N   UNL d   1      25.463 -14.397  -2.197  0.00  0.00    -0.331 N 
ATOM      8  H   UNL d   1      25.523 -13.661  -1.519  0.00  0.00     0.168 HD
BRANCH   7   9
ATOM      9  C   UNL d   1      25.459 -14.047  -3.588  0.00  0.00     0.179 C 
ATOM     10  S   UNL d   1      25.530 -15.101  -4.902  0.00  0.00    -0.040 SA
BRANCH   9  11
ATOM     11  N   UNL d   1      25.395 -12.663  -3.858  0.00  0.00    -0.299 N 
ATOM     12  C   UNL d   1      26.044 -11.694  -3.054  0.00  0.00     0.257 C 
ATOM     13  O   UNL d   1      26.692 -11.870  -2.026  0.00  0.00    -0.267 OA
ATOM     14  H   UNL d   1      24.924 -12.326  -4.682  0.00  0.00     0.171 HD
BRANCH  12  15
ATOM     15  C   UNL d   1      25.943 -10.276  -3.370  0.00  0.00     0.033 A 
ATOM     16  C   UNL d   1      26.395  -9.356  -2.403  0.00  0.00     0.017 A 
ATOM     17  C   UNL d   1      26.079  -8.010  -2.529  0.00  0.00     0.002 A 
ATOM     18  C   UNL d   1      25.358  -7.583  -3.644  0.00  0.00     0.019 A 
ATOM     19  C   UNL d   1      24.890  -8.514  -4.577  0.00  0.00     0.011 A 
ATOM     20 BR   UNL d   1      23.825  -7.951  -6.030  0.00  0.00    -0.051 Br
ATOM     21  C   UNL d   1      25.159  -9.869  -4.437  0.00  0.00     0.036 A 
ENDBRANCH  12  15
ENDBRANCH   9  11
ENDBRANCH   7   9
ENDBRANCH   5   7
BRANCH   4  22
ATOM     22  N   UNL d   1      27.713 -16.109  -0.994  0.00  0.00    -0.376 N 
ATOM     23  C   UNL d   1      28.722 -16.693  -1.877  0.00  0.00     0.150 C 
ATOM     24  C   UNL d   1      29.894 -17.206  -0.997  0.00  0.00     0.254 C 
ATOM     25  N   UNL d   1      30.476 -16.099  -0.079  0.00  0.00    -0.068 N 
ATOM     26  C   UNL d   1      29.342 -15.331   0.666  0.00  0.00     0.254 C 
ATOM     27  H   UNL d   1      30.958 -15.425  -0.687  0.00  0.00     0.280 HD
ATOM     28  C   UNL d   1      28.204 -14.900  -0.300  0.00  0.00     0.150 C 
BRANCH  25  29
ATOM     29  C   UNL d   1      31.521 -16.676   0.872  0.00  0.00     0.230 C 
ATOM     30  C   UNL d   1      31.909 -15.692   1.965  0.00  0.00     0.034 C 
ENDBRANCH  25  29
ENDBRANCH   4  22
BRANCH   1  31
ATOM     31  C   UNL d   1      22.216 -17.889  -0.893  0.00  0.00     0.293 C 
ATOM     32  O   UNL d   1      21.364 -16.999  -0.895  0.00  0.00    -0.259 OA
BRANCH  31  33
ATOM     33  O   UNL d   1      21.949 -19.227  -0.824  0.00  0.00    -0.318 OA
BRANCH  33  34
ATOM     34  C   UNL d   1      20.549 -19.577  -0.965  0.00  0.00     0.174 C 
ATOM     35  C   UNL d   1      19.808 -19.483   0.366  0.00  0.00     0.034 C 
ENDBRANCH  33  34
ENDBRANCH  31  33
ENDBRANCH   1  31
TORSDOF 9
ENDMDL
MODEL 5
REMARK VINA RESULT:    -9.061      3.329      4.268
REMARK INTER + INTRA:         -14.058
REMARK INTER:                 -11.746
REMARK INTRA:                  -2.312
REMARK CONF_INDEPENDENT:        2.685
REMARK UNBOUND:                -2.312
REMARK  9 active torsions:
REMARK  status: ('A' for Active; 'I' for Inactive)
REMARK    1  A    between atoms: C_2  and  O_3 
REMARK    2  A    between atoms: O_3  and  C_4 
REMARK    3  A    between atoms: C_4  and  C_6 
REMARK    4  A    between atoms: C_9  and  N_10 
REMARK    5  A    between atoms: N_13  and  C_14 
REMARK    6  A    between atoms: C_18  and  N_19 
REMARK    7  A    between atoms: N_19  and  C_20 
REMARK    8  A    between atoms: C_20  and  N_22 
REMARK       I    between atoms: N_22  and  C_23 
REMARK    9  A    between atoms: C_23  and  C_25 
ROOT
ATOM      1  C   UNL d   1      22.954 -17.872  -0.859  0.00  0.00     0.041 A 
ATOM      2  C   UNL d   1      23.651 -18.639   0.044  0.00  0.00     0.020 A 
ATOM      3  C   UNL d   1      24.965 -18.259   0.418  0.00  0.00     0.033 A 
ATOM      4  C   UNL d   1      25.653 -17.120  -0.113  0.00  0.00     0.057 A 
ATOM      5  C   UNL d   1      24.911 -16.311  -1.034  0.00  0.00     0.062 A 
ATOM      6  C   UNL d   1      23.620 -16.774  -1.374  0.00  0.00     0.049 A 
ENDROOT
BRANCH   5   7
ATOM      7  N   UNL d   1      25.412 -15.066  -1.634  0.00  0.00    -0.331 N 
ATOM      8  H   UNL d   1      25.650 -14.367  -0.956  0.00  0.00     0.168 HD
BRANCH   7   9
ATOM      9  C   UNL d   1      25.514 -14.731  -3.025  0.00  0.00     0.179 C 
ATOM     10  S   UNL d   1      25.532 -15.800  -4.329  0.00  0.00    -0.040 SA
BRANCH   9  11
ATOM     11  N   UNL d   1      25.616 -13.352  -3.304  0.00  0.00    -0.299 N 
ATOM     12  C   UNL d   1      26.313 -12.449  -2.465  0.00  0.00     0.257 C 
ATOM     13  O   UNL d   1      26.873 -12.681  -1.396  0.00  0.00    -0.267 OA
ATOM     14  H   UNL d   1      25.237 -12.975  -4.158  0.00  0.00     0.171 HD
BRANCH  12  15
ATOM     15  C   UNL d   1      26.385 -11.032  -2.791  0.00  0.00     0.033 A 
ATOM     16  C   UNL d   1      27.024 -10.178  -1.870  0.00  0.00     0.017 A 
ATOM     17  C   UNL d   1      26.886  -8.802  -1.993  0.00  0.00     0.002 A 
ATOM     18  C   UNL d   1      26.155  -8.285  -3.062  0.00  0.00     0.019 A 
ATOM     19  C   UNL d   1      25.501  -9.146  -3.948  0.00  0.00     0.011 A 
ATOM     20 BR   UNL d   1      24.425  -8.449  -5.333  0.00  0.00    -0.051 Br
ATOM     21  C   UNL d   1      25.591 -10.525  -3.809  0.00  0.00     0.036 A 
ENDBRANCH  12  15
ENDBRANCH   9  11
ENDBRANCH   7   9
ENDBRANCH   5   7
BRANCH   4  22
ATOM     22  N   UNL d   1      26.982 -16.910   0.257  0.00  0.00    -0.376 N 
ATOM     23  C   UNL d   1      27.405 -15.955   1.280  0.00  0.00     0.150 C 
ATOM     24  C   UNL d   1      28.478 -15.022   0.655  0.00  0.00     0.254 C 
ATOM     25  N   UNL d   1      29.669 -15.810   0.047  0.00  0.00    -0.068 N 
ATOM     26  C   UNL d   1      29.169 -16.982  -0.850  0.00  0.00     0.254 C 
ATOM     27  H   UNL d   1      30.190 -16.222   0.832  0.00  0.00     0.280 HD
ATOM     28  C   UNL d   1      28.071 -17.825  -0.143  0.00  0.00     0.150 C 
BRANCH  25  29
ATOM     29  C   UNL d   1      30.624 -14.872  -0.685  0.00  0.00     0.230 C 
ATOM     30  C   UNL d   1      29.885 -13.793  -1.463  0.00  0.00     0.034 C 
ENDBRANCH  25  29
ENDBRANCH   4  22
BRANCH   1  31
ATOM     31  C   UNL d   1      21.487 -18.029  -1.138  0.00  0.00     0.293 C 
ATOM     32  O   UNL d   1      20.766 -17.039  -1.270  0.00  0.00    -0.259 OA
BRANCH  31  33
ATOM     33  O   UNL d   1      21.070 -19.324  -1.270  0.00  0.00    -0.318 OA
BRANCH  33  34
ATOM     34  C   UNL d   1      19.868 -19.655  -0.527  0.00  0.00     0.174 C 
ATOM     35  C   UNL d   1      20.169 -20.587   0.643  0.00  0.00     0.034 C 
ENDBRANCH  33  34
ENDBRANCH  31  33
ENDBRANCH   1  31
TORSDOF 9
ENDMDL
MODEL 6
REMARK VINA RESULT:    -8.994      3.064      7.397
REMARK INTER + INTRA:         -13.148
REMARK INTER:                 -11.679
REMARK INTRA:                  -1.469
REMARK CONF_INDEPENDENT:        2.685
REMARK UNBOUND:                -1.469
REMARK  9 active torsions:
REMARK  status: ('A' for Active; 'I' for Inactive)
REMARK    1  A    between atoms: C_2  and  O_3 
REMARK    2  A    between atoms: O_3  and  C_4 
REMARK    3  A    between atoms: C_4  and  C_6 
REMARK    4  A    between atoms: C_9  and  N_10 
REMARK    5  A    between atoms: N_13  and  C_14 
REMARK    6  A    between atoms: C_18  and  N_19 
REMARK    7  A    between atoms: N_19  and  C_20 
REMARK    8  A    between atoms: C_20  and  N_22 
REMARK       I    between atoms: N_22  and  C_23 
REMARK    9  A    between atoms: C_23  and  C_25 
ROOT
ATOM      1  C   UNL d   1      30.950 -18.087  -5.431  0.00  0.00     0.041 A 
ATOM      2  C   UNL d   1      31.414 -18.868  -4.399  0.00  0.00     0.020 A 
ATOM      3  C   UNL d   1      31.129 -18.501  -3.060  0.00  0.00     0.033 A 
ATOM      4  C   UNL d   1      30.400 -17.324  -2.688  0.00  0.00     0.057 A 
ATOM      5  C   UNL d   1      29.898 -16.529  -3.769  0.00  0.00     0.062 A 
ATOM      6  C   UNL d   1      30.249 -16.950  -5.072  0.00  0.00     0.049 A 
ENDROOT
BRANCH   5   7
ATOM      7  N   UNL d   1      29.069 -15.326  -3.599  0.00  0.00    -0.331 N 
ATOM      8  H   UNL d   1      29.603 -14.503  -3.392  0.00  0.00     0.168 HD
BRANCH   7   9
ATOM      9  C   UNL d   1      27.639 -15.227  -3.615  0.00  0.00     0.179 C 
ATOM     10  S   UNL d   1      26.697 -14.302  -4.665  0.00  0.00    -0.040 SA
BRANCH   9  11
ATOM     11  N   UNL d   1      26.973 -15.989  -2.632  0.00  0.00    -0.299 N 
ATOM     12  C   UNL d   1      25.592 -15.841  -2.353  0.00  0.00     0.257 C 
ATOM     13  O   UNL d   1      24.797 -15.047  -2.848  0.00  0.00    -0.267 OA
ATOM     14  H   UNL d   1      27.461 -16.716  -2.134  0.00  0.00     0.171 HD
BRANCH  12  15
ATOM     15  C   UNL d   1      24.950 -16.647  -1.324  0.00  0.00     0.033 A 
ATOM     16  C   UNL d   1      25.768 -17.196  -0.316  0.00  0.00     0.017 A 
ATOM     17  C   UNL d   1      25.264 -18.181   0.522  0.00  0.00     0.002 A 
ATOM     18  C   UNL d   1      23.933 -18.575   0.385  0.00  0.00     0.019 A 
ATOM     19  C   UNL d   1      23.145 -18.043  -0.641  0.00  0.00     0.011 A 
ATOM     20 BR   UNL d   1      21.377 -18.652  -0.896  0.00  0.00    -0.051 Br
ATOM     21  C   UNL d   1      23.652 -17.092  -1.517  0.00  0.00     0.036 A 
ENDBRANCH  12  15
ENDBRANCH   9  11
ENDBRANCH   7   9
ENDBRANCH   5   7
BRANCH   4  22
ATOM     22  N   UNL d   1      30.274 -17.017  -1.333  0.00  0.00    -0.376 N 
ATOM     23  C   UNL d   1      29.116 -17.378  -0.516  0.00  0.00     0.150 C 
ATOM     24  C   UNL d   1      28.587 -16.088   0.168  0.00  0.00     0.254 C 
ATOM     25  N   UNL d   1      29.685 -15.355   0.983  0.00  0.00    -0.068 N 
ATOM     26  C   UNL d   1      30.996 -15.205   0.154  0.00  0.00     0.254 C 
ATOM     27  H   UNL d   1      29.899 -15.944   1.798  0.00  0.00     0.280 HD
ATOM     28  C   UNL d   1      31.412 -16.543  -0.518  0.00  0.00     0.150 C 
BRANCH  25  29
ATOM     29  C   UNL d   1      29.166 -14.021   1.514  0.00  0.00     0.230 C 
ATOM     30  C   UNL d   1      28.063 -14.203   2.544  0.00  0.00     0.034 C 
ENDBRANCH  25  29
ENDBRANCH   4  22
BRANCH   1  31
ATOM     31  C   UNL d   1      30.972 -18.503  -6.874  0.00  0.00     0.293 C 
ATOM     32  O   UNL d   1      31.485 -17.775  -7.725  0.00  0.00    -0.259 OA
BRANCH  31  33
ATOM     33  O   UNL d   1      30.430 -19.733  -7.119  0.00  0.00    -0.318 OA
BRANCH  33  34
ATOM     34  C   UNL d   1      31.350 -20.701  -7.686  0.00  0.00     0.174 C 
ATOM     35  C   UNL d   1      32.309 -21.250  -6.632  0.00  0.00     0.034 C 
ENDBRANCH  33  34
ENDBRANCH  31  33
ENDBRANCH   1  31
TORSDOF 9
ENDMDL
MODEL 7
REMARK VINA RESULT:    -8.963      2.731      3.184
REMARK INTER + INTRA:         -13.724
REMARK INTER:                 -11.648
REMARK INTRA:                  -2.075
REMARK CONF_INDEPENDENT:        2.685
REMARK UNBOUND:                -2.075
REMARK  9 active torsions:
REMARK  status: ('A' for Active; 'I' for Inactive)
REMARK    1  A    between atoms: C_2  and  O_3 
REMARK    2  A    between atoms: O_3  and  C_4 
REMARK    3  A    between atoms: C_4  and  C_6 
REMARK    4  A    between atoms: C_9  and  N_10 
REMARK    5  A    between atoms: N_13  and  C_14 
REMARK    6  A    between atoms: C_18  and  N_19 
REMARK    7  A    between atoms: N_19  and  C_20 
REMARK    8  A    between atoms: C_20  and  N_22 
REMARK       I    between atoms: N_22  and  C_23 
REMARK    9  A    between atoms: C_23  and  C_25 
ROOT
ATOM      1  C   UNL d   1      23.218 -17.969  -0.661  0.00  0.00     0.041 A 
ATOM      2  C   UNL d   1      23.863 -18.553   0.404  0.00  0.00     0.020 A 
ATOM      3  C   UNL d   1      25.203 -18.193   0.694  0.00  0.00     0.033 A 
ATOM      4  C   UNL d   1      25.970 -17.262  -0.081  0.00  0.00     0.057 A 
ATOM      5  C   UNL d   1      25.284 -16.640  -1.174  0.00  0.00     0.062 A 
ATOM      6  C   UNL d   1      23.960 -17.074  -1.411  0.00  0.00     0.049 A 
ENDROOT
BRANCH   5   7
ATOM      7  N   UNL d   1      25.871 -15.610  -2.043  0.00  0.00    -0.331 N 
ATOM      8  H   UNL d   1      26.107 -15.949  -2.956  0.00  0.00     0.168 HD
BRANCH   7   9
ATOM      9  C   UNL d   1      26.203 -14.255  -1.711  0.00  0.00     0.179 C 
ATOM     10  S   UNL d   1      26.286 -13.578  -0.169  0.00  0.00    -0.040 SA
BRANCH   9  11
ATOM     11  N   UNL d   1      26.480 -13.418  -2.812  0.00  0.00    -0.299 N 
ATOM     12  C   UNL d   1      26.090 -13.737  -4.136  0.00  0.00     0.257 C 
ATOM     13  O   UNL d   1      25.524 -14.750  -4.537  0.00  0.00    -0.267 OA
ATOM     14  H   UNL d   1      26.921 -12.522  -2.674  0.00  0.00     0.171 HD
BRANCH  12  15
ATOM     15  C   UNL d   1      26.405 -12.844  -5.241  0.00  0.00     0.033 A 
ATOM     16  C   UNL d   1      27.422 -13.238  -6.133  0.00  0.00     0.017 A 
ATOM     17  C   UNL d   1      27.947 -12.319  -7.032  0.00  0.00     0.002 A 
ATOM     18  C   UNL d   1      27.419 -11.030  -7.072  0.00  0.00     0.019 A 
ATOM     19  C   UNL d   1      26.432 -10.646  -6.159  0.00  0.00     0.011 A 
ATOM     20 BR   UNL d   1      25.790  -8.871  -6.141  0.00  0.00    -0.051 Br
ATOM     21  C   UNL d   1      25.932 -11.541  -5.222  0.00  0.00     0.036 A 
ENDBRANCH  12  15
ENDBRANCH   9  11
ENDBRANCH   7   9
ENDBRANCH   5   7
BRANCH   4  22
ATOM     22  N   UNL d   1      27.313 -17.069   0.244  0.00  0.00    -0.376 N 
ATOM     23  C   UNL d   1      27.784 -16.091   1.224  0.00  0.00     0.150 C 
ATOM     24  C   UNL d   1      28.858 -15.202   0.538  0.00  0.00     0.254 C 
ATOM     25  N   UNL d   1      30.014 -16.035  -0.076  0.00  0.00    -0.068 N 
ATOM     26  C   UNL d   1      29.465 -17.224  -0.920  0.00  0.00     0.254 C 
ATOM     27  H   UNL d   1      30.549 -16.432   0.707  0.00  0.00     0.280 HD
ATOM     28  C   UNL d   1      28.371 -18.020  -0.156  0.00  0.00     0.150 C 
BRANCH  25  29
ATOM     29  C   UNL d   1      30.967 -15.141  -0.865  0.00  0.00     0.230 C 
ATOM     30  C   UNL d   1      30.233 -14.035  -1.608  0.00  0.00     0.034 C 
ENDBRANCH  25  29
ENDBRANCH   4  22
BRANCH   1  31
ATOM     31  C   UNL d   1      21.742 -18.081  -0.912  0.00  0.00     0.293 C 
ATOM     32  O   UNL d   1      21.047 -17.068  -1.010  0.00  0.00    -0.259 OA
BRANCH  31  33
ATOM     33  O   UNL d   1      21.286 -19.361  -1.058  0.00  0.00    -0.318 OA
BRANCH  33  34
ATOM     34  C   UNL d   1      19.853 -19.519  -0.893  0.00  0.00     0.174 C 
ATOM     35  C   UNL d   1      19.513 -20.249   0.403  0.00  0.00     0.034 C 
ENDBRANCH  33  34
ENDBRANCH  31  33
ENDBRANCH   1  31
TORSDOF 9
ENDMDL
MODEL 8
REMARK VINA RESULT:    -8.806      4.894      7.488
REMARK INTER + INTRA:         -13.134
REMARK INTER:                 -11.491
REMARK INTRA:                  -1.644
REMARK CONF_INDEPENDENT:        2.685
REMARK UNBOUND:                -1.644
REMARK  9 active torsions:
REMARK  status: ('A' for Active; 'I' for Inactive)
REMARK    1  A    between atoms: C_2  and  O_3 
REMARK    2  A    between atoms: O_3  and  C_4 
REMARK    3  A    between atoms: C_4  and  C_6 
REMARK    4  A    between atoms: C_9  and  N_10 
REMARK    5  A    between atoms: N_13  and  C_14 
REMARK    6  A    between atoms: C_18  and  N_19 
REMARK    7  A    between atoms: N_19  and  C_20 
REMARK    8  A    between atoms: C_20  and  N_22 
REMARK       I    between atoms: N_22  and  C_23 
REMARK    9  A    between atoms: C_23  and  C_25 
ROOT
ATOM      1  C   UNL d   1      26.618  -9.517   2.133  0.00  0.00     0.041 A 
ATOM      2  C   UNL d   1      27.125 -10.087   3.277  0.00  0.00     0.020 A 
ATOM      3  C   UNL d   1      27.858 -11.297   3.190  0.00  0.00     0.033 A 
ATOM      4  C   UNL d   1      28.091 -12.009   1.968  0.00  0.00     0.057 A 
ATOM      5  C   UNL d   1      27.582 -11.396   0.778  0.00  0.00     0.062 A 
ATOM      6  C   UNL d   1      26.840 -10.206   0.954  0.00  0.00     0.049 A 
ENDROOT
BRANCH   5   7
ATOM      7  N   UNL d   1      27.777 -11.930  -0.578  0.00  0.00    -0.331 N 
ATOM      8  H   UNL d   1      28.658 -11.673  -0.982  0.00  0.00     0.168 HD
BRANCH   7   9
ATOM      9  C   UNL d   1      26.850 -12.675  -1.379  0.00  0.00     0.179 C 
ATOM     10  S   UNL d   1      26.343 -12.314  -2.947  0.00  0.00    -0.040 SA
BRANCH   9  11
ATOM     11  N   UNL d   1      26.314 -13.825  -0.763  0.00  0.00    -0.299 N 
ATOM     12  C   UNL d   1      25.896 -14.963  -1.496  0.00  0.00     0.257 C 
ATOM     13  O   UNL d   1      25.882 -15.120  -2.713  0.00  0.00    -0.267 OA
ATOM     14  H   UNL d   1      26.269 -13.892   0.241  0.00  0.00     0.171 HD
BRANCH  12  15
ATOM     15  C   UNL d   1      25.342 -16.125  -0.815  0.00  0.00     0.033 A 
ATOM     16  C   UNL d   1      26.243 -17.006  -0.184  0.00  0.00     0.017 A 
ATOM     17  C   UNL d   1      25.806 -18.254   0.239  0.00  0.00     0.002 A 
ATOM     18  C   UNL d   1      24.464 -18.595   0.077  0.00  0.00     0.019 A 
ATOM     19  C   UNL d   1      23.591 -17.723  -0.580  0.00  0.00     0.011 A 
ATOM     20 BR   UNL d   1      21.799 -18.226  -0.893  0.00  0.00    -0.051 Br
ATOM     21  C   UNL d   1      24.026 -16.490  -1.051  0.00  0.00     0.036 A 
ENDBRANCH  12  15
ENDBRANCH   9  11
ENDBRANCH   7   9
ENDBRANCH   5   7
BRANCH   4  22
ATOM     22  N   UNL d   1      28.739 -13.243   2.028  0.00  0.00    -0.376 N 
ATOM     23  C   UNL d   1      29.959 -13.491   2.795  0.00  0.00     0.150 C 
ATOM     24  C   UNL d   1      31.013 -14.110   1.837  0.00  0.00     0.254 C 
ATOM     25  N   UNL d   1      30.491 -15.384   1.122  0.00  0.00    -0.068 N 
ATOM     26  C   UNL d   1      29.071 -15.152   0.523  0.00  0.00     0.254 C 
ATOM     27  H   UNL d   1      30.409 -16.119   1.837  0.00  0.00     0.280 HD
ATOM     28  C   UNL d   1      28.110 -14.494   1.552  0.00  0.00     0.150 C 
BRANCH  25  29
ATOM     29  C   UNL d   1      31.496 -15.874   0.084  0.00  0.00     0.230 C 
ATOM     30  C   UNL d   1      30.827 -16.644  -1.044  0.00  0.00     0.034 C 
ENDBRANCH  25  29
ENDBRANCH   4  22
BRANCH   1  31
ATOM     31  C   UNL d   1      26.050  -8.128   2.068  0.00  0.00     0.293 C 
ATOM     32  O   UNL d   1      26.456  -7.251   2.831  0.00  0.00    -0.259 OA
BRANCH  31  33
ATOM     33  O   UNL d   1      25.114  -7.943   1.088  0.00  0.00    -0.318 OA
BRANCH  33  34
ATOM     34  C   UNL d   1      25.569  -7.165  -0.048  0.00  0.00     0.174 C 
ATOM     35  C   UNL d   1      25.648  -8.013  -1.315  0.00  0.00     0.034 C 
ENDBRANCH  33  34
ENDBRANCH  31  33
ENDBRANCH   1  31
TORSDOF 9
ENDMDL
MODEL 9
REMARK VINA RESULT:    -8.708      1.594      1.928
REMARK INTER + INTRA:         -13.561
REMARK INTER:                 -11.392
REMARK INTRA:                  -2.169
REMARK CONF_INDEPENDENT:        2.685
REMARK UNBOUND:                -2.169
REMARK  9 active torsions:
REMARK  status: ('A' for Active; 'I' for Inactive)
REMARK    1  A    between atoms: C_2  and  O_3 
REMARK    2  A    between atoms: O_3  and  C_4 
REMARK    3  A    between atoms: C_4  and  C_6 
REMARK    4  A    between atoms: C_9  and  N_10 
REMARK    5  A    between atoms: N_13  and  C_14 
REMARK    6  A    between atoms: C_18  and  N_19 
REMARK    7  A    between atoms: N_19  and  C_20 
REMARK    8  A    between atoms: C_20  and  N_22 
REMARK       I    between atoms: N_22  and  C_23 
REMARK    9  A    between atoms: C_23  and  C_25 
ROOT
ATOM      1  C   UNL d   1      23.596 -17.886  -0.858  0.00  0.00     0.041 A 
ATOM      2  C   UNL d   1      24.261 -18.201   0.304  0.00  0.00     0.020 A 
ATOM      3  C   UNL d   1      25.607 -17.790   0.473  0.00  0.00     0.033 A 
ATOM      4  C   UNL d   1      26.360 -17.079  -0.519  0.00  0.00     0.057 A 
ATOM      5  C   UNL d   1      25.653 -16.733  -1.715  0.00  0.00     0.062 A 
ATOM      6  C   UNL d   1      24.323 -17.203  -1.815  0.00  0.00     0.049 A 
ENDROOT
BRANCH   5   7
ATOM      7  N   UNL d   1      26.224 -15.946  -2.818  0.00  0.00    -0.331 N 
ATOM      8  H   UNL d   1      27.110 -16.293  -3.135  0.00  0.00     0.168 HD
BRANCH   7   9
ATOM      9  C   UNL d   1      25.711 -14.743  -3.407  0.00  0.00     0.179 C 
ATOM     10  S   UNL d   1      24.178 -14.077  -3.184  0.00  0.00    -0.040 SA
BRANCH   9  11
ATOM     11  N   UNL d   1      26.604 -14.067  -4.265  0.00  0.00    -0.299 N 
ATOM     12  C   UNL d   1      27.543 -14.744  -5.082  0.00  0.00     0.257 C 
ATOM     13  O   UNL d   1      27.764 -15.950  -5.147  0.00  0.00    -0.267 OA
ATOM     14  H   UNL d   1      26.554 -13.066  -4.367  0.00  0.00     0.171 HD
BRANCH  12  15
ATOM     15  C   UNL d   1      28.449 -14.002  -5.947  0.00  0.00     0.033 A 
ATOM     16  C   UNL d   1      27.920 -12.913  -6.670  0.00  0.00     0.017 A 
ATOM     17  C   UNL d   1      28.656 -12.347  -7.702  0.00  0.00     0.002 A 
ATOM     18  C   UNL d   1      29.934 -12.835  -7.972  0.00  0.00     0.019 A 
ATOM     19  C   UNL d   1      30.430 -13.936  -7.267  0.00  0.00     0.011 A 
ATOM     20 BR   UNL d   1      32.116 -14.664  -7.703  0.00  0.00    -0.051 Br
ATOM     21  C   UNL d   1      29.685 -14.542  -6.264  0.00  0.00     0.036 A 
ENDBRANCH  12  15
ENDBRANCH   9  11
ENDBRANCH   7   9
ENDBRANCH   5   7
BRANCH   4  22
ATOM     22  N   UNL d   1      27.709 -16.822  -0.275  0.00  0.00    -0.376 N 
ATOM     23  C   UNL d   1      28.199 -15.674   0.487  0.00  0.00     0.150 C 
ATOM     24  C   UNL d   1      29.244 -14.926  -0.386  0.00  0.00     0.254 C 
ATOM     25  N   UNL d   1      30.391 -15.855  -0.865  0.00  0.00    -0.068 N 
ATOM     26  C   UNL d   1      29.830 -17.185  -1.453  0.00  0.00     0.254 C 
ATOM     27  H   UNL d   1      30.952 -16.095  -0.037  0.00  0.00     0.280 HD
ATOM     28  C   UNL d   1      28.766 -17.826  -0.520  0.00  0.00     0.150 C 
BRANCH  25  29
ATOM     29  C   UNL d   1      31.312 -15.123  -1.837  0.00  0.00     0.230 C 
ATOM     30  C   UNL d   1      31.392 -13.633  -1.541  0.00  0.00     0.034 C 
ENDBRANCH  25  29
ENDBRANCH   4  22
BRANCH   1  31
ATOM     31  C   UNL d   1      22.114 -18.045  -1.046  0.00  0.00     0.293 C 
ATOM     32  O   UNL d   1      21.359 -17.083  -0.896  0.00  0.00    -0.259 OA
BRANCH  31  33
ATOM     33  O   UNL d   1      21.721 -19.297  -1.427  0.00  0.00    -0.318 OA
BRANCH  33  34
ATOM     34  C   UNL d   1      20.346 -19.628  -1.104  0.00  0.00     0.174 C 
ATOM     35  C   UNL d   1      20.128 -19.712   0.404  0.00  0.00     0.034 C 
ENDBRANCH  33  34
ENDBRANCH  31  33
ENDBRANCH   1  31
TORSDOF 9
ENDMDL
