MODEL 1
REMARK VINA RESULT:   -31.129      0.000      0.000
REMARK INTER + INTRA:         -34.424
REMARK INTER:                 -33.814
REMARK INTRA:                  -0.611
REMARK CONF_INDEPENDENT:        2.685
REMARK UNBOUND:                -0.611
REMARK  9 active torsions:
REMARK  status: ('A' for Active; 'I' for Inactive)
REMARK    1  A    between atoms: C_2  and  N_3 
REMARK    2  A    between atoms: C_4  and  C_5 
REMARK    3  A    between atoms: C_5  and  C_6 
REMARK    4  A    between atoms: C_6  and  N_7 
REMARK       I    between atoms: N_7  and  C_8 
REMARK    5  A    between atoms: C_8  and  C_10 
REMARK    6  A    between atoms: C_10  and  C_11 
REMARK    7  A    between atoms: C_11  and  N_12 
REMARK       I    between atoms: N_12  and  C_13 
REMARK    8  A    between atoms: C_13  and  C_15 
REMARK    9  A    between atoms: C_21  and  O_22 
ROOT
ATOM      1  N   UNL d   1      24.169 -18.603  -0.597  0.00  0.00    -0.361 N 
ATOM      2  C   UNL d   1      25.034 -17.529  -0.673  0.00  0.00     0.219 C 
ATOM      3  O   UNL d   1      24.710 -16.490  -1.243  0.00  0.00    -0.274 OA
ATOM      4  H   UNL d   1      24.456 -19.468  -0.154  0.00  0.00     0.162 HD
ENDROOT
BRANCH   2   5
ATOM      5  C   UNL d   1      26.392 -17.716  -0.010  0.00  0.00     0.122 C 
BRANCH   5   6
ATOM      6  C   UNL d   1      27.286 -16.498  -0.284  0.00  0.00     0.132 C 
BRANCH   6   7
ATOM      7  N   UNL d   1      27.936 -15.942   0.902  0.00  0.00    -0.356 N 
ATOM      8  C   UNL d   1      27.410 -14.812   1.520  0.00  0.00     0.254 C 
ATOM      9  O   UNL d   1      26.446 -14.201   1.062  0.00  0.00    -0.268 OA
ATOM     10  H   UNL d   1      28.684 -16.451   1.353  0.00  0.00     0.162 HD
BRANCH   8  11
ATOM     11  C   UNL d   1      28.082 -14.333   2.770  0.00  0.00     0.065 A 
ATOM     12  C   UNL d   1      27.320 -13.832   3.837  0.00  0.00     0.020 A 
ATOM     13  C   UNL d   1      27.939 -13.449   5.042  0.00  0.00     0.008 A 
ATOM     14  C   UNL d   1      29.324 -13.576   5.205  0.00  0.00    -0.059 A 
ATOM     15  C   UNL d   1      30.019 -13.193   6.481  0.00  0.00     0.048 C 
ATOM     16  C   UNL d   1      30.083 -14.079   4.142  0.00  0.00     0.044 A 
ATOM     17  C   UNL d   1      29.470 -14.447   2.937  0.00  0.00     0.081 A 
BRANCH  17  18
ATOM     18  O   UNL d   1      30.264 -14.882   1.912  0.00  0.00    -0.360 OA
ATOM     19  H   UNL d   1      29.918 -15.718   1.559  0.00  0.00     0.217 HD
ENDBRANCH  17  18
ENDBRANCH   8  11
ENDBRANCH   6   7
ENDBRANCH   5   6
ENDBRANCH   2   5
BRANCH   1  20
ATOM     20  C   UNL d   1      22.846 -18.486  -1.211  0.00  0.00     0.130 C 
BRANCH  20  21
ATOM     21  C   UNL d   1      21.783 -18.069  -0.222  0.00  0.00     0.100 C 
BRANCH  21  22
ATOM     22  C   UNL d   1      20.563 -18.954  -0.200  0.00  0.00     0.130 A 
ATOM     23  N   UNL d   1      20.086 -19.498   0.950  0.00  0.00    -0.310 N 
ATOM     24  C   UNL d   1      18.968 -20.207   0.566  0.00  0.00     0.196 A 
ATOM     25  N   UNL d   1      18.890 -20.077  -0.811  0.00  0.00    -0.251 N 
ATOM     26  S   UNL d   1      17.875 -21.068   1.468  0.00  0.00    -0.039 SA
ATOM     27  N   UNL d   1      19.894 -19.280  -1.270  0.00  0.00    -0.159 NA
ATOM     28  H   UNL d   1      18.199 -20.489  -1.426  0.00  0.00     0.191 HD
BRANCH  23  29
ATOM     29  C   UNL d   1      20.571 -19.332   2.323  0.00  0.00     0.128 C 
ATOM     30  C   UNL d   1      20.148 -20.451   3.261  0.00  0.00     0.027 C 
ENDBRANCH  23  29
ENDBRANCH  21  22
ENDBRANCH  20  21
ENDBRANCH   1  20
TORSDOF 9
ENDMDL
MODEL 2
REMARK VINA RESULT:   -30.819      3.846      5.783
REMARK INTER + INTRA:         -34.714
REMARK INTER:                 -33.504
REMARK INTRA:                  -1.210
REMARK CONF_INDEPENDENT:        2.685
REMARK UNBOUND:                -1.210
REMARK  9 active torsions:
REMARK  status: ('A' for Active; 'I' for Inactive)
REMARK    1  A    between atoms: C_2  and  N_3 
REMARK    2  A    between atoms: C_4  and  C_5 
REMARK    3  A    between atoms: C_5  and  C_6 
REMARK    4  A    between atoms: C_6  and  N_7 
REMARK       I    between atoms: N_7  and  C_8 
REMARK    5  A    between atoms: C_8  and  C_10 
REMARK    6  A    between atoms: C_10  and  C_11 
REMARK    7  A    between atoms: C_11  and  N_12 
REMARK       I    between atoms: N_12  and  C_13 
REMARK    8  A    between atoms: C_13  and  C_15 
REMARK    9  A    between atoms: C_21  and  O_22 
ROOT
ATOM      1  N   UNL d   1      23.914 -17.658  -1.162  0.00  0.00    -0.361 N 
ATOM      2  C   UNL d   1      24.936 -17.495  -0.247  0.00  0.00     0.219 C 
ATOM      3  O   UNL d   1      25.013 -18.201   0.755  0.00  0.00    -0.274 OA
ATOM      4  H   UNL d   1      23.840 -17.049  -1.968  0.00  0.00     0.162 HD
ENDROOT
BRANCH   2   5
ATOM      5  C   UNL d   1      25.946 -16.399  -0.561  0.00  0.00     0.122 C 
BRANCH   5   6
ATOM      6  C   UNL d   1      26.858 -16.836  -1.715  0.00  0.00     0.132 C 
BRANCH   6   7
ATOM      7  N   UNL d   1      27.033 -15.832  -2.766  0.00  0.00    -0.356 N 
ATOM      8  C   UNL d   1      25.965 -15.024  -3.142  0.00  0.00     0.254 C 
ATOM      9  O   UNL d   1      24.835 -15.169  -2.676  0.00  0.00    -0.268 OA
ATOM     10  H   UNL d   1      27.957 -15.631  -3.123  0.00  0.00     0.162 HD
BRANCH   8  11
ATOM     11  C   UNL d   1      26.226 -13.971  -4.173  0.00  0.00     0.065 A 
ATOM     12  C   UNL d   1      25.565 -12.734  -4.108  0.00  0.00     0.020 A 
ATOM     13  C   UNL d   1      25.861 -11.713  -5.030  0.00  0.00     0.008 A 
ATOM     14  C   UNL d   1      26.831 -11.905  -6.020  0.00  0.00    -0.059 A 
ATOM     15  C   UNL d   1      27.186 -10.835  -7.013  0.00  0.00     0.048 C 
ATOM     16  C   UNL d   1      27.493 -13.137  -6.084  0.00  0.00     0.044 A 
ATOM     17  C   UNL d   1      27.190 -14.159  -5.175  0.00  0.00     0.081 A 
BRANCH  17  18
ATOM     18  O   UNL d   1      27.827 -15.361  -5.315  0.00  0.00    -0.360 OA
ATOM     19  H   UNL d   1      28.046 -15.512  -6.248  0.00  0.00     0.217 HD
ENDBRANCH  17  18
ENDBRANCH   8  11
ENDBRANCH   6   7
ENDBRANCH   5   6
ENDBRANCH   2   5
BRANCH   1  20
ATOM     20  C   UNL d   1      22.913 -18.697  -0.920  0.00  0.00     0.130 C 
BRANCH  20  21
ATOM     21  C   UNL d   1      21.760 -18.207  -0.076  0.00  0.00     0.100 C 
BRANCH  21  22
ATOM     22  C   UNL d   1      20.518 -19.056  -0.154  0.00  0.00     0.130 A 
ATOM     23  N   UNL d   1      19.962 -19.627   0.948  0.00  0.00    -0.310 N 
ATOM     24  C   UNL d   1      18.849 -20.289   0.477  0.00  0.00     0.196 A 
ATOM     25  N   UNL d   1      18.853 -20.108  -0.897  0.00  0.00    -0.251 N 
ATOM     26  S   UNL d   1      17.684 -21.149   1.285  0.00  0.00    -0.039 SA
ATOM     27  N   UNL d   1      19.902 -19.325  -1.270  0.00  0.00    -0.159 NA
ATOM     28  H   UNL d   1      18.186 -20.479  -1.564  0.00  0.00     0.191 HD
BRANCH  23  29
ATOM     29  C   UNL d   1      20.373 -19.522   2.351  0.00  0.00     0.128 C 
ATOM     30  C   UNL d   1      19.702 -20.537   3.262  0.00  0.00     0.027 C 
ENDBRANCH  23  29
ENDBRANCH  21  22
ENDBRANCH  20  21
ENDBRANCH   1  20
TORSDOF 9
ENDMDL
MODEL 3
REMARK VINA RESULT:   -30.274      3.556      5.287
REMARK INTER + INTRA:         -34.757
REMARK INTER:                 -32.959
REMARK INTRA:                  -1.798
REMARK CONF_INDEPENDENT:        2.685
REMARK UNBOUND:                -1.798
REMARK  9 active torsions:
REMARK  status: ('A' for Active; 'I' for Inactive)
REMARK    1  A    between atoms: C_2  and  N_3 
REMARK    2  A    between atoms: C_4  and  C_5 
REMARK    3  A    between atoms: C_5  and  C_6 
REMARK    4  A    between atoms: C_6  and  N_7 
REMARK       I    between atoms: N_7  and  C_8 
REMARK    5  A    between atoms: C_8  and  C_10 
REMARK    6  A    between atoms: C_10  and  C_11 
REMARK    7  A    between atoms: C_11  and  N_12 
REMARK       I    between atoms: N_12  and  C_13 
REMARK    8  A    between atoms: C_13  and  C_15 
REMARK    9  A    between atoms: C_21  and  O_22 
ROOT
ATOM      1  N   UNL d   1      24.223 -18.837  -0.395  0.00  0.00    -0.361 N 
ATOM      2  C   UNL d   1      24.854 -17.626  -0.191  0.00  0.00     0.219 C 
ATOM      3  O   UNL d   1      24.323 -16.568  -0.519  0.00  0.00    -0.274 OA
ATOM      4  H   UNL d   1      24.683 -19.707  -0.151  0.00  0.00     0.162 HD
ENDROOT
BRANCH   2   5
ATOM      5  C   UNL d   1      26.230 -17.689   0.460  0.00  0.00     0.122 C 
BRANCH   5   6
ATOM      6  C   UNL d   1      27.301 -17.188  -0.519  0.00  0.00     0.132 C 
BRANCH   6   7
ATOM      7  N   UNL d   1      26.900 -16.029  -1.317  0.00  0.00    -0.356 N 
ATOM      8  C   UNL d   1      27.680 -15.622  -2.395  0.00  0.00     0.254 C 
ATOM      9  O   UNL d   1      28.754 -16.157  -2.668  0.00  0.00    -0.268 OA
ATOM     10  H   UNL d   1      25.993 -15.607  -1.174  0.00  0.00     0.162 HD
BRANCH   8  11
ATOM     11  C   UNL d   1      27.180 -14.472  -3.214  0.00  0.00     0.065 A 
ATOM     12  C   UNL d   1      28.065 -13.471  -3.644  0.00  0.00     0.020 A 
ATOM     13  C   UNL d   1      27.617 -12.428  -4.475  0.00  0.00     0.008 A 
ATOM     14  C   UNL d   1      26.285 -12.377  -4.901  0.00  0.00    -0.059 A 
ATOM     15  C   UNL d   1      25.771 -11.288  -5.801  0.00  0.00     0.048 C 
ATOM     16  C   UNL d   1      25.403 -13.377  -4.475  0.00  0.00     0.044 A 
ATOM     17  C   UNL d   1      25.844 -14.408  -3.636  0.00  0.00     0.081 A 
BRANCH  17  18
ATOM     18  O   UNL d   1      24.930 -15.330  -3.205  0.00  0.00    -0.360 OA
ATOM     19  H   UNL d   1      25.078 -15.527  -2.266  0.00  0.00     0.217 HD
ENDBRANCH  17  18
ENDBRANCH   8  11
ENDBRANCH   6   7
ENDBRANCH   5   6
ENDBRANCH   2   5
BRANCH   1  20
ATOM     20  C   UNL d   1      22.897 -18.844  -1.013  0.00  0.00     0.130 C 
BRANCH  20  21
ATOM     21  C   UNL d   1      21.812 -18.396  -0.063  0.00  0.00     0.100 C 
BRANCH  21  22
ATOM     22  C   UNL d   1      20.526 -19.176  -0.163  0.00  0.00     0.130 A 
ATOM     23  N   UNL d   1      19.989 -19.823   0.905  0.00  0.00    -0.310 N 
ATOM     24  C   UNL d   1      18.825 -20.385   0.426  0.00  0.00     0.196 A 
ATOM     25  N   UNL d   1      18.782 -20.076  -0.923  0.00  0.00    -0.251 N 
ATOM     26  S   UNL d   1      17.654 -21.264   1.203  0.00  0.00    -0.039 SA
ATOM     27  N   UNL d   1      19.853 -19.310  -1.270  0.00  0.00    -0.159 NA
ATOM     28  H   UNL d   1      18.071 -20.351  -1.591  0.00  0.00     0.191 HD
BRANCH  23  29
ATOM     29  C   UNL d   1      20.461 -19.871   2.292  0.00  0.00     0.128 C 
ATOM     30  C   UNL d   1      19.447 -20.450   3.264  0.00  0.00     0.027 C 
ENDBRANCH  23  29
ENDBRANCH  21  22
ENDBRANCH  20  21
ENDBRANCH   1  20
TORSDOF 9
ENDMDL
MODEL 4
REMARK VINA RESULT:   -29.247      3.224      5.337
REMARK INTER + INTRA:         -34.144
REMARK INTER:                 -31.932
REMARK INTRA:                  -2.211
REMARK CONF_INDEPENDENT:        2.685
REMARK UNBOUND:                -2.211
REMARK  9 active torsions:
REMARK  status: ('A' for Active; 'I' for Inactive)
REMARK    1  A    between atoms: C_2  and  N_3 
REMARK    2  A    between atoms: C_4  and  C_5 
REMARK    3  A    between atoms: C_5  and  C_6 
REMARK    4  A    between atoms: C_6  and  N_7 
REMARK       I    between atoms: N_7  and  C_8 
REMARK    5  A    between atoms: C_8  and  C_10 
REMARK    6  A    between atoms: C_10  and  C_11 
REMARK    7  A    between atoms: C_11  and  N_12 
REMARK       I    between atoms: N_12  and  C_13 
REMARK    8  A    between atoms: C_13  and  C_15 
REMARK    9  A    between atoms: C_21  and  O_22 
ROOT
ATOM      1  N   UNL d   1      24.149 -18.875  -0.315  0.00  0.00    -0.361 N 
ATOM      2  C   UNL d   1      25.126 -17.905  -0.429  0.00  0.00     0.219 C 
ATOM      3  O   UNL d   1      24.896 -16.829  -0.975  0.00  0.00    -0.274 OA
ATOM      4  H   UNL d   1      24.357 -19.771   0.107  0.00  0.00     0.162 HD
ENDROOT
BRANCH   2   5
ATOM      5  C   UNL d   1      26.486 -18.254   0.161  0.00  0.00     0.122 C 
BRANCH   5   6
ATOM      6  C   UNL d   1      27.354 -16.993   0.271  0.00  0.00     0.132 C 
BRANCH   6   7
ATOM      7  N   UNL d   1      27.389 -16.172  -0.940  0.00  0.00    -0.356 N 
ATOM      8  C   UNL d   1      28.408 -16.347  -1.871  0.00  0.00     0.254 C 
ATOM      9  O   UNL d   1      29.343 -17.125  -1.684  0.00  0.00    -0.268 OA
ATOM     10  H   UNL d   1      26.607 -15.574  -1.167  0.00  0.00     0.162 HD
BRANCH   8  11
ATOM     11  C   UNL d   1      28.350 -15.525  -3.121  0.00  0.00     0.065 A 
ATOM     12  C   UNL d   1      29.531 -15.063  -3.721  0.00  0.00     0.020 A 
ATOM     13  C   UNL d   1      29.488 -14.353  -4.935  0.00  0.00     0.008 A 
ATOM     14  C   UNL d   1      28.268 -14.107  -5.576  0.00  0.00    -0.059 A 
ATOM     15  C   UNL d   1      28.182 -13.367  -6.880  0.00  0.00     0.048 C 
ATOM     16  C   UNL d   1      27.089 -14.571  -4.979  0.00  0.00     0.044 A 
ATOM     17  C   UNL d   1      27.130 -15.265  -3.763  0.00  0.00     0.081 A 
BRANCH  17  18
ATOM     18  O   UNL d   1      25.946 -15.650  -3.196  0.00  0.00    -0.360 OA
ATOM     19  H   UNL d   1      26.053 -16.511  -2.762  0.00  0.00     0.217 HD
ENDBRANCH  17  18
ENDBRANCH   8  11
ENDBRANCH   6   7
ENDBRANCH   5   6
ENDBRANCH   2   5
BRANCH   1  20
ATOM     20  C   UNL d   1      22.819 -18.599  -0.858  0.00  0.00     0.130 C 
BRANCH  20  21
ATOM     21  C   UNL d   1      21.756 -18.538   0.213  0.00  0.00     0.100 C 
BRANCH  21  22
ATOM     22  C   UNL d   1      20.483 -19.273  -0.121  0.00  0.00     0.130 A 
ATOM     23  N   UNL d   1      19.887 -20.122   0.758  0.00  0.00    -0.310 N 
ATOM     24  C   UNL d   1      18.758 -20.567   0.106  0.00  0.00     0.196 A 
ATOM     25  N   UNL d   1      18.792 -19.986  -1.152  0.00  0.00    -0.251 N 
ATOM     26  S   UNL d   1      17.548 -21.579   0.615  0.00  0.00    -0.039 SA
ATOM     27  N   UNL d   1      19.877 -19.172  -1.269  0.00  0.00    -0.159 NA
ATOM     28  H   UNL d   1      18.123 -20.113  -1.902  0.00  0.00     0.191 HD
BRANCH  23  29
ATOM     29  C   UNL d   1      20.278 -20.456   2.130  0.00  0.00     0.128 C 
ATOM     30  C   UNL d   1      19.131 -20.394   3.125  0.00  0.00     0.027 C 
ENDBRANCH  23  29
ENDBRANCH  21  22
ENDBRANCH  20  21
ENDBRANCH   1  20
TORSDOF 9
ENDMDL
