MODEL 1
REMARK VINA RESULT:    -8.083      0.000      0.000
REMARK INTER + INTRA:         -10.329
REMARK INTER:                  -9.277
REMARK INTRA:                  -1.052
REMARK CONF_INDEPENDENT:        1.193
REMARK UNBOUND:                -1.052
REMARK  4 active torsions:
REMARK  status: ('A' for Active; 'I' for Inactive)
REMARK       I    between atoms: C_2  and  N_3 
REMARK    1  A    between atoms: C_2  and  C_13 
REMARK    2  A    between atoms: N_3  and  N_4 
REMARK    3  A    between atoms: N_4  and  C_5 
REMARK       I    between atoms: C_13  and  N_15 
REMARK    4  A    between atoms: N_15  and  C_16 
ROOT
ATOM      1  O   UNL d   1      24.473 -17.344   0.319  0.00  0.00    -0.261 OA
ATOM      2  C   UNL d   1      23.913 -17.739  -0.708  0.00  0.00     0.328 C 
ATOM      3  N   UNL d   1      24.395 -17.419  -1.977  0.00  0.00    -0.261 N 
ATOM      4  H   UNL d   1      24.080 -17.862  -2.827  0.00  0.00     0.190 HD
ENDROOT
BRANCH   2   5
ATOM      5  C   UNL d   1      22.625 -18.601  -0.587  0.00  0.00     0.315 C 
ATOM      6  O   UNL d   1      22.273 -19.237  -1.582  0.00  0.00    -0.262 OA
ATOM      7  N   UNL d   1      21.893 -18.575   0.607  0.00  0.00    -0.319 N 
ATOM      8  H   UNL d   1      22.048 -17.832   1.269  0.00  0.00     0.169 HD
BRANCH   7   9
ATOM      9  C   UNL d   1      20.688 -19.321   0.753  0.00  0.00     0.035 A 
ATOM     10  C   UNL d   1      20.237 -19.735   2.014  0.00  0.00     0.032 A 
ATOM     11  C   UNL d   1      19.072 -20.498   2.146  0.00  0.00     0.044 A 
ATOM     12  C   UNL d   1      18.362 -20.861   1.011  0.00  0.00     0.116 A 
ATOM     13  F   UNL d   1      17.262 -21.617   1.132  0.00  0.00    -0.206 F 
ATOM     14  C   UNL d   1      18.782 -20.450  -0.249  0.00  0.00     0.044 A 
ATOM     15  C   UNL d   1      19.934 -19.658  -0.379  0.00  0.00     0.032 A 
ENDBRANCH   7   9
ENDBRANCH   2   5
BRANCH   3  16
ATOM     16  N   UNL d   1      25.639 -16.768  -2.032  0.00  0.00    -0.296 N 
ATOM     17  H   UNL d   1      26.430 -17.179  -1.526  0.00  0.00     0.187 HD
BRANCH  16  18
ATOM     18  C   UNL d   1      25.781 -15.519  -2.659  0.00  0.00     0.070 A 
ATOM     19  C   UNL d   1      25.531 -15.352  -4.027  0.00  0.00     0.034 A 
ATOM     20  C   UNL d   1      25.695 -14.106  -4.647  0.00  0.00     0.026 A 
ATOM     21  C   UNL d   1      26.147 -13.013  -3.912  0.00  0.00     0.035 A 
ATOM     22 CL   UNL d   1      26.343 -11.488  -4.687  0.00  0.00    -0.084 Cl
ATOM     23  C   UNL d   1      26.434 -13.150  -2.559  0.00  0.00     0.050 A 
ATOM     24  C   UNL d   1      26.246 -14.393  -1.940  0.00  0.00     0.063 A 
ATOM     25 CL   UNL d   1      26.633 -14.511  -0.256  0.00  0.00    -0.082 Cl
ENDBRANCH  16  18
ENDBRANCH   3  16
TORSDOF 4
ENDMDL
MODEL 2
REMARK VINA RESULT:    -7.650      6.853      9.198
REMARK INTER + INTRA:          -9.584
REMARK INTER:                  -8.843
REMARK INTRA:                  -0.741
REMARK CONF_INDEPENDENT:        1.193
REMARK UNBOUND:                -0.741
REMARK  4 active torsions:
REMARK  status: ('A' for Active; 'I' for Inactive)
REMARK       I    between atoms: C_2  and  N_3 
REMARK    1  A    between atoms: C_2  and  C_13 
REMARK    2  A    between atoms: N_3  and  N_4 
REMARK    3  A    between atoms: N_4  and  C_5 
REMARK       I    between atoms: C_13  and  N_15 
REMARK    4  A    between atoms: N_15  and  C_16 
ROOT
ATOM      1  O   UNL d   1      26.547 -13.919   0.959  0.00  0.00    -0.261 OA
ATOM      2  C   UNL d   1      27.405 -14.468   1.656  0.00  0.00     0.328 C 
ATOM      3  N   UNL d   1      27.993 -15.675   1.281  0.00  0.00    -0.261 N 
ATOM      4  H   UNL d   1      28.815 -16.062   1.722  0.00  0.00     0.190 HD
ENDROOT
BRANCH   2   5
ATOM      5  C   UNL d   1      27.829 -13.808   2.999  0.00  0.00     0.315 C 
ATOM      6  O   UNL d   1      27.833 -12.577   3.048  0.00  0.00    -0.262 OA
ATOM      7  N   UNL d   1      28.242 -14.621   4.061  0.00  0.00    -0.319 N 
ATOM      8  H   UNL d   1      28.502 -15.578   3.884  0.00  0.00     0.169 HD
BRANCH   7   9
ATOM      9  C   UNL d   1      28.673 -14.060   5.298  0.00  0.00     0.035 A 
ATOM     10  C   UNL d   1      29.881 -14.452   5.893  0.00  0.00     0.032 A 
ATOM     11  C   UNL d   1      30.279 -13.924   7.125  0.00  0.00     0.044 A 
ATOM     12  C   UNL d   1      29.462 -13.010   7.773  0.00  0.00     0.116 A 
ATOM     13  F   UNL d   1      29.827 -12.524   8.968  0.00  0.00    -0.206 F 
ATOM     14  C   UNL d   1      28.267 -12.595   7.196  0.00  0.00     0.044 A 
ATOM     15  C   UNL d   1      27.881 -13.102   5.945  0.00  0.00     0.032 A 
ENDBRANCH   7   9
ENDBRANCH   2   5
BRANCH   3  16
ATOM     16  N   UNL d   1      27.688 -16.152  -0.005  0.00  0.00    -0.296 N 
ATOM     17  H   UNL d   1      28.340 -15.951  -0.770  0.00  0.00     0.187 HD
BRANCH  16  18
ATOM     18  C   UNL d   1      26.463 -16.784  -0.276  0.00  0.00     0.070 A 
ATOM     19  C   UNL d   1      26.065 -17.940   0.409  0.00  0.00     0.034 A 
ATOM     20  C   UNL d   1      24.851 -18.574   0.117  0.00  0.00     0.026 A 
ATOM     21  C   UNL d   1      24.028 -18.080  -0.892  0.00  0.00     0.035 A 
ATOM     22 CL   UNL d   1      22.538 -18.869  -1.240  0.00  0.00    -0.084 Cl
ATOM     23  C   UNL d   1      24.405 -16.952  -1.613  0.00  0.00     0.050 A 
ATOM     24  C   UNL d   1      25.610 -16.309  -1.300  0.00  0.00     0.063 A 
ATOM     25 CL   UNL d   1      26.039 -14.918  -2.239  0.00  0.00    -0.082 Cl
ENDBRANCH  16  18
ENDBRANCH   3  16
TORSDOF 4
ENDMDL
MODEL 3
REMARK VINA RESULT:    -7.546      2.346      3.164
REMARK INTER + INTRA:          -9.416
REMARK INTER:                  -8.740
REMARK INTRA:                  -0.676
REMARK CONF_INDEPENDENT:        1.193
REMARK UNBOUND:                -0.676
REMARK  4 active torsions:
REMARK  status: ('A' for Active; 'I' for Inactive)
REMARK       I    between atoms: C_2  and  N_3 
REMARK    1  A    between atoms: C_2  and  C_13 
REMARK    2  A    between atoms: N_3  and  N_4 
REMARK    3  A    between atoms: N_4  and  C_5 
REMARK       I    between atoms: C_13  and  N_15 
REMARK    4  A    between atoms: N_15  and  C_16 
ROOT
ATOM      1  O   UNL d   1      23.371 -16.244  -1.369  0.00  0.00    -0.261 OA
ATOM      2  C   UNL d   1      23.547 -17.275  -0.714  0.00  0.00     0.328 C 
ATOM      3  N   UNL d   1      24.768 -17.557  -0.103  0.00  0.00    -0.261 N 
ATOM      4  H   UNL d   1      24.900 -18.288   0.581  0.00  0.00     0.190 HD
ENDROOT
BRANCH   2   5
ATOM      5  C   UNL d   1      22.384 -18.299  -0.582  0.00  0.00     0.315 C 
ATOM      6  O   UNL d   1      22.092 -18.958  -1.581  0.00  0.00    -0.262 OA
ATOM      7  N   UNL d   1      21.685 -18.388   0.629  0.00  0.00    -0.319 N 
ATOM      8  H   UNL d   1      21.759 -17.642   1.302  0.00  0.00     0.169 HD
BRANCH   7   9
ATOM      9  C   UNL d   1      20.590 -19.286   0.786  0.00  0.00     0.035 A 
ATOM     10  C   UNL d   1      19.808 -19.678  -0.310  0.00  0.00     0.032 A 
ATOM     11  C   UNL d   1      18.712 -20.531  -0.143  0.00  0.00     0.044 A 
ATOM     12  C   UNL d   1      18.387 -20.983   1.127  0.00  0.00     0.116 A 
ATOM     13  F   UNL d   1      17.320 -21.776   1.295  0.00  0.00    -0.206 F 
ATOM     14  C   UNL d   1      19.156 -20.618   2.227  0.00  0.00     0.044 A 
ATOM     15  C   UNL d   1      20.274 -19.788   2.055  0.00  0.00     0.032 A 
ENDBRANCH   7   9
ENDBRANCH   2   5
BRANCH   3  16
ATOM     16  N   UNL d   1      25.734 -16.537  -0.126  0.00  0.00    -0.296 N 
ATOM     17  H   UNL d   1      25.491 -15.622   0.268  0.00  0.00     0.187 HD
BRANCH  16  18
ATOM     18  C   UNL d   1      26.964 -16.713  -0.779  0.00  0.00     0.070 A 
ATOM     19  C   UNL d   1      28.023 -17.406  -0.177  0.00  0.00     0.034 A 
ATOM     20  C   UNL d   1      29.254 -17.558  -0.829  0.00  0.00     0.026 A 
ATOM     21  C   UNL d   1      29.457 -16.988  -2.083  0.00  0.00     0.035 A 
ATOM     22 CL   UNL d   1      30.974 -17.184  -2.873  0.00  0.00    -0.084 Cl
ATOM     23  C   UNL d   1      28.439 -16.268  -2.698  0.00  0.00     0.050 A 
ATOM     24  C   UNL d   1      27.203 -16.139  -2.050  0.00  0.00     0.063 A 
ATOM     25 CL   UNL d   1      25.975 -15.219  -2.853  0.00  0.00    -0.082 Cl
ENDBRANCH  16  18
ENDBRANCH   3  16
TORSDOF 4
ENDMDL
MODEL 4
REMARK VINA RESULT:    -7.503      5.526      9.414
REMARK INTER + INTRA:          -9.454
REMARK INTER:                  -8.696
REMARK INTRA:                  -0.759
REMARK CONF_INDEPENDENT:        1.193
REMARK UNBOUND:                -0.759
REMARK  4 active torsions:
REMARK  status: ('A' for Active; 'I' for Inactive)
REMARK       I    between atoms: C_2  and  N_3 
REMARK    1  A    between atoms: C_2  and  C_13 
REMARK    2  A    between atoms: N_3  and  N_4 
REMARK    3  A    between atoms: N_4  and  C_5 
REMARK       I    between atoms: C_13  and  N_15 
REMARK    4  A    between atoms: N_15  and  C_16 
ROOT
ATOM      1  O   UNL d   1      25.107 -14.717  -3.503  0.00  0.00    -0.261 OA
ATOM      2  C   UNL d   1      26.195 -15.247  -3.262  0.00  0.00     0.328 C 
ATOM      3  N   UNL d   1      26.582 -15.571  -1.962  0.00  0.00    -0.261 N 
ATOM      4  H   UNL d   1      27.372 -16.159  -1.740  0.00  0.00     0.190 HD
ENDROOT
BRANCH   2   5
ATOM      5  C   UNL d   1      27.172 -15.545  -4.435  0.00  0.00     0.315 C 
ATOM      6  O   UNL d   1      26.698 -15.575  -5.573  0.00  0.00    -0.262 OA
ATOM      7  N   UNL d   1      28.515 -15.822  -4.154  0.00  0.00    -0.319 N 
ATOM      8  H   UNL d   1      28.786 -16.074  -3.218  0.00  0.00     0.169 HD
BRANCH   7   9
ATOM      9  C   UNL d   1      29.439 -16.135  -5.193  0.00  0.00     0.035 A 
ATOM     10  C   UNL d   1      29.768 -15.195  -6.181  0.00  0.00     0.032 A 
ATOM     11  C   UNL d   1      30.648 -15.521  -7.218  0.00  0.00     0.044 A 
ATOM     12  C   UNL d   1      31.189 -16.796  -7.279  0.00  0.00     0.116 A 
ATOM     13  F   UNL d   1      32.009 -17.121  -8.288  0.00  0.00    -0.206 F 
ATOM     14  C   UNL d   1      30.888 -17.740  -6.303  0.00  0.00     0.044 A 
ATOM     15  C   UNL d   1      30.030 -17.404  -5.245  0.00  0.00     0.032 A 
ENDBRANCH   7   9
ENDBRANCH   2   5
BRANCH   3  16
ATOM     16  N   UNL d   1      25.609 -15.421  -0.960  0.00  0.00    -0.296 N 
ATOM     17  H   UNL d   1      25.724 -14.667  -0.274  0.00  0.00     0.187 HD
BRANCH  16  18
ATOM     18  C   UNL d   1      24.565 -16.348  -0.812  0.00  0.00     0.070 A 
ATOM     19  C   UNL d   1      23.232 -15.999  -1.065  0.00  0.00     0.034 A 
ATOM     20  C   UNL d   1      22.195 -16.926  -0.895  0.00  0.00     0.026 A 
ATOM     21  C   UNL d   1      22.473 -18.210  -0.434  0.00  0.00     0.035 A 
ATOM     22 CL   UNL d   1      21.190 -19.339  -0.231  0.00  0.00    -0.084 Cl
ATOM     23  C   UNL d   1      23.781 -18.582  -0.145  0.00  0.00     0.050 A 
ATOM     24  C   UNL d   1      24.816 -17.657  -0.339  0.00  0.00     0.063 A 
ATOM     25 CL   UNL d   1      26.424 -18.168   0.052  0.00  0.00    -0.082 Cl
ENDBRANCH  16  18
ENDBRANCH   3  16
TORSDOF 4
ENDMDL
MODEL 5
REMARK VINA RESULT:    -7.322      1.606      2.041
REMARK INTER + INTRA:          -9.960
REMARK INTER:                  -8.515
REMARK INTRA:                  -1.444
REMARK CONF_INDEPENDENT:        1.193
REMARK UNBOUND:                -1.444
REMARK  4 active torsions:
REMARK  status: ('A' for Active; 'I' for Inactive)
REMARK       I    between atoms: C_2  and  N_3 
REMARK    1  A    between atoms: C_2  and  C_13 
REMARK    2  A    between atoms: N_3  and  N_4 
REMARK    3  A    between atoms: N_4  and  C_5 
REMARK       I    between atoms: C_13  and  N_15 
REMARK    4  A    between atoms: N_15  and  C_16 
ROOT
ATOM      1  O   UNL d   1      24.563 -16.600   0.193  0.00  0.00    -0.261 OA
ATOM      2  C   UNL d   1      24.253 -17.168  -0.858  0.00  0.00     0.328 C 
ATOM      3  N   UNL d   1      24.961 -16.962  -2.041  0.00  0.00    -0.261 N 
ATOM      4  H   UNL d   1      24.856 -17.532  -2.867  0.00  0.00     0.190 HD
ENDROOT
BRANCH   2   5
ATOM      5  C   UNL d   1      23.026 -18.124  -0.871  0.00  0.00     0.315 C 
ATOM      6  O   UNL d   1      22.859 -18.817  -1.876  0.00  0.00    -0.262 OA
ATOM      7  N   UNL d   1      22.141 -18.117   0.214  0.00  0.00    -0.319 N 
ATOM      8  H   UNL d   1      22.151 -17.343   0.858  0.00  0.00     0.169 HD
BRANCH   7   9
ATOM      9  C   UNL d   1      20.985 -18.950   0.231  0.00  0.00     0.035 A 
ATOM     10  C   UNL d   1      20.158 -19.068  -0.895  0.00  0.00     0.032 A 
ATOM     11  C   UNL d   1      19.005 -19.859  -0.859  0.00  0.00     0.044 A 
ATOM     12  C   UNL d   1      18.669 -20.524   0.310  0.00  0.00     0.116 A 
ATOM     13  F   UNL d   1      17.549 -21.259   0.357  0.00  0.00    -0.206 F 
ATOM     14  C   UNL d   1      19.481 -20.433   1.435  0.00  0.00     0.044 A 
ATOM     15  C   UNL d   1      20.655 -19.664   1.390  0.00  0.00     0.032 A 
ENDBRANCH   7   9
ENDBRANCH   2   5
BRANCH   3  16
ATOM     16  N   UNL d   1      26.145 -16.210  -1.944  0.00  0.00    -0.296 N 
ATOM     17  H   UNL d   1      26.541 -16.038  -1.014  0.00  0.00     0.187 HD
BRANCH  16  18
ATOM     18  C   UNL d   1      26.714 -15.598  -3.072  0.00  0.00     0.070 A 
ATOM     19  C   UNL d   1      28.006 -15.921  -3.508  0.00  0.00     0.034 A 
ATOM     20  C   UNL d   1      28.573 -15.290  -4.623  0.00  0.00     0.026 A 
ATOM     21  C   UNL d   1      27.868 -14.298  -5.300  0.00  0.00     0.035 A 
ATOM     22 CL   UNL d   1      28.578 -13.532  -6.668  0.00  0.00    -0.084 Cl
ATOM     23  C   UNL d   1      26.596 -13.931  -4.877  0.00  0.00     0.050 A 
ATOM     24  C   UNL d   1      26.026 -14.582  -3.775  0.00  0.00     0.063 A 
ATOM     25 CL   UNL d   1      24.445 -14.075  -3.280  0.00  0.00    -0.082 Cl
ENDBRANCH  16  18
ENDBRANCH   3  16
TORSDOF 4
ENDMDL
MODEL 6
REMARK VINA RESULT:    -7.235      2.424      3.137
REMARK INTER + INTRA:          -9.386
REMARK INTER:                  -8.428
REMARK INTRA:                  -0.958
REMARK CONF_INDEPENDENT:        1.193
REMARK UNBOUND:                -0.958
REMARK  4 active torsions:
REMARK  status: ('A' for Active; 'I' for Inactive)
REMARK       I    between atoms: C_2  and  N_3 
REMARK    1  A    between atoms: C_2  and  C_13 
REMARK    2  A    between atoms: N_3  and  N_4 
REMARK    3  A    between atoms: N_4  and  C_5 
REMARK       I    between atoms: C_13  and  N_15 
REMARK    4  A    between atoms: N_15  and  C_16 
ROOT
ATOM      1  O   UNL d   1      23.535 -16.054  -0.473  0.00  0.00    -0.261 OA
ATOM      2  C   UNL d   1      23.584 -17.119  -1.095  0.00  0.00     0.328 C 
ATOM      3  N   UNL d   1      24.582 -17.376  -2.034  0.00  0.00    -0.261 N 
ATOM      4  H   UNL d   1      24.763 -18.288  -2.428  0.00  0.00     0.190 HD
ENDROOT
BRANCH   2   5
ATOM      5  C   UNL d   1      22.493 -18.198  -0.841  0.00  0.00     0.315 C 
ATOM      6  O   UNL d   1      22.266 -19.000  -1.749  0.00  0.00    -0.262 OA
ATOM      7  N   UNL d   1      21.780 -18.179   0.364  0.00  0.00    -0.319 N 
ATOM      8  H   UNL d   1      21.789 -17.350   0.935  0.00  0.00     0.169 HD
BRANCH   7   9
ATOM      9  C   UNL d   1      20.747 -19.125   0.627  0.00  0.00     0.035 A 
ATOM     10  C   UNL d   1      19.987 -19.679  -0.413  0.00  0.00     0.032 A 
ATOM     11  C   UNL d   1      18.950 -20.579  -0.144  0.00  0.00     0.044 A 
ATOM     12  C   UNL d   1      18.663 -20.917   1.169  0.00  0.00     0.116 A 
ATOM     13  F   UNL d   1      17.652 -21.757   1.432  0.00  0.00    -0.206 F 
ATOM     14  C   UNL d   1      19.413 -20.392   2.216  0.00  0.00     0.044 A 
ATOM     15  C   UNL d   1      20.473 -19.512   1.945  0.00  0.00     0.032 A 
ENDBRANCH   7   9
ENDBRANCH   2   5
BRANCH   3  16
ATOM     16  N   UNL d   1      25.625 -16.438  -2.118  0.00  0.00    -0.296 N 
ATOM     17  H   UNL d   1      26.023 -16.228  -3.039  0.00  0.00     0.187 HD
BRANCH  16  18
ATOM     18  C   UNL d   1      26.202 -15.884  -0.964  0.00  0.00     0.070 A 
ATOM     19  C   UNL d   1      26.281 -14.498  -0.775  0.00  0.00     0.034 A 
ATOM     20  C   UNL d   1      26.877 -13.955   0.371  0.00  0.00     0.026 A 
ATOM     21  C   UNL d   1      27.437 -14.793   1.332  0.00  0.00     0.035 A 
ATOM     22 CL   UNL d   1      28.166 -14.112   2.735  0.00  0.00    -0.084 Cl
ATOM     23  C   UNL d   1      27.404 -16.172   1.163  0.00  0.00     0.050 A 
ATOM     24  C   UNL d   1      26.785 -16.709   0.026  0.00  0.00     0.063 A 
ATOM     25 CL   UNL d   1      26.786 -18.434  -0.142  0.00  0.00    -0.082 Cl
ENDBRANCH  16  18
ENDBRANCH   3  16
TORSDOF 4
ENDMDL
MODEL 7
REMARK VINA RESULT:    -7.174      6.584      9.013
REMARK INTER + INTRA:          -9.291
REMARK INTER:                  -8.368
REMARK INTRA:                  -0.924
REMARK CONF_INDEPENDENT:        1.193
REMARK UNBOUND:                -0.924
REMARK  4 active torsions:
REMARK  status: ('A' for Active; 'I' for Inactive)
REMARK       I    between atoms: C_2  and  N_3 
REMARK    1  A    between atoms: C_2  and  C_13 
REMARK    2  A    between atoms: N_3  and  N_4 
REMARK    3  A    between atoms: N_4  and  C_5 
REMARK       I    between atoms: C_13  and  N_15 
REMARK    4  A    between atoms: N_15  and  C_16 
ROOT
ATOM      1  O   UNL d   1      28.376 -15.670   0.803  0.00  0.00    -0.261 OA
ATOM      2  C   UNL d   1      27.511 -14.906   1.242  0.00  0.00     0.328 C 
ATOM      3  N   UNL d   1      26.307 -14.698   0.573  0.00  0.00    -0.261 N 
ATOM      4  H   UNL d   1      25.510 -14.229   0.979  0.00  0.00     0.190 HD
ENDROOT
BRANCH   2   5
ATOM      5  C   UNL d   1      27.779 -14.140   2.569  0.00  0.00     0.315 C 
ATOM      6  O   UNL d   1      27.674 -12.912   2.545  0.00  0.00    -0.262 OA
ATOM      7  N   UNL d   1      28.180 -14.855   3.704  0.00  0.00    -0.319 N 
ATOM      8  H   UNL d   1      28.533 -15.793   3.602  0.00  0.00     0.169 HD
BRANCH   7   9
ATOM      9  C   UNL d   1      28.470 -14.193   4.931  0.00  0.00     0.035 A 
ATOM     10  C   UNL d   1      29.593 -14.539   5.697  0.00  0.00     0.032 A 
ATOM     11  C   UNL d   1      29.851 -13.909   6.919  0.00  0.00     0.044 A 
ATOM     12  C   UNL d   1      28.976 -12.939   7.386  0.00  0.00     0.116 A 
ATOM     13  F   UNL d   1      29.205 -12.355   8.570  0.00  0.00    -0.206 F 
ATOM     14  C   UNL d   1      27.864 -12.569   6.637  0.00  0.00     0.044 A 
ATOM     15  C   UNL d   1      27.622 -13.179   5.396  0.00  0.00     0.032 A 
ENDBRANCH   7   9
ENDBRANCH   2   5
BRANCH   3  16
ATOM     16  N   UNL d   1      26.051 -15.522  -0.536  0.00  0.00    -0.296 N 
ATOM     17  H   UNL d   1      26.624 -15.402  -1.379  0.00  0.00     0.187 HD
BRANCH  16  18
ATOM     18  C   UNL d   1      24.962 -16.408  -0.550  0.00  0.00     0.070 A 
ATOM     19  C   UNL d   1      23.674 -15.983  -0.903  0.00  0.00     0.034 A 
ATOM     20  C   UNL d   1      22.590 -16.870  -0.894  0.00  0.00     0.026 A 
ATOM     21  C   UNL d   1      22.771 -18.192  -0.497  0.00  0.00     0.035 A 
ATOM     22 CL   UNL d   1      21.430 -19.271  -0.491  0.00  0.00    -0.084 Cl
ATOM     23  C   UNL d   1      24.029 -18.641  -0.112  0.00  0.00     0.050 A 
ATOM     24  C   UNL d   1      25.114 -17.755  -0.145  0.00  0.00     0.063 A 
ATOM     25 CL   UNL d   1      26.655 -18.362   0.361  0.00  0.00    -0.082 Cl
ENDBRANCH  16  18
ENDBRANCH   3  16
TORSDOF 4
ENDMDL
MODEL 8
REMARK VINA RESULT:    -6.664      1.643      2.101
REMARK INTER + INTRA:          -9.247
REMARK INTER:                  -7.857
REMARK INTRA:                  -1.389
REMARK CONF_INDEPENDENT:        1.193
REMARK UNBOUND:                -1.389
REMARK  4 active torsions:
REMARK  status: ('A' for Active; 'I' for Inactive)
REMARK       I    between atoms: C_2  and  N_3 
REMARK    1  A    between atoms: C_2  and  C_13 
REMARK    2  A    between atoms: N_3  and  N_4 
REMARK    3  A    between atoms: N_4  and  C_5 
REMARK       I    between atoms: C_13  and  N_15 
REMARK    4  A    between atoms: N_15  and  C_16 
ROOT
ATOM      1  O   UNL d   1      25.089 -17.728   0.167  0.00  0.00    -0.261 OA
ATOM      2  C   UNL d   1      24.235 -17.108  -0.474  0.00  0.00     0.328 C 
ATOM      3  N   UNL d   1      24.550 -15.960  -1.198  0.00  0.00    -0.261 N 
ATOM      4  H   UNL d   1      23.932 -15.531  -1.871  0.00  0.00     0.190 HD
ENDROOT
BRANCH   2   5
ATOM      5  C   UNL d   1      22.762 -17.608  -0.457  0.00  0.00     0.315 C 
ATOM      6  O   UNL d   1      21.899 -16.842  -0.889  0.00  0.00    -0.262 OA
ATOM      7  N   UNL d   1      22.471 -18.862   0.094  0.00  0.00    -0.319 N 
ATOM      8  H   UNL d   1      23.146 -19.313   0.689  0.00  0.00     0.169 HD
BRANCH   7   9
ATOM      9  C   UNL d   1      21.133 -19.347   0.162  0.00  0.00     0.035 A 
ATOM     10  C   UNL d   1      20.653 -19.996   1.309  0.00  0.00     0.032 A 
ATOM     11  C   UNL d   1      19.349 -20.502   1.356  0.00  0.00     0.044 A 
ATOM     12  C   UNL d   1      18.526 -20.371   0.248  0.00  0.00     0.116 A 
ATOM     13  F   UNL d   1      17.287 -20.881   0.278  0.00  0.00    -0.206 F 
ATOM     14  C   UNL d   1      18.976 -19.718  -0.895  0.00  0.00     0.044 A 
ATOM     15  C   UNL d   1      20.273 -19.184  -0.932  0.00  0.00     0.032 A 
ENDBRANCH   7   9
ENDBRANCH   2   5
BRANCH   3  16
ATOM     16  N   UNL d   1      25.914 -15.636  -1.304  0.00  0.00    -0.296 N 
ATOM     17  H   UNL d   1      26.607 -16.373  -1.136  0.00  0.00     0.187 HD
BRANCH  16  18
ATOM     18  C   UNL d   1      26.335 -14.313  -1.510  0.00  0.00     0.070 A 
ATOM     19  C   UNL d   1      27.004 -13.591  -0.513  0.00  0.00     0.034 A 
ATOM     20  C   UNL d   1      27.402 -12.264  -0.722  0.00  0.00     0.026 A 
ATOM     21  C   UNL d   1      27.105 -11.625  -1.922  0.00  0.00     0.035 A 
ATOM     22 CL   UNL d   1      27.601  -9.995  -2.165  0.00  0.00    -0.084 Cl
ATOM     23  C   UNL d   1      26.416 -12.301  -2.923  0.00  0.00     0.050 A 
ATOM     24  C   UNL d   1      26.041 -13.635  -2.716  0.00  0.00     0.063 A 
ATOM     25 CL   UNL d   1      25.170 -14.424  -3.989  0.00  0.00    -0.082 Cl
ENDBRANCH  16  18
ENDBRANCH   3  16
TORSDOF 4
ENDMDL
MODEL 9
REMARK VINA RESULT:    -6.232      5.432      9.907
REMARK INTER + INTRA:          -8.752
REMARK INTER:                  -7.425
REMARK INTRA:                  -1.327
REMARK CONF_INDEPENDENT:        1.193
REMARK UNBOUND:                -1.327
REMARK  4 active torsions:
REMARK  status: ('A' for Active; 'I' for Inactive)
REMARK       I    between atoms: C_2  and  N_3 
REMARK    1  A    between atoms: C_2  and  C_13 
REMARK    2  A    between atoms: N_3  and  N_4 
REMARK    3  A    between atoms: N_4  and  C_5 
REMARK       I    between atoms: C_13  and  N_15 
REMARK    4  A    between atoms: N_15  and  C_16 
ROOT
ATOM      1  O   UNL d   1      26.832 -13.619  -2.126  0.00  0.00    -0.261 OA
ATOM      2  C   UNL d   1      26.577 -14.481  -2.972  0.00  0.00     0.328 C 
ATOM      3  N   UNL d   1      26.016 -15.709  -2.623  0.00  0.00    -0.261 N 
ATOM      4  H   UNL d   1      25.630 -16.361  -3.290  0.00  0.00     0.190 HD
ENDROOT
BRANCH   2   5
ATOM      5  C   UNL d   1      26.906 -14.201  -4.466  0.00  0.00     0.315 C 
ATOM      6  O   UNL d   1      26.884 -15.158  -5.241  0.00  0.00    -0.262 OA
ATOM      7  N   UNL d   1      27.268 -12.905  -4.856  0.00  0.00    -0.319 N 
ATOM      8  H   UNL d   1      27.556 -12.238  -4.158  0.00  0.00     0.169 HD
BRANCH   7   9
ATOM      9  C   UNL d   1      27.612 -12.608  -6.206  0.00  0.00     0.035 A 
ATOM     10  C   UNL d   1      28.556 -13.377  -6.902  0.00  0.00     0.032 A 
ATOM     11  C   UNL d   1      28.916 -13.057  -8.215  0.00  0.00     0.044 A 
ATOM     12  C   UNL d   1      28.341 -11.956  -8.831  0.00  0.00     0.116 A 
ATOM     13  F   UNL d   1      28.706 -11.629 -10.079  0.00  0.00    -0.206 F 
ATOM     14  C   UNL d   1      27.393 -11.187  -8.166  0.00  0.00     0.044 A 
ATOM     15  C   UNL d   1      27.009 -11.525  -6.859  0.00  0.00     0.032 A 
ENDBRANCH   7   9
ENDBRANCH   2   5
BRANCH   3  16
ATOM     16  N   UNL d   1      25.600 -15.855  -1.288  0.00  0.00    -0.296 N 
ATOM     17  H   UNL d   1      26.159 -15.415  -0.550  0.00  0.00     0.187 HD
BRANCH  16  18
ATOM     18  C   UNL d   1      24.519 -16.683  -0.949  0.00  0.00     0.070 A 
ATOM     19  C   UNL d   1      23.198 -16.328  -1.253  0.00  0.00     0.034 A 
ATOM     20  C   UNL d   1      22.124 -17.151  -0.892  0.00  0.00     0.026 A 
ATOM     21  C   UNL d   1      22.352 -18.330  -0.186  0.00  0.00     0.035 A 
ATOM     22 CL   UNL d   1      21.023 -19.332   0.251  0.00  0.00    -0.084 Cl
ATOM     23  C   UNL d   1      23.647 -18.699   0.159  0.00  0.00     0.050 A 
ATOM     24  C   UNL d   1      24.718 -17.882  -0.226  0.00  0.00     0.063 A 
ATOM     25 CL   UNL d   1      26.309 -18.381   0.245  0.00  0.00    -0.082 Cl
ENDBRANCH  16  18
ENDBRANCH   3  16
TORSDOF 4
ENDMDL
