MODEL 1
REMARK VINA RESULT:   -22.844      0.000      0.000
REMARK INTER + INTRA:         -27.640
REMARK INTER:                 -26.125
REMARK INTRA:                  -1.515
REMARK CONF_INDEPENDENT:        3.281
REMARK UNBOUND:                -1.515
REMARK  11 active torsions:
REMARK  status: ('A' for Active; 'I' for Inactive)
REMARK    1  A    between atoms: O_2  and  C_3 
REMARK    2  A    between atoms: C_8  and  N_9 
REMARK    3  A    between atoms: N_9  and  C_10 
REMARK    4  A    between atoms: C_10  and  N_12 
REMARK    5  A    between atoms: N_12  and  C_13 
REMARK    6  A    between atoms: N_12  and  C_16 
REMARK    7  A    between atoms: C_13  and  C_14 
REMARK    8  A    between atoms: C_14  and  O_15 
REMARK    9  A    between atoms: C_16  and  C_17 
REMARK   10  A    between atoms: C_21  and  O_22 
REMARK   11  A    between atoms: C_24  and  O_25 
ROOT
ATOM      1  N   UNL d   1      24.649 -17.558  -0.732  0.00  0.00    -0.352 N 
ENDROOT
BRANCH   1   2
ATOM      2  C   UNL d   1      25.210 -16.257  -0.986  0.00  0.00     0.174 C 
ATOM      3  S   UNL d   1      25.743 -15.228   0.231  0.00  0.00    -0.041 SA
BRANCH   2   4
ATOM      4  N   UNL d   1      25.309 -15.980  -2.369  0.00  0.00    -0.331 N 
ATOM      5  H   UNL d   1      24.505 -15.662  -2.853  0.00  0.00     0.168 HD
BRANCH   4   6
ATOM      6  C   UNL d   1      26.389 -15.727  -3.226  0.00  0.00     0.068 C 
ATOM      7  C   UNL d   1      27.673 -16.162  -2.770  0.00  0.00     0.032 C 
ATOM      8  C   UNL d   1      28.801 -16.037  -3.577  0.00  0.00     0.002 C 
ATOM      9  C   UNL d   1      28.651 -15.467  -4.831  0.00  0.00     0.003 C 
ATOM     10  C   UNL d   1      27.414 -14.934  -5.217  0.00  0.00     0.039 C 
ATOM     11  C   UNL d   1      26.275 -15.030  -4.415  0.00  0.00     0.095 C 
BRANCH  11  12
ATOM     12  O   UNL d   1      25.155 -14.471  -4.953  0.00  0.00    -0.354 OA
ATOM     13  C   UNL d   1      24.800 -13.127  -4.648  0.00  0.00     0.210 C 
ENDBRANCH  11  12
ENDBRANCH   4   6
ENDBRANCH   2   4
ENDBRANCH   1   2
BRANCH   1  14
ATOM     14  C   UNL d   1      25.540 -18.538  -0.164  0.00  0.00     0.151 C 
BRANCH  14  15
ATOM     15  C   UNL d   1      26.535 -18.200   0.921  0.00  0.00     0.183 C 
BRANCH  15  16
ATOM     16  O   UNL d   1      27.030 -19.309   1.632  0.00  0.00    -0.399 OA
ATOM     17  H   UNL d   1      26.670 -19.244   2.530  0.00  0.00     0.209 HD
ENDBRANCH  15  16
ENDBRANCH  14  15
ENDBRANCH   1  14
BRANCH   1  18
ATOM     18  C   UNL d   1      23.449 -18.123  -1.499  0.00  0.00     0.169 C 
BRANCH  18  19
ATOM     19  C   UNL d   1      22.139 -18.516  -0.786  0.00  0.00     0.023 C 
ATOM     20  C   UNL d   1      22.092 -19.450   0.202  0.00  0.00     0.027 C 
ATOM     21  C   UNL d   1      20.801 -19.793   0.847  0.00  0.00    -0.011 A 
ATOM     22  C   UNL d   1      20.655 -20.190   2.172  0.00  0.00     0.053 A 
ATOM     23  C   UNL d   1      19.656 -19.696   0.044  0.00  0.00     0.028 A 
ATOM     24  C   UNL d   1      19.378 -20.518   2.672  0.00  0.00     0.102 A 
ATOM     25  C   UNL d   1      18.228 -20.318   1.871  0.00  0.00     0.103 A 
ATOM     26  C   UNL d   1      18.375 -19.941   0.537  0.00  0.00     0.064 A 
ATOM     27  N   UNL d   1      19.856 -19.151  -1.242  0.00  0.00    -0.224 NA
ATOM     28  C   UNL d   1      20.748 -18.106  -1.174  0.00  0.00     0.233 C 
ATOM     29  H   UNL d   1      19.021 -18.952  -1.774  0.00  0.00     0.137 HD
ATOM     30  O   UNL d   1      20.309 -16.955  -1.284  0.00  0.00    -0.274 OA
BRANCH  24  31
ATOM     31  O   UNL d   1      19.399 -21.041   3.947  0.00  0.00    -0.353 OA
ATOM     32  C   UNL d   1      19.905 -20.200   4.984  0.00  0.00     0.210 C 
ENDBRANCH  24  31
BRANCH  25  33
ATOM     33  O   UNL d   1      17.013 -20.464   2.480  0.00  0.00    -0.353 OA
ATOM     34  C   UNL d   1      16.679 -19.700   3.620  0.00  0.00     0.210 C 
ENDBRANCH  25  33
ENDBRANCH  18  19
ENDBRANCH   1  18
TORSDOF 11
ENDMDL
MODEL 2
REMARK VINA RESULT:   -22.090      2.280      2.742
REMARK INTER + INTRA:         -26.916
REMARK INTER:                 -25.372
REMARK INTRA:                  -1.545
REMARK CONF_INDEPENDENT:        3.281
REMARK UNBOUND:                -1.545
REMARK  11 active torsions:
REMARK  status: ('A' for Active; 'I' for Inactive)
REMARK    1  A    between atoms: O_2  and  C_3 
REMARK    2  A    between atoms: C_8  and  N_9 
REMARK    3  A    between atoms: N_9  and  C_10 
REMARK    4  A    between atoms: C_10  and  N_12 
REMARK    5  A    between atoms: N_12  and  C_13 
REMARK    6  A    between atoms: N_12  and  C_16 
REMARK    7  A    between atoms: C_13  and  C_14 
REMARK    8  A    between atoms: C_14  and  O_15 
REMARK    9  A    between atoms: C_16  and  C_17 
REMARK   10  A    between atoms: C_21  and  O_22 
REMARK   11  A    between atoms: C_24  and  O_25 
ROOT
ATOM      1  N   UNL d   1      24.566 -17.327  -0.748  0.00  0.00    -0.352 N 
ENDROOT
BRANCH   1   2
ATOM      2  C   UNL d   1      25.377 -16.314  -1.372  0.00  0.00     0.174 C 
ATOM      3  S   UNL d   1      25.552 -16.168  -3.037  0.00  0.00    -0.041 SA
BRANCH   2   4
ATOM      4  N   UNL d   1      25.951 -15.433  -0.426  0.00  0.00    -0.331 N 
ATOM      5  H   UNL d   1      25.603 -15.433   0.502  0.00  0.00     0.168 HD
BRANCH   4   6
ATOM      6  C   UNL d   1      27.165 -14.735  -0.373  0.00  0.00     0.068 C 
ATOM      7  C   UNL d   1      28.223 -15.245  -1.190  0.00  0.00     0.032 C 
ATOM      8  C   UNL d   1      29.445 -14.582  -1.277  0.00  0.00     0.002 C 
ATOM      9  C   UNL d   1      29.615 -13.419  -0.542  0.00  0.00     0.003 C 
ATOM     10  C   UNL d   1      28.616 -12.997   0.347  0.00  0.00     0.039 C 
ATOM     11  C   UNL d   1      27.392 -13.660   0.466  0.00  0.00     0.095 C 
BRANCH  11  12
ATOM     12  O   UNL d   1      26.534 -13.105   1.366  0.00  0.00    -0.354 OA
ATOM     13  C   UNL d   1      27.021 -12.542   2.579  0.00  0.00     0.210 C 
ENDBRANCH  11  12
ENDBRANCH   4   6
ENDBRANCH   2   4
ENDBRANCH   1   2
BRANCH   1  14
ATOM     14  C   UNL d   1      25.155 -18.016   0.372  0.00  0.00     0.151 C 
BRANCH  14  15
ATOM     15  C   UNL d   1      26.540 -18.619   0.320  0.00  0.00     0.183 C 
BRANCH  15  16
ATOM     16  O   UNL d   1      27.480 -17.868  -0.410  0.00  0.00    -0.399 OA
ATOM     17  H   UNL d   1      27.202 -17.906  -1.338  0.00  0.00     0.209 HD
ENDBRANCH  15  16
ENDBRANCH  14  15
ENDBRANCH   1  14
BRANCH   1  18
ATOM     18  C   UNL d   1      23.456 -18.087  -1.481  0.00  0.00     0.169 C 
BRANCH  18  19
ATOM     19  C   UNL d   1      22.145 -18.492  -0.777  0.00  0.00     0.023 C 
ATOM     20  C   UNL d   1      22.106 -19.400   0.236  0.00  0.00     0.027 C 
ATOM     21  C   UNL d   1      20.813 -19.756   0.871  0.00  0.00    -0.011 A 
ATOM     22  C   UNL d   1      20.657 -20.122   2.203  0.00  0.00     0.053 A 
ATOM     23  C   UNL d   1      19.678 -19.708   0.049  0.00  0.00     0.028 A 
ATOM     24  C   UNL d   1      19.381 -20.467   2.694  0.00  0.00     0.102 A 
ATOM     25  C   UNL d   1      18.238 -20.315   1.872  0.00  0.00     0.103 A 
ATOM     26  C   UNL d   1      18.397 -19.970   0.530  0.00  0.00     0.064 A 
ATOM     27  N   UNL d   1      19.885 -19.193  -1.248  0.00  0.00    -0.224 NA
ATOM     28  C   UNL d   1      20.751 -18.125  -1.195  0.00  0.00     0.233 C 
ATOM     29  H   UNL d   1      19.053 -19.027  -1.797  0.00  0.00     0.137 HD
ATOM     30  O   UNL d   1      20.287 -16.989  -1.342  0.00  0.00    -0.274 OA
BRANCH  24  31
ATOM     31  O   UNL d   1      19.394 -20.955   3.983  0.00  0.00    -0.353 OA
ATOM     32  C   UNL d   1      19.907 -20.091   4.998  0.00  0.00     0.210 C 
ENDBRANCH  24  31
BRANCH  25  33
ATOM     33  O   UNL d   1      17.018 -20.473   2.467  0.00  0.00    -0.353 OA
ATOM     34  C   UNL d   1      16.657 -19.701   3.594  0.00  0.00     0.210 C 
ENDBRANCH  25  33
ENDBRANCH  18  19
ENDBRANCH   1  18
TORSDOF 11
ENDMDL
MODEL 3
REMARK VINA RESULT:   -21.632      1.499      2.126
REMARK INTER + INTRA:         -27.510
REMARK INTER:                 -24.914
REMARK INTRA:                  -2.597
REMARK CONF_INDEPENDENT:        3.281
REMARK UNBOUND:                -2.597
REMARK  11 active torsions:
REMARK  status: ('A' for Active; 'I' for Inactive)
REMARK    1  A    between atoms: O_2  and  C_3 
REMARK    2  A    between atoms: C_8  and  N_9 
REMARK    3  A    between atoms: N_9  and  C_10 
REMARK    4  A    between atoms: C_10  and  N_12 
REMARK    5  A    between atoms: N_12  and  C_13 
REMARK    6  A    between atoms: N_12  and  C_16 
REMARK    7  A    between atoms: C_13  and  C_14 
REMARK    8  A    between atoms: C_14  and  O_15 
REMARK    9  A    between atoms: C_16  and  C_17 
REMARK   10  A    between atoms: C_21  and  O_22 
REMARK   11  A    between atoms: C_24  and  O_25 
ROOT
ATOM      1  N   UNL d   1      24.390 -17.015  -0.885  0.00  0.00    -0.352 N 
ENDROOT
BRANCH   1   2
ATOM      2  C   UNL d   1      24.816 -15.840  -1.598  0.00  0.00     0.174 C 
ATOM      3  S   UNL d   1      23.760 -14.829  -2.427  0.00  0.00    -0.041 SA
BRANCH   2   4
ATOM      4  N   UNL d   1      26.206 -15.612  -1.469  0.00  0.00    -0.331 N 
ATOM      5  H   UNL d   1      26.686 -16.005  -0.696  0.00  0.00     0.168 HD
BRANCH   4   6
ATOM      6  C   UNL d   1      27.204 -15.208  -2.366  0.00  0.00     0.068 C 
ATOM      7  C   UNL d   1      26.756 -14.550  -3.556  0.00  0.00     0.032 C 
ATOM      8  C   UNL d   1      27.665 -14.034  -4.475  0.00  0.00     0.002 C 
ATOM      9  C   UNL d   1      29.018 -14.183  -4.216  0.00  0.00     0.003 C 
ATOM     10  C   UNL d   1      29.443 -14.935  -3.111  0.00  0.00     0.039 C 
ATOM     11  C   UNL d   1      28.548 -15.480  -2.188  0.00  0.00     0.095 C 
BRANCH  11  12
ATOM     12  O   UNL d   1      29.135 -16.167  -1.169  0.00  0.00    -0.354 OA
ATOM     13  C   UNL d   1      30.306 -15.663  -0.538  0.00  0.00     0.210 C 
ENDBRANCH  11  12
ENDBRANCH   4   6
ENDBRANCH   2   4
ENDBRANCH   1   2
BRANCH   1  14
ATOM     14  C   UNL d   1      25.275 -17.492   0.147  0.00  0.00     0.151 C 
BRANCH  14  15
ATOM     15  C   UNL d   1      26.406 -18.454  -0.132  0.00  0.00     0.183 C 
BRANCH  15  16
ATOM     16  O   UNL d   1      27.679 -17.992   0.250  0.00  0.00    -0.399 OA
ATOM     17  H   UNL d   1      27.700 -17.044   0.048  0.00  0.00     0.209 HD
ENDBRANCH  15  16
ENDBRANCH  14  15
ENDBRANCH   1  14
BRANCH   1  18
ATOM     18  C   UNL d   1      23.441 -18.062  -1.477  0.00  0.00     0.169 C 
BRANCH  18  19
ATOM     19  C   UNL d   1      22.132 -18.467  -0.770  0.00  0.00     0.023 C 
ATOM     20  C   UNL d   1      22.091 -19.397   0.223  0.00  0.00     0.027 C 
ATOM     21  C   UNL d   1      20.800 -19.752   0.862  0.00  0.00    -0.011 A 
ATOM     22  C   UNL d   1      20.652 -20.145   2.188  0.00  0.00     0.053 A 
ATOM     23  C   UNL d   1      19.659 -19.672   0.053  0.00  0.00     0.028 A 
ATOM     24  C   UNL d   1      19.377 -20.486   2.683  0.00  0.00     0.102 A 
ATOM     25  C   UNL d   1      18.228 -20.303   1.876  0.00  0.00     0.103 A 
ATOM     26  C   UNL d   1      18.379 -19.930   0.540  0.00  0.00     0.064 A 
ATOM     27  N   UNL d   1      19.859 -19.131  -1.235  0.00  0.00    -0.224 NA
ATOM     28  C   UNL d   1      20.739 -18.075  -1.167  0.00  0.00     0.233 C 
ATOM     29  H   UNL d   1      19.025 -18.944  -1.772  0.00  0.00     0.137 HD
ATOM     30  O   UNL d   1      20.287 -16.930  -1.284  0.00  0.00    -0.274 OA
BRANCH  24  31
ATOM     31  O   UNL d   1      19.397 -21.002   3.961  0.00  0.00    -0.353 OA
ATOM     32  C   UNL d   1      19.908 -20.158   4.993  0.00  0.00     0.210 C 
ENDBRANCH  24  31
BRANCH  25  33
ATOM     33  O   UNL d   1      17.013 -20.460   2.479  0.00  0.00    -0.353 OA
ATOM     34  C   UNL d   1      16.666 -19.699   3.618  0.00  0.00     0.210 C 
ENDBRANCH  25  33
ENDBRANCH  18  19
ENDBRANCH   1  18
TORSDOF 11
ENDMDL
