MODEL 1
REMARK VINA RESULT:   -10.736      0.000      0.000
REMARK INTER + INTRA:         -16.751
REMARK INTER:                 -13.421
REMARK INTRA:                  -3.331
REMARK CONF_INDEPENDENT:        2.685
REMARK UNBOUND:                -3.331
REMARK  9 active torsions:
REMARK  status: ('A' for Active; 'I' for Inactive)
REMARK    1  A    between atoms: O_2  and  C_3 
REMARK    2  A    between atoms: C_7  and  C_6 
REMARK    3  A    between atoms: C_7  and  N_17 
REMARK    4  A    between atoms: C_7  and  C_8 
REMARK       I    between atoms: C_8  and  N_10 
REMARK    5  A    between atoms: N_10  and  C_11 
REMARK    6  A    between atoms: N_17  and  C_18 
REMARK       I    between atoms: N_17  and  C_25 
REMARK    7  A    between atoms: C_18  and  C_19 
REMARK    8  A    between atoms: C_25  and  C_27 
REMARK    9  A    between atoms: C_30  and  C_31 
REMARK       I    between atoms: C_31  and  N_32 
ROOT
ATOM      1  N   UNL d   1      25.868 -16.177  -1.308  0.00  0.00    -0.326 N 
ATOM      2  C   UNL d   1      25.142 -16.984  -0.360  0.00  0.00     0.265 C 
ATOM      3  O   UNL d   1      25.686 -17.527   0.573  0.00  0.00    -0.267 OA
ENDROOT
BRANCH   1   4
ATOM      4  C   UNL d   1      27.318 -15.749  -1.057  0.00  0.00     0.213 C 
BRANCH   4   5
ATOM      5  C   UNL d   1      28.337 -15.378  -2.286  0.00  0.00     0.245 C 
ATOM      6  O   UNL d   1      28.793 -14.250  -2.339  0.00  0.00    -0.271 OA
ATOM      7  N   UNL d   1      28.594 -16.325  -3.291  0.00  0.00    -0.354 N 
ATOM      8  H   UNL d   1      27.739 -16.607  -3.743  0.00  0.00     0.162 HD
BRANCH   7   9
ATOM      9  C   UNL d   1      29.722 -16.463  -4.257  0.00  0.00     0.084 C 
ATOM     10  C   UNL d   1      30.225 -17.885  -4.352  0.00  0.00     0.025 C 
ATOM     11  C   UNL d   1      31.129 -18.214  -5.534  0.00  0.00     0.002 C 
ATOM     12  C   UNL d   1      30.780 -17.601  -6.899  0.00  0.00     0.000 C 
ATOM     13  C   UNL d   1      30.336 -16.149  -6.789  0.00  0.00     0.002 C 
ATOM     14  C   UNL d   1      29.466 -15.719  -5.587  0.00  0.00     0.025 C 
ENDBRANCH   7   9
ENDBRANCH   4   5
BRANCH   4  15
ATOM     15  C   UNL d   1      27.478 -14.886   0.206  0.00  0.00    -0.026 C 
ATOM     16  C   UNL d   1      28.322 -15.195   1.273  0.00  0.00     0.012 C 
ATOM     17  C   UNL d   1      28.114 -14.717   2.555  0.00  0.00     0.037 C 
ATOM     18  C   UNL d   1      27.313 -13.611   2.714  0.00  0.00     0.068 C 
ATOM     19  C   UNL d   1      26.621 -13.113   1.625  0.00  0.00     0.037 C 
ATOM     20  C   UNL d   1      26.678 -13.769   0.409  0.00  0.00     0.012 C 
BRANCH  18  21
ATOM     21  O   UNL d   1      27.414 -12.983   3.914  0.00  0.00    -0.356 OA
ATOM     22  C   UNL d   1      28.056 -13.757   4.913  0.00  0.00     0.210 C 
ENDBRANCH  18  21
ENDBRANCH   4  15
ENDBRANCH   1   4
BRANCH   1  23
ATOM     23  C   UNL d   1      25.164 -15.796  -2.507  0.00  0.00     0.166 C 
BRANCH  23  24
ATOM     24  C   UNL d   1      25.604 -14.657  -3.312  0.00  0.00    -0.040 C 
ATOM     25  C   UNL d   1      26.097 -14.931  -4.575  0.00  0.00     0.009 C 
ATOM     26  C   UNL d   1      26.653 -13.893  -5.265  0.00  0.00     0.001 C 
ATOM     27  C   UNL d   1      26.397 -12.612  -4.787  0.00  0.00     0.000 C 
ATOM     28  C   UNL d   1      25.851 -12.299  -3.568  0.00  0.00     0.001 C 
ATOM     29  C   UNL d   1      25.527 -13.349  -2.774  0.00  0.00     0.009 C 
ENDBRANCH  23  24
ENDBRANCH   1  23
BRANCH   2  30
ATOM     30  C   UNL d   1      23.713 -17.223  -0.592  0.00  0.00     0.120 C 
ATOM     31  S   UNL d   1      22.562 -15.976  -0.809  0.00  0.00     0.020 SA
ATOM     32  N   UNL d   1      21.212 -16.979  -0.932  0.00  0.00    -0.203 NA
ATOM     33  C   UNL d   1      21.616 -18.246  -0.749  0.00  0.00     0.160 C 
ATOM     34  C   UNL d   1      23.016 -18.398  -0.482  0.00  0.00     0.085 C 
ATOM     35  N   UNL d   1      23.581 -19.579  -0.145  0.00  0.00    -0.396 N 
ATOM     36  H   UNL d   1      23.096 -20.450  -0.382  0.00  0.00     0.156 HD
ATOM     37  H   UNL d   1      24.572 -19.695   0.045  0.00  0.00     0.156 HD
BRANCH  33  38
ATOM     38  C   UNL d   1      20.727 -19.426  -0.776  0.00  0.00     0.271 C 
ATOM     39  N   UNL d   1      20.698 -20.243   0.317  0.00  0.00    -0.365 N 
ATOM     40  H   UNL d   1      21.261 -20.073   1.134  0.00  0.00     0.159 HD
ATOM     41  H   UNL d   1      20.090 -21.047   0.250  0.00  0.00     0.159 HD
ATOM     42  O   UNL d   1      20.012 -19.701  -1.730  0.00  0.00    -0.266 OA
ENDBRANCH  33  38
ENDBRANCH   2  30
TORSDOF 9
ENDMDL
MODEL 2
REMARK VINA RESULT:   -10.636      1.687      5.330
REMARK INTER + INTRA:         -16.347
REMARK INTER:                 -13.320
REMARK INTRA:                  -3.027
REMARK CONF_INDEPENDENT:        2.685
REMARK UNBOUND:                -3.027
REMARK  9 active torsions:
REMARK  status: ('A' for Active; 'I' for Inactive)
REMARK    1  A    between atoms: O_2  and  C_3 
REMARK    2  A    between atoms: C_7  and  C_6 
REMARK    3  A    between atoms: C_7  and  N_17 
REMARK    4  A    between atoms: C_7  and  C_8 
REMARK       I    between atoms: C_8  and  N_10 
REMARK    5  A    between atoms: N_10  and  C_11 
REMARK    6  A    between atoms: N_17  and  C_18 
REMARK       I    between atoms: N_17  and  C_25 
REMARK    7  A    between atoms: C_18  and  C_19 
REMARK    8  A    between atoms: C_25  and  C_27 
REMARK    9  A    between atoms: C_30  and  C_31 
REMARK       I    between atoms: C_31  and  N_32 
ROOT
ATOM      1  N   UNL d   1      25.776 -15.815  -1.284  0.00  0.00    -0.326 N 
ATOM      2  C   UNL d   1      25.176 -16.812  -0.433  0.00  0.00     0.265 C 
ATOM      3  O   UNL d   1      25.820 -17.439   0.376  0.00  0.00    -0.267 OA
ENDROOT
BRANCH   1   4
ATOM      4  C   UNL d   1      27.203 -15.308  -1.048  0.00  0.00     0.213 C 
BRANCH   4   5
ATOM      5  C   UNL d   1      27.577 -14.330   0.213  0.00  0.00     0.245 C 
ATOM      6  O   UNL d   1      27.963 -13.200  -0.027  0.00  0.00    -0.271 OA
ATOM      7  N   UNL d   1      27.532 -14.830   1.524  0.00  0.00    -0.354 N 
ATOM      8  H   UNL d   1      28.145 -15.624   1.624  0.00  0.00     0.162 HD
BRANCH   7   9
ATOM      9  C   UNL d   1      27.405 -14.146   2.843  0.00  0.00     0.084 C 
ATOM     10  C   UNL d   1      28.218 -14.825   3.922  0.00  0.00     0.025 C 
ATOM     11  C   UNL d   1      28.440 -14.039   5.208  0.00  0.00     0.002 C 
ATOM     12  C   UNL d   1      28.725 -12.534   5.091  0.00  0.00     0.000 C 
ATOM     13  C   UNL d   1      27.852 -11.855   4.044  0.00  0.00     0.002 C 
ATOM     14  C   UNL d   1      27.529 -12.610   2.735  0.00  0.00     0.025 C 
ENDBRANCH   7   9
ENDBRANCH   4   5
BRANCH   4  15
ATOM     15  C   UNL d   1      28.276 -16.349  -1.406  0.00  0.00    -0.026 C 
ATOM     16  C   UNL d   1      28.843 -17.246  -0.499  0.00  0.00     0.012 C 
ATOM     17  C   UNL d   1      30.091 -17.813  -0.688  0.00  0.00     0.037 C 
ATOM     18  C   UNL d   1      30.615 -17.821  -1.960  0.00  0.00     0.068 C 
ATOM     19  C   UNL d   1      29.965 -17.130  -2.965  0.00  0.00     0.037 C 
ATOM     20  C   UNL d   1      28.840 -16.380  -2.675  0.00  0.00     0.012 C 
BRANCH  18  21
ATOM     21  O   UNL d   1      31.655 -18.673  -2.158  0.00  0.00    -0.356 OA
ATOM     22  C   UNL d   1      32.288 -19.093  -0.962  0.00  0.00     0.210 C 
ENDBRANCH  18  21
ENDBRANCH   4  15
ENDBRANCH   1   4
BRANCH   1  23
ATOM     23  C   UNL d   1      24.968 -15.321  -2.370  0.00  0.00     0.166 C 
BRANCH  23  24
ATOM     24  C   UNL d   1      25.554 -14.517  -3.443  0.00  0.00    -0.040 C 
ATOM     25  C   UNL d   1      26.177 -15.199  -4.472  0.00  0.00     0.009 C 
ATOM     26  C   UNL d   1      26.860 -14.453  -5.390  0.00  0.00     0.001 C 
ATOM     27  C   UNL d   1      26.612 -13.084  -5.395  0.00  0.00     0.000 C 
ATOM     28  C   UNL d   1      25.943 -12.380  -4.425  0.00  0.00     0.001 C 
ATOM     29  C   UNL d   1      25.478 -13.105  -3.378  0.00  0.00     0.009 C 
ENDBRANCH  23  24
ENDBRANCH   1  23
BRANCH   2  30
ATOM     30  C   UNL d   1      23.757 -17.134  -0.622  0.00  0.00     0.120 C 
ATOM     31  S   UNL d   1      22.533 -15.957  -0.823  0.00  0.00     0.020 SA
ATOM     32  N   UNL d   1      21.239 -17.036  -0.896  0.00  0.00    -0.203 NA
ATOM     33  C   UNL d   1      21.718 -18.276  -0.709  0.00  0.00     0.160 C 
ATOM     34  C   UNL d   1      23.132 -18.345  -0.479  0.00  0.00     0.085 C 
ATOM     35  N   UNL d   1      23.771 -19.487  -0.144  0.00  0.00    -0.396 N 
ATOM     36  H   UNL d   1      23.331 -20.388  -0.357  0.00  0.00     0.156 HD
ATOM     37  H   UNL d   1      24.772 -19.545   0.020  0.00  0.00     0.156 HD
BRANCH  33  38
ATOM     38  C   UNL d   1      20.897 -19.504  -0.697  0.00  0.00     0.271 C 
ATOM     39  N   UNL d   1      20.840 -20.237   0.453  0.00  0.00    -0.365 N 
ATOM     40  H   UNL d   1      21.337 -19.972   1.287  0.00  0.00     0.159 HD
ATOM     41  H   UNL d   1      20.282 -21.078   0.412  0.00  0.00     0.159 HD
ATOM     42  O   UNL d   1      20.263 -19.892  -1.669  0.00  0.00    -0.266 OA
ENDBRANCH  33  38
ENDBRANCH   2  30
TORSDOF 9
ENDMDL
MODEL 3
REMARK VINA RESULT:    -9.937      2.926      7.372
REMARK INTER + INTRA:         -16.181
REMARK INTER:                 -12.622
REMARK INTRA:                  -3.560
REMARK CONF_INDEPENDENT:        2.685
REMARK UNBOUND:                -3.560
REMARK  9 active torsions:
REMARK  status: ('A' for Active; 'I' for Inactive)
REMARK    1  A    between atoms: O_2  and  C_3 
REMARK    2  A    between atoms: C_7  and  C_6 
REMARK    3  A    between atoms: C_7  and  N_17 
REMARK    4  A    between atoms: C_7  and  C_8 
REMARK       I    between atoms: C_8  and  N_10 
REMARK    5  A    between atoms: N_10  and  C_11 
REMARK    6  A    between atoms: N_17  and  C_18 
REMARK       I    between atoms: N_17  and  C_25 
REMARK    7  A    between atoms: C_18  and  C_19 
REMARK    8  A    between atoms: C_25  and  C_27 
REMARK    9  A    between atoms: C_30  and  C_31 
REMARK       I    between atoms: C_31  and  N_32 
ROOT
ATOM      1  N   UNL d   1      26.977 -15.117  -1.293  0.00  0.00    -0.326 N 
ATOM      2  C   UNL d   1      27.446 -13.930  -0.621  0.00  0.00     0.265 C 
ATOM      3  O   UNL d   1      27.926 -12.998  -1.222  0.00  0.00    -0.267 OA
ENDROOT
BRANCH   1   4
ATOM      4  C   UNL d   1      26.826 -15.172  -2.817  0.00  0.00     0.213 C 
BRANCH   4   5
ATOM      5  C   UNL d   1      25.900 -14.097  -3.635  0.00  0.00     0.245 C 
ATOM      6  O   UNL d   1      24.824 -14.470  -4.067  0.00  0.00    -0.271 OA
ATOM      7  N   UNL d   1      26.392 -12.808  -3.898  0.00  0.00    -0.354 N 
ATOM      8  H   UNL d   1      27.253 -12.854  -4.420  0.00  0.00     0.162 HD
BRANCH   7   9
ATOM      9  C   UNL d   1      25.697 -11.528  -4.221  0.00  0.00     0.084 C 
ATOM     10  C   UNL d   1      25.902 -10.478  -3.153  0.00  0.00     0.025 C 
ATOM     11  C   UNL d   1      25.535  -9.047  -3.523  0.00  0.00     0.002 C 
ATOM     12  C   UNL d   1      25.889  -8.553  -4.934  0.00  0.00     0.000 C 
ATOM     13  C   UNL d   1      25.616  -9.603  -6.003  0.00  0.00     0.002 C 
ATOM     14  C   UNL d   1      25.905 -11.088  -5.687  0.00  0.00     0.025 C 
ENDBRANCH   7   9
ENDBRANCH   4   5
BRANCH   4  15
ATOM     15  C   UNL d   1      28.120 -15.596  -3.532  0.00  0.00    -0.026 C 
ATOM     16  C   UNL d   1      28.470 -15.213  -4.827  0.00  0.00     0.012 C 
ATOM     17  C   UNL d   1      29.337 -15.947  -5.617  0.00  0.00     0.037 C 
ATOM     18  C   UNL d   1      30.179 -16.842  -5.000  0.00  0.00     0.068 C 
ATOM     19  C   UNL d   1      30.026 -17.095  -3.649  0.00  0.00     0.037 C 
ATOM     20  C   UNL d   1      28.989 -16.508  -2.947  0.00  0.00     0.012 C 
BRANCH  18  21
ATOM     21  O   UNL d   1      31.225 -17.274  -5.751  0.00  0.00    -0.356 OA
ATOM     22  C   UNL d   1      30.939 -18.428  -6.522  0.00  0.00     0.210 C 
ENDBRANCH  18  21
ENDBRANCH   4  15
ENDBRANCH   1   4
BRANCH   1  23
ATOM     23  C   UNL d   1      26.663 -16.250  -0.460  0.00  0.00     0.166 C 
BRANCH  23  24
ATOM     24  C   UNL d   1      25.341 -16.875  -0.500  0.00  0.00    -0.040 C 
ATOM     25  C   UNL d   1      24.301 -16.114  -1.002  0.00  0.00     0.009 C 
ATOM     26  C   UNL d   1      23.042 -16.633  -0.895  0.00  0.00     0.001 C 
ATOM     27  C   UNL d   1      22.945 -17.986  -0.587  0.00  0.00     0.000 C 
ATOM     28  C   UNL d   1      23.966 -18.790  -0.146  0.00  0.00     0.001 C 
ATOM     29  C   UNL d   1      25.177 -18.195  -0.016  0.00  0.00     0.009 C 
ENDBRANCH  23  24
ENDBRANCH   1  23
BRANCH   2  30
ATOM     30  C   UNL d   1      27.416 -13.897   0.846  0.00  0.00     0.120 C 
ATOM     31  S   UNL d   1      26.280 -12.997   1.755  0.00  0.00     0.020 SA
ATOM     32  N   UNL d   1      26.905 -13.379   3.274  0.00  0.00    -0.203 NA
ATOM     33  C   UNL d   1      28.002 -14.132   3.097  0.00  0.00     0.160 C 
ATOM     34  C   UNL d   1      28.350 -14.375   1.728  0.00  0.00     0.085 C 
ATOM     35  N   UNL d   1      29.488 -14.999   1.353  0.00  0.00    -0.396 N 
ATOM     36  H   UNL d   1      29.975 -15.598   2.028  0.00  0.00     0.156 HD
ATOM     37  H   UNL d   1      29.742 -15.176   0.385  0.00  0.00     0.156 HD
BRANCH  33  38
ATOM     38  C   UNL d   1      28.842 -14.666   4.189  0.00  0.00     0.271 C 
ATOM     39  N   UNL d   1      28.241 -15.003   5.367  0.00  0.00    -0.365 N 
ATOM     40  H   UNL d   1      27.251 -14.897   5.518  0.00  0.00     0.159 HD
ATOM     41  H   UNL d   1      28.855 -15.347   6.092  0.00  0.00     0.159 HD
ATOM     42  O   UNL d   1      30.051 -14.825   4.083  0.00  0.00    -0.266 OA
ENDBRANCH  33  38
ENDBRANCH   2  30
TORSDOF 9
ENDMDL
MODEL 4
REMARK VINA RESULT:    -9.924      3.012      7.694
REMARK INTER + INTRA:         -16.353
REMARK INTER:                 -12.609
REMARK INTRA:                  -3.744
REMARK CONF_INDEPENDENT:        2.685
REMARK UNBOUND:                -3.744
REMARK  9 active torsions:
REMARK  status: ('A' for Active; 'I' for Inactive)
REMARK    1  A    between atoms: O_2  and  C_3 
REMARK    2  A    between atoms: C_7  and  C_6 
REMARK    3  A    between atoms: C_7  and  N_17 
REMARK    4  A    between atoms: C_7  and  C_8 
REMARK       I    between atoms: C_8  and  N_10 
REMARK    5  A    between atoms: N_10  and  C_11 
REMARK    6  A    between atoms: N_17  and  C_18 
REMARK       I    between atoms: N_17  and  C_25 
REMARK    7  A    between atoms: C_18  and  C_19 
REMARK    8  A    between atoms: C_25  and  C_27 
REMARK    9  A    between atoms: C_30  and  C_31 
REMARK       I    between atoms: C_31  and  N_32 
ROOT
ATOM      1  N   UNL d   1      27.894 -14.968  -1.425  0.00  0.00    -0.326 N 
ATOM      2  C   UNL d   1      28.294 -15.942  -2.409  0.00  0.00     0.265 C 
ATOM      3  O   UNL d   1      28.519 -17.094  -2.121  0.00  0.00    -0.267 OA
ENDROOT
BRANCH   1   4
ATOM      4  C   UNL d   1      27.488 -15.378  -0.005  0.00  0.00     0.213 C 
BRANCH   4   5
ATOM      5  C   UNL d   1      27.600 -14.344   1.261  0.00  0.00     0.245 C 
ATOM      6  O   UNL d   1      27.422 -13.156   1.056  0.00  0.00    -0.271 OA
ATOM      7  N   UNL d   1      27.979 -14.825   2.525  0.00  0.00    -0.354 N 
ATOM      8  H   UNL d   1      28.881 -15.274   2.479  0.00  0.00     0.162 HD
BRANCH   7   9
ATOM      9  C   UNL d   1      27.781 -14.273   3.896  0.00  0.00     0.084 C 
ATOM     10  C   UNL d   1      28.570 -15.030   4.939  0.00  0.00     0.025 C 
ATOM     11  C   UNL d   1      28.718 -14.365   6.302  0.00  0.00     0.002 C 
ATOM     12  C   UNL d   1      28.961 -12.848   6.340  0.00  0.00     0.000 C 
ATOM     13  C   UNL d   1      28.110 -12.097   5.326  0.00  0.00     0.002 C 
ATOM     14  C   UNL d   1      27.862 -12.731   3.939  0.00  0.00     0.025 C 
ENDBRANCH   7   9
ENDBRANCH   4   5
BRANCH   4  15
ATOM     15  C   UNL d   1      26.266 -16.312   0.022  0.00  0.00    -0.026 C 
ATOM     16  C   UNL d   1      26.264 -17.596   0.567  0.00  0.00     0.012 C 
ATOM     17  C   UNL d   1      25.368 -18.575   0.175  0.00  0.00     0.037 C 
ATOM     18  C   UNL d   1      24.213 -18.182  -0.460  0.00  0.00     0.068 C 
ATOM     19  C   UNL d   1      24.057 -16.857  -0.825  0.00  0.00     0.037 C 
ATOM     20  C   UNL d   1      25.086 -15.957  -0.620  0.00  0.00     0.012 C 
BRANCH  18  21
ATOM     21  O   UNL d   1      23.228 -19.117  -0.514  0.00  0.00    -0.356 OA
ATOM     22  C   UNL d   1      21.940 -18.610  -0.212  0.00  0.00     0.210 C 
ENDBRANCH  18  21
ENDBRANCH   4  15
ENDBRANCH   1   4
BRANCH   1  23
ATOM     23  C   UNL d   1      27.902 -13.588  -1.840  0.00  0.00     0.166 C 
BRANCH  23  24
ATOM     24  C   UNL d   1      27.063 -13.127  -2.947  0.00  0.00    -0.040 C 
ATOM     25  C   UNL d   1      25.769 -13.612  -3.001  0.00  0.00     0.009 C 
ATOM     26  C   UNL d   1      25.037 -13.311  -4.113  0.00  0.00     0.001 C 
ATOM     27  C   UNL d   1      25.530 -12.302  -4.935  0.00  0.00     0.000 C 
ATOM     28  C   UNL d   1      26.784 -11.750  -4.873  0.00  0.00     0.001 C 
ATOM     29  C   UNL d   1      27.602 -12.239  -3.909  0.00  0.00     0.009 C 
ENDBRANCH  23  24
ENDBRANCH   1  23
BRANCH   2  30
ATOM     30  C   UNL d   1      28.517 -15.493  -3.789  0.00  0.00     0.120 C 
ATOM     31  S   UNL d   1      27.333 -15.575  -5.020  0.00  0.00     0.020 SA
ATOM     32  N   UNL d   1      28.309 -14.987  -6.264  0.00  0.00    -0.203 NA
ATOM     33  C   UNL d   1      29.541 -14.787  -5.769  0.00  0.00     0.160 C 
ATOM     34  C   UNL d   1      29.697 -15.137  -4.388  0.00  0.00     0.085 C 
ATOM     35  N   UNL d   1      30.891 -15.127  -3.753  0.00  0.00    -0.396 N 
ATOM     36  H   UNL d   1      31.658 -14.567  -4.140  0.00  0.00     0.156 HD
ATOM     37  H   UNL d   1      31.010 -15.374  -2.775  0.00  0.00     0.156 HD
BRANCH  33  38
ATOM     38  C   UNL d   1      30.689 -14.280  -6.548  0.00  0.00     0.271 C 
ATOM     39  N   UNL d   1      30.488 -13.929  -7.851  0.00  0.00    -0.365 N 
ATOM     40  H   UNL d   1      29.589 -14.007  -8.299  0.00  0.00     0.159 HD
ATOM     41  H   UNL d   1      31.303 -13.605  -8.352  0.00  0.00     0.159 HD
ATOM     42  O   UNL d   1      31.812 -14.156  -6.076  0.00  0.00    -0.266 OA
ENDBRANCH  33  38
ENDBRANCH   2  30
TORSDOF 9
ENDMDL
MODEL 5
REMARK VINA RESULT:    -9.606      2.702      7.355
REMARK INTER + INTRA:         -16.174
REMARK INTER:                 -12.290
REMARK INTRA:                  -3.884
REMARK CONF_INDEPENDENT:        2.685
REMARK UNBOUND:                -3.884
REMARK  9 active torsions:
REMARK  status: ('A' for Active; 'I' for Inactive)
REMARK    1  A    between atoms: O_2  and  C_3 
REMARK    2  A    between atoms: C_7  and  C_6 
REMARK    3  A    between atoms: C_7  and  N_17 
REMARK    4  A    between atoms: C_7  and  C_8 
REMARK       I    between atoms: C_8  and  N_10 
REMARK    5  A    between atoms: N_10  and  C_11 
REMARK    6  A    between atoms: N_17  and  C_18 
REMARK       I    between atoms: N_17  and  C_25 
REMARK    7  A    between atoms: C_18  and  C_19 
REMARK    8  A    between atoms: C_25  and  C_27 
REMARK    9  A    between atoms: C_30  and  C_31 
REMARK       I    between atoms: C_31  and  N_32 
ROOT
ATOM      1  N   UNL d   1      26.618 -15.983  -1.955  0.00  0.00    -0.326 N 
ATOM      2  C   UNL d   1      27.859 -16.167  -2.664  0.00  0.00     0.265 C 
ATOM      3  O   UNL d   1      28.808 -16.728  -2.167  0.00  0.00    -0.267 OA
ENDROOT
BRANCH   1   4
ATOM      4  C   UNL d   1      26.333 -16.700  -0.631  0.00  0.00     0.213 C 
BRANCH   4   5
ATOM      5  C   UNL d   1      27.021 -16.222   0.778  0.00  0.00     0.245 C 
ATOM      6  O   UNL d   1      27.405 -17.079   1.554  0.00  0.00    -0.271 OA
ATOM      7  N   UNL d   1      27.075 -14.857   1.102  0.00  0.00    -0.354 N 
ATOM      8  H   UNL d   1      26.150 -14.457   1.119  0.00  0.00     0.162 HD
BRANCH   7   9
ATOM      9  C   UNL d   1      27.951 -14.094   2.038  0.00  0.00     0.084 C 
ATOM     10  C   UNL d   1      27.405 -14.076   3.448  0.00  0.00     0.025 C 
ATOM     11  C   UNL d   1      28.362 -13.630   4.546  0.00  0.00     0.002 C 
ATOM     12  C   UNL d   1      29.821 -14.105   4.466  0.00  0.00     0.000 C 
ATOM     13  C   UNL d   1      30.373 -14.055   3.048  0.00  0.00     0.002 C 
ATOM     14  C   UNL d   1      29.448 -14.435   1.870  0.00  0.00     0.025 C 
ENDBRANCH   7   9
ENDBRANCH   4   5
BRANCH   4  15
ATOM     15  C   UNL d   1      24.880 -17.189  -0.514  0.00  0.00    -0.026 C 
ATOM     16  C   UNL d   1      24.494 -18.530  -0.517  0.00  0.00     0.012 C 
ATOM     17  C   UNL d   1      23.228 -18.943  -0.894  0.00  0.00     0.037 C 
ATOM     18  C   UNL d   1      22.211 -18.018  -0.881  0.00  0.00     0.068 C 
ATOM     19  C   UNL d   1      22.509 -16.687  -0.652  0.00  0.00     0.037 C 
ATOM     20  C   UNL d   1      23.824 -16.286  -0.512  0.00  0.00     0.012 C 
BRANCH  18  21
ATOM     21  O   UNL d   1      20.953 -18.530  -0.919  0.00  0.00    -0.356 OA
ATOM     22  C   UNL d   1      20.674 -19.442   0.129  0.00  0.00     0.210 C 
ENDBRANCH  18  21
ENDBRANCH   4  15
ENDBRANCH   1   4
BRANCH   1  23
ATOM     23  C   UNL d   1      25.659 -15.087  -2.551  0.00  0.00     0.166 C 
BRANCH  23  24
ATOM     24  C   UNL d   1      25.953 -13.662  -2.711  0.00  0.00    -0.040 C 
ATOM     25  C   UNL d   1      25.341 -13.008  -3.764  0.00  0.00     0.009 C 
ATOM     26  C   UNL d   1      25.733 -11.723  -4.011  0.00  0.00     0.001 C 
ATOM     27  C   UNL d   1      26.465 -11.088  -3.013  0.00  0.00     0.000 C 
ATOM     28  C   UNL d   1      27.035 -11.691  -1.920  0.00  0.00     0.001 C 
ATOM     29  C   UNL d   1      26.847 -13.029  -1.814  0.00  0.00     0.009 C 
ENDBRANCH  23  24
ENDBRANCH   1  23
BRANCH   2  30
ATOM     30  C   UNL d   1      27.999 -15.574  -4.000  0.00  0.00     0.120 C 
ATOM     31  S   UNL d   1      26.748 -15.553  -5.167  0.00  0.00     0.020 SA
ATOM     32  N   UNL d   1      27.644 -14.820  -6.394  0.00  0.00    -0.203 NA
ATOM     33  C   UNL d   1      28.898 -14.647  -5.949  0.00  0.00     0.160 C 
ATOM     34  C   UNL d   1      29.138 -15.135  -4.622  0.00  0.00     0.085 C 
ATOM     35  N   UNL d   1      30.364 -15.166  -4.056  0.00  0.00    -0.396 N 
ATOM     36  H   UNL d   1      31.100 -14.554  -4.423  0.00  0.00     0.156 HD
ATOM     37  H   UNL d   1      30.543 -15.510  -3.116  0.00  0.00     0.156 HD
BRANCH  33  38
ATOM     38  C   UNL d   1      29.994 -14.040  -6.732  0.00  0.00     0.271 C 
ATOM     39  N   UNL d   1      29.743 -13.666  -8.020  0.00  0.00    -0.365 N 
ATOM     40  H   UNL d   1      28.843 -13.793  -8.454  0.00  0.00     0.159 HD
ATOM     41  H   UNL d   1      30.524 -13.272  -8.525  0.00  0.00     0.159 HD
ATOM     42  O   UNL d   1      31.114 -13.852  -6.277  0.00  0.00    -0.266 OA
ENDBRANCH  33  38
ENDBRANCH   2  30
TORSDOF 9
ENDMDL
MODEL 6
REMARK VINA RESULT:    -9.456      1.163      1.647
REMARK INTER + INTRA:         -16.777
REMARK INTER:                 -12.141
REMARK INTRA:                  -4.635
REMARK CONF_INDEPENDENT:        2.685
REMARK UNBOUND:                -4.635
REMARK  9 active torsions:
REMARK  status: ('A' for Active; 'I' for Inactive)
REMARK    1  A    between atoms: O_2  and  C_3 
REMARK    2  A    between atoms: C_7  and  C_6 
REMARK    3  A    between atoms: C_7  and  N_17 
REMARK    4  A    between atoms: C_7  and  C_8 
REMARK       I    between atoms: C_8  and  N_10 
REMARK    5  A    between atoms: N_10  and  C_11 
REMARK    6  A    between atoms: N_17  and  C_18 
REMARK       I    between atoms: N_17  and  C_25 
REMARK    7  A    between atoms: C_18  and  C_19 
REMARK    8  A    between atoms: C_25  and  C_27 
REMARK    9  A    between atoms: C_30  and  C_31 
REMARK       I    between atoms: C_31  and  N_32 
ROOT
ATOM      1  N   UNL d   1      25.790 -16.612  -1.289  0.00  0.00    -0.326 N 
ATOM      2  C   UNL d   1      24.913 -17.174  -0.293  0.00  0.00     0.265 C 
ATOM      3  O   UNL d   1      25.325 -17.608   0.757  0.00  0.00    -0.267 OA
ENDROOT
BRANCH   1   4
ATOM      4  C   UNL d   1      27.259 -16.299  -0.984  0.00  0.00     0.213 C 
BRANCH   4   5
ATOM      5  C   UNL d   1      28.414 -16.347  -2.145  0.00  0.00     0.245 C 
ATOM      6  O   UNL d   1      28.878 -17.430  -2.456  0.00  0.00    -0.271 OA
ATOM      7  N   UNL d   1      28.906 -15.150  -2.692  0.00  0.00    -0.354 N 
ATOM      8  H   UNL d   1      29.291 -14.560  -1.970  0.00  0.00     0.162 HD
BRANCH   7   9
ATOM      9  C   UNL d   1      29.603 -14.861  -3.979  0.00  0.00     0.084 C 
ATOM     10  C   UNL d   1      29.342 -15.922  -5.023  0.00  0.00     0.025 C 
ATOM     11  C   UNL d   1      29.711 -15.573  -6.459  0.00  0.00     0.002 C 
ATOM     12  C   UNL d   1      29.414 -14.149  -6.954  0.00  0.00     0.000 C 
ATOM     13  C   UNL d   1      29.743 -13.090  -5.910  0.00  0.00     0.002 C 
ATOM     14  C   UNL d   1      29.454 -13.389  -4.422  0.00  0.00     0.025 C 
ENDBRANCH   7   9
ENDBRANCH   4   5
BRANCH   4  15
ATOM     15  C   UNL d   1      27.429 -15.183   0.060  0.00  0.00    -0.026 C 
ATOM     16  C   UNL d   1      28.191 -15.298   1.224  0.00  0.00     0.012 C 
ATOM     17  C   UNL d   1      27.961 -14.525   2.348  0.00  0.00     0.037 C 
ATOM     18  C   UNL d   1      27.249 -13.357   2.200  0.00  0.00     0.068 C 
ATOM     19  C   UNL d   1      26.656 -13.075   0.983  0.00  0.00     0.037 C 
ATOM     20  C   UNL d   1      26.718 -13.995  -0.047  0.00  0.00     0.012 C 
BRANCH  18  21
ATOM     21  O   UNL d   1      27.344 -12.479   3.232  0.00  0.00    -0.356 OA
ATOM     22  C   UNL d   1      27.838 -13.054   4.429  0.00  0.00     0.210 C 
ENDBRANCH  18  21
ENDBRANCH   4  15
ENDBRANCH   1   4
BRANCH   1  23
ATOM     23  C   UNL d   1      25.219 -16.365  -2.589  0.00  0.00     0.166 C 
BRANCH  23  24
ATOM     24  C   UNL d   1      25.526 -15.141  -3.330  0.00  0.00    -0.040 C 
ATOM     25  C   UNL d   1      25.166 -13.942  -2.742  0.00  0.00     0.009 C 
ATOM     26  C   UNL d   1      25.306 -12.813  -3.496  0.00  0.00     0.001 C 
ATOM     27  C   UNL d   1      26.079 -12.919  -4.649  0.00  0.00     0.000 C 
ATOM     28  C   UNL d   1      26.510 -14.086  -5.228  0.00  0.00     0.001 C 
ATOM     29  C   UNL d   1      26.149 -15.231  -4.598  0.00  0.00     0.009 C 
ENDBRANCH  23  24
ENDBRANCH   1  23
BRANCH   2  30
ATOM     30  C   UNL d   1      23.485 -17.300  -0.607  0.00  0.00     0.120 C 
ATOM     31  S   UNL d   1      22.454 -15.968  -0.905  0.00  0.00     0.020 SA
ATOM     32  N   UNL d   1      21.037 -16.862  -1.098  0.00  0.00    -0.203 NA
ATOM     33  C   UNL d   1      21.325 -18.154  -0.879  0.00  0.00     0.160 C 
ATOM     34  C   UNL d   1      22.690 -18.414  -0.527  0.00  0.00     0.085 C 
ATOM     35  N   UNL d   1      23.137 -19.631  -0.145  0.00  0.00    -0.396 N 
ATOM     36  H   UNL d   1      22.598 -20.464  -0.402  0.00  0.00     0.156 HD
ATOM     37  H   UNL d   1      24.103 -19.824   0.105  0.00  0.00     0.156 HD
BRANCH  33  38
ATOM     38  C   UNL d   1      20.347 -19.259  -0.947  0.00  0.00     0.271 C 
ATOM     39  N   UNL d   1      19.054 -18.964  -1.269  0.00  0.00    -0.365 N 
ATOM     40  H   UNL d   1      18.745 -18.024  -1.457  0.00  0.00     0.159 HD
ATOM     41  H   UNL d   1      18.414 -19.746  -1.287  0.00  0.00     0.159 HD
ATOM     42  O   UNL d   1      20.643 -20.427  -0.732  0.00  0.00    -0.266 OA
ENDBRANCH  33  38
ENDBRANCH   2  30
TORSDOF 9
ENDMDL
MODEL 7
REMARK VINA RESULT:    -9.443      2.862      6.921
REMARK INTER + INTRA:         -16.225
REMARK INTER:                 -12.128
REMARK INTRA:                  -4.097
REMARK CONF_INDEPENDENT:        2.685
REMARK UNBOUND:                -4.097
REMARK  9 active torsions:
REMARK  status: ('A' for Active; 'I' for Inactive)
REMARK    1  A    between atoms: O_2  and  C_3 
REMARK    2  A    between atoms: C_7  and  C_6 
REMARK    3  A    between atoms: C_7  and  N_17 
REMARK    4  A    between atoms: C_7  and  C_8 
REMARK       I    between atoms: C_8  and  N_10 
REMARK    5  A    between atoms: N_10  and  C_11 
REMARK    6  A    between atoms: N_17  and  C_18 
REMARK       I    between atoms: N_17  and  C_25 
REMARK    7  A    between atoms: C_18  and  C_19 
REMARK    8  A    between atoms: C_25  and  C_27 
REMARK    9  A    between atoms: C_30  and  C_31 
REMARK       I    between atoms: C_31  and  N_32 
ROOT
ATOM      1  N   UNL d   1      26.411 -15.362  -0.426  0.00  0.00    -0.326 N 
ATOM      2  C   UNL d   1      26.863 -14.167   0.240  0.00  0.00     0.265 C 
ATOM      3  O   UNL d   1      26.403 -13.077  -0.010  0.00  0.00    -0.267 OA
ENDROOT
BRANCH   1   4
ATOM      4  C   UNL d   1      25.155 -15.368  -1.305  0.00  0.00     0.213 C 
BRANCH   4   5
ATOM      5  C   UNL d   1      25.207 -14.970  -2.893  0.00  0.00     0.245 C 
ATOM      6  O   UNL d   1      24.225 -14.450  -3.392  0.00  0.00    -0.271 OA
ATOM      7  N   UNL d   1      26.332 -15.309  -3.663  0.00  0.00    -0.354 N 
ATOM      8  H   UNL d   1      26.491 -16.304  -3.642  0.00  0.00     0.162 HD
BRANCH   7   9
ATOM      9  C   UNL d   1      26.857 -14.760  -4.946  0.00  0.00     0.084 C 
ATOM     10  C   UNL d   1      26.733 -13.255  -5.020  0.00  0.00     0.025 C 
ATOM     11  C   UNL d   1      27.531 -12.556  -6.113  0.00  0.00     0.002 C 
ATOM     12  C   UNL d   1      28.952 -13.062  -6.403  0.00  0.00     0.000 C 
ATOM     13  C   UNL d   1      29.043 -14.582  -6.387  0.00  0.00     0.002 C 
ATOM     14  C   UNL d   1      28.218 -15.372  -5.347  0.00  0.00     0.025 C 
ENDBRANCH   7   9
ENDBRANCH   4   5
BRANCH   4  15
ATOM     15  C   UNL d   1      24.180 -16.503  -0.949  0.00  0.00    -0.026 C 
ATOM     16  C   UNL d   1      24.550 -17.837  -0.768  0.00  0.00     0.012 C 
ATOM     17  C   UNL d   1      23.664 -18.888  -0.931  0.00  0.00     0.037 C 
ATOM     18  C   UNL d   1      22.317 -18.617  -0.874  0.00  0.00     0.068 C 
ATOM     19  C   UNL d   1      21.891 -17.303  -0.818  0.00  0.00     0.037 C 
ATOM     20  C   UNL d   1      22.811 -16.273  -0.895  0.00  0.00     0.012 C 
BRANCH  18  21
ATOM     21  O   UNL d   1      21.511 -19.696  -0.694  0.00  0.00    -0.356 OA
ATOM     22  C   UNL d   1      20.135 -19.424  -0.895  0.00  0.00     0.210 C 
ENDBRANCH  18  21
ENDBRANCH   4  15
ENDBRANCH   1   4
BRANCH   1  23
ATOM     23  C   UNL d   1      27.201 -16.551  -0.229  0.00  0.00     0.166 C 
BRANCH  23  24
ATOM     24  C   UNL d   1      28.489 -16.723  -0.903  0.00  0.00    -0.040 C 
ATOM     25  C   UNL d   1      28.511 -16.546  -2.274  0.00  0.00     0.009 C 
ATOM     26  C   UNL d   1      29.670 -16.859  -2.924  0.00  0.00     0.001 C 
ATOM     27  C   UNL d   1      30.806 -17.023  -2.137  0.00  0.00     0.000 C 
ATOM     28  C   UNL d   1      30.833 -17.139  -0.771  0.00  0.00     0.001 C 
ATOM     29  C   UNL d   1      29.632 -17.075  -0.145  0.00  0.00     0.009 C 
ENDBRANCH  23  24
ENDBRANCH   1  23
BRANCH   2  30
ATOM     30  C   UNL d   1      27.979 -14.272   1.187  0.00  0.00     0.120 C 
ATOM     31  S   UNL d   1      27.780 -14.450   2.877  0.00  0.00     0.020 SA
ATOM     32  N   UNL d   1      29.420 -14.418   3.268  0.00  0.00    -0.203 NA
ATOM     33  C   UNL d   1      30.115 -14.213   2.138  0.00  0.00     0.160 C 
ATOM     34  C   UNL d   1      29.313 -14.054   0.960  0.00  0.00     0.085 C 
ATOM     35  N   UNL d   1      29.825 -13.712  -0.243  0.00  0.00    -0.396 N 
ATOM     36  H   UNL d   1      30.821 -13.870  -0.425  0.00  0.00     0.156 HD
ATOM     37  H   UNL d   1      29.264 -13.597  -1.082  0.00  0.00     0.156 HD
BRANCH  33  38
ATOM     38  C   UNL d   1      31.587 -14.116   2.059  0.00  0.00     0.271 C 
ATOM     39  N   UNL d   1      32.306 -14.194   3.217  0.00  0.00    -0.365 N 
ATOM     40  H   UNL d   1      31.871 -14.311   4.117  0.00  0.00     0.159 HD
ATOM     41  H   UNL d   1      33.308 -14.105   3.120  0.00  0.00     0.159 HD
ATOM     42  O   UNL d   1      32.190 -13.974   1.004  0.00  0.00    -0.266 OA
ENDBRANCH  33  38
ENDBRANCH   2  30
TORSDOF 9
ENDMDL
MODEL 8
REMARK VINA RESULT:    -9.117      3.116      6.784
REMARK INTER + INTRA:         -16.202
REMARK INTER:                 -11.802
REMARK INTRA:                  -4.401
REMARK CONF_INDEPENDENT:        2.685
REMARK UNBOUND:                -4.401
REMARK  9 active torsions:
REMARK  status: ('A' for Active; 'I' for Inactive)
REMARK    1  A    between atoms: O_2  and  C_3 
REMARK    2  A    between atoms: C_7  and  C_6 
REMARK    3  A    between atoms: C_7  and  N_17 
REMARK    4  A    between atoms: C_7  and  C_8 
REMARK       I    between atoms: C_8  and  N_10 
REMARK    5  A    between atoms: N_10  and  C_11 
REMARK    6  A    between atoms: N_17  and  C_18 
REMARK       I    between atoms: N_17  and  C_25 
REMARK    7  A    between atoms: C_18  and  C_19 
REMARK    8  A    between atoms: C_25  and  C_27 
REMARK    9  A    between atoms: C_30  and  C_31 
REMARK       I    between atoms: C_31  and  N_32 
ROOT
ATOM      1  N   UNL d   1      26.830 -15.511  -0.540  0.00  0.00    -0.326 N 
ATOM      2  C   UNL d   1      27.965 -16.145  -1.162  0.00  0.00     0.265 C 
ATOM      3  O   UNL d   1      27.864 -16.798  -2.174  0.00  0.00    -0.267 OA
ENDROOT
BRANCH   1   4
ATOM      4  C   UNL d   1      25.476 -15.411  -1.250  0.00  0.00     0.213 C 
BRANCH   4   5
ATOM      5  C   UNL d   1      25.350 -14.941  -2.815  0.00  0.00     0.245 C 
ATOM      6  O   UNL d   1      24.303 -14.441  -3.187  0.00  0.00    -0.271 OA
ATOM      7  N   UNL d   1      26.402 -15.198  -3.709  0.00  0.00    -0.354 N 
ATOM      8  H   UNL d   1      26.600 -16.185  -3.752  0.00  0.00     0.162 HD
BRANCH   7   9
ATOM      9  C   UNL d   1      26.773 -14.571  -5.011  0.00  0.00     0.084 C 
ATOM     10  C   UNL d   1      26.539 -13.077  -5.015  0.00  0.00     0.025 C 
ATOM     11  C   UNL d   1      27.187 -12.287  -6.144  0.00  0.00     0.002 C 
ATOM     12  C   UNL d   1      28.609 -12.679  -6.575  0.00  0.00     0.000 C 
ATOM     13  C   UNL d   1      28.805 -14.189  -6.626  0.00  0.00     0.002 C 
ATOM     14  C   UNL d   1      28.132 -15.069  -5.550  0.00  0.00     0.025 C 
ENDBRANCH   7   9
ENDBRANCH   4   5
BRANCH   4  15
ATOM     15  C   UNL d   1      24.490 -16.510  -0.818  0.00  0.00    -0.026 C 
ATOM     16  C   UNL d   1      24.861 -17.800  -0.438  0.00  0.00     0.012 C 
ATOM     17  C   UNL d   1      24.002 -18.882  -0.524  0.00  0.00     0.037 C 
ATOM     18  C   UNL d   1      22.651 -18.635  -0.600  0.00  0.00     0.068 C 
ATOM     19  C   UNL d   1      22.207 -17.334  -0.748  0.00  0.00     0.037 C 
ATOM     20  C   UNL d   1      23.118 -16.304  -0.894  0.00  0.00     0.012 C 
BRANCH  18  21
ATOM     21  O   UNL d   1      21.847 -19.698  -0.337  0.00  0.00    -0.356 OA
ATOM     22  C   UNL d   1      20.466 -19.379  -0.310  0.00  0.00     0.210 C 
ENDBRANCH  18  21
ENDBRANCH   4  15
ENDBRANCH   1   4
BRANCH   1  23
ATOM     23  C   UNL d   1      27.030 -14.979   0.784  0.00  0.00     0.166 C 
BRANCH  23  24
ATOM     24  C   UNL d   1      27.125 -13.538   1.014  0.00  0.00    -0.040 C 
ATOM     25  C   UNL d   1      27.079 -13.105   2.327  0.00  0.00     0.009 C 
ATOM     26  C   UNL d   1      27.008 -11.758   2.537  0.00  0.00     0.001 C 
ATOM     27  C   UNL d   1      27.301 -10.937   1.452  0.00  0.00     0.000 C 
ATOM     28  C   UNL d   1      27.418 -11.337   0.145  0.00  0.00     0.001 C 
ATOM     29  C   UNL d   1      27.238 -12.660  -0.091  0.00  0.00     0.009 C 
ENDBRANCH  23  24
ENDBRANCH   1  23
BRANCH   2  30
ATOM     30  C   UNL d   1      29.268 -16.065  -0.490  0.00  0.00     0.120 C 
ATOM     31  S   UNL d   1      30.068 -14.596  -0.136  0.00  0.00     0.020 SA
ATOM     32  N   UNL d   1      31.457 -15.288   0.524  0.00  0.00    -0.203 NA
ATOM     33  C   UNL d   1      31.347 -16.621   0.424  0.00  0.00     0.160 C 
ATOM     34  C   UNL d   1      30.148 -17.079  -0.214  0.00  0.00     0.085 C 
ATOM     35  N   UNL d   1      29.921 -18.376  -0.520  0.00  0.00    -0.396 N 
ATOM     36  H   UNL d   1      30.444 -19.105  -0.024  0.00  0.00     0.156 HD
ATOM     37  H   UNL d   1      29.074 -18.709  -0.972  0.00  0.00     0.156 HD
BRANCH  33  38
ATOM     38  C   UNL d   1      32.365 -17.588   0.886  0.00  0.00     0.271 C 
ATOM     39  N   UNL d   1      33.209 -17.213   1.890  0.00  0.00    -0.365 N 
ATOM     40  H   UNL d   1      33.166 -16.304   2.322  0.00  0.00     0.159 HD
ATOM     41  H   UNL d   1      33.901 -17.897   2.163  0.00  0.00     0.159 HD
ATOM     42  O   UNL d   1      32.482 -18.710   0.413  0.00  0.00    -0.266 OA
ENDBRANCH  33  38
ENDBRANCH   2  30
TORSDOF 9
ENDMDL
MODEL 9
REMARK VINA RESULT:    -9.032      2.777      7.229
REMARK INTER + INTRA:         -15.990
REMARK INTER:                 -11.717
REMARK INTRA:                  -4.273
REMARK CONF_INDEPENDENT:        2.685
REMARK UNBOUND:                -4.273
REMARK  9 active torsions:
REMARK  status: ('A' for Active; 'I' for Inactive)
REMARK    1  A    between atoms: O_2  and  C_3 
REMARK    2  A    between atoms: C_7  and  C_6 
REMARK    3  A    between atoms: C_7  and  N_17 
REMARK    4  A    between atoms: C_7  and  C_8 
REMARK       I    between atoms: C_8  and  N_10 
REMARK    5  A    between atoms: N_10  and  C_11 
REMARK    6  A    between atoms: N_17  and  C_18 
REMARK       I    between atoms: N_17  and  C_25 
REMARK    7  A    between atoms: C_18  and  C_19 
REMARK    8  A    between atoms: C_25  and  C_27 
REMARK    9  A    between atoms: C_30  and  C_31 
REMARK       I    between atoms: C_31  and  N_32 
ROOT
ATOM      1  N   UNL d   1      26.262 -15.174  -2.246  0.00  0.00    -0.326 N 
ATOM      2  C   UNL d   1      26.429 -13.802  -1.834  0.00  0.00     0.265 C 
ATOM      3  O   UNL d   1      26.230 -13.443  -0.697  0.00  0.00    -0.267 OA
ENDROOT
BRANCH   1   4
ATOM      4  C   UNL d   1      26.070 -16.303  -1.228  0.00  0.00     0.213 C 
BRANCH   4   5
ATOM      5  C   UNL d   1      26.812 -16.287   0.232  0.00  0.00     0.245 C 
ATOM      6  O   UNL d   1      26.807 -17.310   0.895  0.00  0.00    -0.271 OA
ATOM      7  N   UNL d   1      27.357 -15.091   0.728  0.00  0.00    -0.354 N 
ATOM      8  H   UNL d   1      26.649 -14.377   0.792  0.00  0.00     0.162 HD
BRANCH   7   9
ATOM      9  C   UNL d   1      28.405 -14.830   1.757  0.00  0.00     0.084 C 
ATOM     10  C   UNL d   1      29.589 -14.079   1.192  0.00  0.00     0.025 C 
ATOM     11  C   UNL d   1      30.552 -13.464   2.199  0.00  0.00     0.002 C 
ATOM     12  C   UNL d   1      29.959 -12.806   3.454  0.00  0.00     0.000 C 
ATOM     13  C   UNL d   1      28.809 -13.611   4.045  0.00  0.00     0.002 C 
ATOM     14  C   UNL d   1      27.820 -14.317   3.090  0.00  0.00     0.025 C 
ENDBRANCH   7   9
ENDBRANCH   4   5
BRANCH   4  15
ATOM     15  C   UNL d   1      24.641 -16.872  -1.227  0.00  0.00    -0.026 C 
ATOM     16  C   UNL d   1      23.482 -16.103  -1.338  0.00  0.00     0.012 C 
ATOM     17  C   UNL d   1      22.253 -16.528  -0.865  0.00  0.00     0.037 C 
ATOM     18  C   UNL d   1      22.071 -17.874  -0.646  0.00  0.00     0.068 C 
ATOM     19  C   UNL d   1      23.152 -18.729  -0.749  0.00  0.00     0.037 C 
ATOM     20  C   UNL d   1      24.415 -18.224  -0.996  0.00  0.00     0.012 C 
BRANCH  18  21
ATOM     21  O   UNL d   1      20.780 -18.276  -0.519  0.00  0.00    -0.356 OA
ATOM     22  C   UNL d   1      20.630 -19.529   0.126  0.00  0.00     0.210 C 
ENDBRANCH  18  21
ENDBRANCH   4  15
ENDBRANCH   1   4
BRANCH   1  23
ATOM     23  C   UNL d   1      26.280 -15.430  -3.665  0.00  0.00     0.166 C 
BRANCH  23  24
ATOM     24  C   UNL d   1      27.523 -15.350  -4.432  0.00  0.00    -0.040 C 
ATOM     25  C   UNL d   1      28.673 -15.810  -3.816  0.00  0.00     0.009 C 
ATOM     26  C   UNL d   1      29.855 -15.593  -4.463  0.00  0.00     0.001 C 
ATOM     27  C   UNL d   1      29.779 -15.222  -5.802  0.00  0.00     0.000 C 
ATOM     28  C   UNL d   1      28.648 -14.820  -6.466  0.00  0.00     0.001 C 
ATOM     29  C   UNL d   1      27.506 -14.801  -5.736  0.00  0.00     0.009 C 
ENDBRANCH  23  24
ENDBRANCH   1  23
BRANCH   2  30
ATOM     30  C   UNL d   1      26.764 -12.800  -2.853  0.00  0.00     0.120 C 
ATOM     31  S   UNL d   1      28.117 -11.758  -2.753  0.00  0.00     0.020 SA
ATOM     32  N   UNL d   1      27.798 -10.895  -4.167  0.00  0.00    -0.203 NA
ATOM     33  C   UNL d   1      26.644 -11.348  -4.682  0.00  0.00     0.160 C 
ATOM     34  C   UNL d   1      26.006 -12.376  -3.912  0.00  0.00     0.085 C 
ATOM     35  N   UNL d   1      24.778 -12.862  -4.202  0.00  0.00    -0.396 N 
ATOM     36  H   UNL d   1      24.406 -12.747  -5.150  0.00  0.00     0.156 HD
ATOM     37  H   UNL d   1      24.319 -13.590  -3.662  0.00  0.00     0.156 HD
BRANCH  33  38
ATOM     38  C   UNL d   1      26.017 -10.842  -5.920  0.00  0.00     0.271 C 
ATOM     39  N   UNL d   1      26.441  -9.645  -6.421  0.00  0.00    -0.365 N 
ATOM     40  H   UNL d   1      27.159  -9.096  -5.976  0.00  0.00     0.159 HD
ATOM     41  H   UNL d   1      25.974  -9.327  -7.258  0.00  0.00     0.159 HD
ATOM     42  O   UNL d   1      25.140 -11.449  -6.519  0.00  0.00    -0.266 OA
ENDBRANCH  33  38
ENDBRANCH   2  30
TORSDOF 9
ENDMDL
