MODEL 1
REMARK VINA RESULT:   -30.729      0.000      0.000
REMARK INTER + INTRA:         -32.377
REMARK INTER:                 -31.922
REMARK INTRA:                  -0.454
REMARK CONF_INDEPENDENT:        1.193
REMARK UNBOUND:                -0.454
REMARK  4 active torsions:
REMARK  status: ('A' for Active; 'I' for Inactive)
REMARK       I    between atoms: C_2  and  N_3 
REMARK    1  A    between atoms: C_2  and  C_15 
REMARK    2  A    between atoms: N_3  and  C_4 
REMARK    3  A    between atoms: C_8  and  C_9 
REMARK    4  A    between atoms: C_18  and  O_19 
ROOT
ATOM      1  O   UNL d   1      27.122 -15.931  -2.894  0.00  0.00    -0.267 OA
ATOM      2  C   UNL d   1      26.172 -15.150  -2.979  0.00  0.00     0.256 C 
ATOM      3  N   UNL d   1      24.941 -15.315  -2.354  0.00  0.00    -0.323 N 
ATOM      4  H   UNL d   1      24.147 -14.778  -2.681  0.00  0.00     0.169 HD
ENDROOT
BRANCH   3   5
ATOM      5  C   UNL d   1      24.682 -16.376  -1.450  0.00  0.00     0.035 A 
ATOM      6  C   UNL d   1      25.724 -17.037  -0.792  0.00  0.00     0.029 A 
ATOM      7  C   UNL d   1      25.452 -18.140   0.034  0.00  0.00     0.003 A 
ATOM      8  C   UNL d   1      24.139 -18.576   0.223  0.00  0.00     0.014 A 
ATOM      9  C   UNL d   1      23.098 -17.932  -0.444  0.00  0.00    -0.006 A 
ATOM     10  C   UNL d   1      23.376 -16.831  -1.264  0.00  0.00     0.043 A 
BRANCH   9  11
ATOM     11  C   UNL d   1      21.746 -18.455  -0.412  0.00  0.00     0.061 A 
ATOM     12  C   UNL d   1      21.252 -19.582   0.210  0.00  0.00     0.053 A 
ATOM     13  C   UNL d   1      19.889 -19.615  -0.122  0.00  0.00     0.141 A 
ATOM     14  N   UNL d   1      19.530 -18.587  -0.895  0.00  0.00    -0.187 NA
ATOM     15  N   UNL d   1      20.678 -17.904  -1.067  0.00  0.00    -0.278 N 
ATOM     16  H   UNL d   1      20.666 -17.077  -1.654  0.00  0.00     0.189 HD
ENDBRANCH   9  11
ENDBRANCH   3   5
BRANCH   2  17
ATOM     17  C   UNL d   1      26.312 -14.004  -3.915  0.00  0.00     0.034 A 
ATOM     18  C   UNL d   1      25.514 -12.859  -3.818  0.00  0.00     0.020 A 
ATOM     19  C   UNL d   1      25.648 -11.829  -4.764  0.00  0.00     0.039 A 
ATOM     20  C   UNL d   1      26.627 -11.916  -5.757  0.00  0.00     0.087 A 
ATOM     21  C   UNL d   1      27.447 -13.045  -5.834  0.00  0.00     0.068 A 
ATOM     22 CL   UNL d   1      28.627 -13.213  -7.083  0.00  0.00    -0.081 Cl
ATOM     23  C   UNL d   1      27.297 -14.081  -4.909  0.00  0.00     0.043 A 
BRANCH  20  24
ATOM     24  O   UNL d   1      26.793 -10.895  -6.652  0.00  0.00    -0.359 OA
ATOM     25  H   UNL d   1      27.734 -10.773  -6.857  0.00  0.00     0.217 HD
ENDBRANCH  20  24
ENDBRANCH   2  17
TORSDOF 4
ENDMDL
MODEL 2
REMARK VINA RESULT:   -30.673      1.296      1.524
REMARK INTER + INTRA:         -32.286
REMARK INTER:                 -31.866
REMARK INTRA:                  -0.420
REMARK CONF_INDEPENDENT:        1.193
REMARK UNBOUND:                -0.420
REMARK  4 active torsions:
REMARK  status: ('A' for Active; 'I' for Inactive)
REMARK       I    between atoms: C_2  and  N_3 
REMARK    1  A    between atoms: C_2  and  C_15 
REMARK    2  A    between atoms: N_3  and  C_4 
REMARK    3  A    between atoms: C_8  and  C_9 
REMARK    4  A    between atoms: C_18  and  O_19 
ROOT
ATOM      1  O   UNL d   1      27.656 -15.611  -1.800  0.00  0.00    -0.267 OA
ATOM      2  C   UNL d   1      26.858 -15.649  -2.738  0.00  0.00     0.256 C 
ATOM      3  N   UNL d   1      25.647 -16.333  -2.732  0.00  0.00    -0.323 N 
ATOM      4  H   UNL d   1      25.188 -16.528  -3.613  0.00  0.00     0.169 HD
ENDROOT
BRANCH   3   5
ATOM      5  C   UNL d   1      25.149 -16.990  -1.579  0.00  0.00     0.035 A 
ATOM      6  C   UNL d   1      26.001 -17.360  -0.532  0.00  0.00     0.029 A 
ATOM      7  C   UNL d   1      25.503 -18.083   0.564  0.00  0.00     0.003 A 
ATOM      8  C   UNL d   1      24.150 -18.423   0.630  0.00  0.00     0.014 A 
ATOM      9  C   UNL d   1      23.300 -18.073  -0.418  0.00  0.00    -0.006 A 
ATOM     10  C   UNL d   1      23.803 -17.349  -1.506  0.00  0.00     0.043 A 
BRANCH   9  11
ATOM     11  C   UNL d   1      21.932 -18.552  -0.470  0.00  0.00     0.061 A 
ATOM     12  C   UNL d   1      21.382 -19.705   0.050  0.00  0.00     0.053 A 
ATOM     13  C   UNL d   1      20.032 -19.668  -0.331  0.00  0.00     0.141 A 
ATOM     14  N   UNL d   1      19.733 -18.576  -1.038  0.00  0.00    -0.187 NA
ATOM     15  N   UNL d   1      20.906 -17.920  -1.119  0.00  0.00    -0.278 N 
ATOM     16  H   UNL d   1      20.941 -17.053  -1.645  0.00  0.00     0.189 HD
ENDBRANCH   9  11
ENDBRANCH   3   5
BRANCH   2  17
ATOM     17  C   UNL d   1      27.274 -15.014  -4.016  0.00  0.00     0.034 A 
ATOM     18  C   UNL d   1      26.635 -13.881  -4.531  0.00  0.00     0.020 A 
ATOM     19  C   UNL d   1      27.031 -13.356  -5.771  0.00  0.00     0.039 A 
ATOM     20  C   UNL d   1      28.111 -13.919  -6.456  0.00  0.00     0.087 A 
ATOM     21  C   UNL d   1      28.772 -15.031  -5.926  0.00  0.00     0.068 A 
ATOM     22 CL   UNL d   1      30.071 -15.789  -6.773  0.00  0.00    -0.081 Cl
ATOM     23  C   UNL d   1      28.362 -15.570  -4.705  0.00  0.00     0.043 A 
BRANCH  20  24
ATOM     24  O   UNL d   1      28.531 -13.382  -7.642  0.00  0.00    -0.359 OA
ATOM     25  H   UNL d   1      28.716 -14.083  -8.286  0.00  0.00     0.217 HD
ENDBRANCH  20  24
ENDBRANCH   2  17
TORSDOF 4
ENDMDL
MODEL 3
REMARK VINA RESULT:   -30.534      1.335      1.663
REMARK INTER + INTRA:         -32.275
REMARK INTER:                 -31.727
REMARK INTRA:                  -0.548
REMARK CONF_INDEPENDENT:        1.193
REMARK UNBOUND:                -0.548
REMARK  4 active torsions:
REMARK  status: ('A' for Active; 'I' for Inactive)
REMARK       I    between atoms: C_2  and  N_3 
REMARK    1  A    between atoms: C_2  and  C_15 
REMARK    2  A    between atoms: N_3  and  C_4 
REMARK    3  A    between atoms: C_8  and  C_9 
REMARK    4  A    between atoms: C_18  and  O_19 
ROOT
ATOM      1  O   UNL d   1      26.152 -14.126  -1.231  0.00  0.00    -0.267 OA
ATOM      2  C   UNL d   1      25.761 -14.504  -2.337  0.00  0.00     0.256 C 
ATOM      3  N   UNL d   1      25.152 -15.727  -2.596  0.00  0.00    -0.323 N 
ATOM      4  H   UNL d   1      25.105 -16.060  -3.551  0.00  0.00     0.169 HD
ENDROOT
BRANCH   3   5
ATOM      5  C   UNL d   1      24.818 -16.645  -1.569  0.00  0.00     0.035 A 
ATOM      6  C   UNL d   1      25.808 -17.223  -0.766  0.00  0.00     0.029 A 
ATOM      7  C   UNL d   1      25.465 -18.193   0.190  0.00  0.00     0.003 A 
ATOM      8  C   UNL d   1      24.133 -18.574   0.364  0.00  0.00     0.014 A 
ATOM      9  C   UNL d   1      23.145 -18.014  -0.445  0.00  0.00    -0.006 A 
ATOM     10  C   UNL d   1      23.493 -17.046  -1.394  0.00  0.00     0.043 A 
BRANCH   9  11
ATOM     11  C   UNL d   1      21.780 -18.504  -0.415  0.00  0.00     0.061 A 
ATOM     12  C   UNL d   1      21.260 -19.626   0.195  0.00  0.00     0.053 A 
ATOM     13  C   UNL d   1      19.897 -19.621  -0.135  0.00  0.00     0.141 A 
ATOM     14  N   UNL d   1      19.561 -18.577  -0.895  0.00  0.00    -0.187 NA
ATOM     15  N   UNL d   1      20.725 -17.919  -1.061  0.00  0.00    -0.278 N 
ATOM     16  H   UNL d   1      20.732 -17.086  -1.639  0.00  0.00     0.189 HD
ENDBRANCH   9  11
ENDBRANCH   3   5
BRANCH   2  17
ATOM     17  C   UNL d   1      26.072 -13.637  -3.504  0.00  0.00     0.034 A 
ATOM     18  C   UNL d   1      26.718 -14.124  -4.645  0.00  0.00     0.020 A 
ATOM     19  C   UNL d   1      27.039 -13.250  -5.696  0.00  0.00     0.039 A 
ATOM     20  C   UNL d   1      26.649 -11.909  -5.633  0.00  0.00     0.087 A 
ATOM     21  C   UNL d   1      25.973 -11.430  -4.507  0.00  0.00     0.068 A 
ATOM     22 CL   UNL d   1      25.529  -9.767  -4.370  0.00  0.00    -0.081 Cl
ATOM     23  C   UNL d   1      25.677 -12.293  -3.451  0.00  0.00     0.043 A 
BRANCH  20  24
ATOM     24  O   UNL d   1      26.917 -11.064  -6.675  0.00  0.00    -0.359 OA
ATOM     25  H   UNL d   1      27.106 -10.171  -6.347  0.00  0.00     0.217 HD
ENDBRANCH  20  24
ENDBRANCH   2  17
TORSDOF 4
ENDMDL
MODEL 4
REMARK VINA RESULT:   -28.113      1.891      2.074
REMARK INTER + INTRA:         -29.838
REMARK INTER:                 -29.307
REMARK INTRA:                  -0.532
REMARK CONF_INDEPENDENT:        1.193
REMARK UNBOUND:                -0.532
REMARK  4 active torsions:
REMARK  status: ('A' for Active; 'I' for Inactive)
REMARK       I    between atoms: C_2  and  N_3 
REMARK    1  A    between atoms: C_2  and  C_15 
REMARK    2  A    between atoms: N_3  and  C_4 
REMARK    3  A    between atoms: C_8  and  C_9 
REMARK    4  A    between atoms: C_18  and  O_19 
ROOT
ATOM      1  O   UNL d   1      26.862 -14.817   0.048  0.00  0.00    -0.267 OA
ATOM      2  C   UNL d   1      26.155 -14.523  -0.918  0.00  0.00     0.256 C 
ATOM      3  N   UNL d   1      25.185 -15.345  -1.481  0.00  0.00    -0.323 N 
ATOM      4  H   UNL d   1      24.844 -15.138  -2.411  0.00  0.00     0.169 HD
ENDROOT
BRANCH   3   5
ATOM      5  C   UNL d   1      24.831 -16.599  -0.921  0.00  0.00     0.035 A 
ATOM      6  C   UNL d   1      25.802 -17.569  -0.648  0.00  0.00     0.029 A 
ATOM      7  C   UNL d   1      25.422 -18.835  -0.172  0.00  0.00     0.003 A 
ATOM      8  C   UNL d   1      24.076 -19.131   0.052  0.00  0.00     0.014 A 
ATOM      9  C   UNL d   1      23.103 -18.175  -0.235  0.00  0.00    -0.006 A 
ATOM     10  C   UNL d   1      23.489 -16.914  -0.706  0.00  0.00     0.043 A 
BRANCH   9  11
ATOM     11  C   UNL d   1      21.690 -18.498  -0.180  0.00  0.00     0.061 A 
ATOM     12  C   UNL d   1      20.970 -19.133   0.809  0.00  0.00     0.053 A 
ATOM     13  C   UNL d   1      19.659 -19.206   0.315  0.00  0.00     0.141 A 
ATOM     14  N   UNL d   1      19.541 -18.659  -0.897  0.00  0.00    -0.187 NA
ATOM     15  N   UNL d   1      20.791 -18.246  -1.181  0.00  0.00    -0.278 N 
ATOM     16  H   UNL d   1      20.965 -17.813  -2.081  0.00  0.00     0.189 HD
ENDBRANCH   9  11
ENDBRANCH   3   5
BRANCH   2  17
ATOM     17  C   UNL d   1      26.443 -13.239  -1.609  0.00  0.00     0.034 A 
ATOM     18  C   UNL d   1      27.067 -12.166  -0.962  0.00  0.00     0.020 A 
ATOM     19  C   UNL d   1      27.264 -10.955  -1.646  0.00  0.00     0.039 A 
ATOM     20  C   UNL d   1      26.904 -10.845  -2.992  0.00  0.00     0.087 A 
ATOM     21  C   UNL d   1      26.312 -11.929  -3.648  0.00  0.00     0.068 A 
ATOM     22 CL   UNL d   1      25.801 -11.809  -5.292  0.00  0.00    -0.081 Cl
ATOM     23  C   UNL d   1      26.092 -13.125  -2.961  0.00  0.00     0.043 A 
BRANCH  20  24
ATOM     24  O   UNL d   1      27.138  -9.683  -3.675  0.00  0.00    -0.359 OA
ATOM     25  H   UNL d   1      27.168  -9.852  -4.629  0.00  0.00     0.217 HD
ENDBRANCH  20  24
ENDBRANCH   2  17
TORSDOF 4
ENDMDL
