MODEL 1
REMARK VINA RESULT:   -29.316      0.000      0.000
REMARK INTER + INTRA:         -31.080
REMARK INTER:                 -30.509
REMARK INTRA:                  -0.571
REMARK CONF_INDEPENDENT:        1.193
REMARK UNBOUND:                -0.571
REMARK  4 active torsions:
REMARK  status: ('A' for Active; 'I' for Inactive)
REMARK       I    between atoms: C_2  and  N_3 
REMARK    1  A    between atoms: C_2  and  C_18 
REMARK    2  A    between atoms: N_3  and  C_4 
REMARK    3  A    between atoms: C_4  and  C_5 
REMARK    4  A    between atoms: C_8  and  N_9 
ROOT
ATOM      1  C   UNL d   1      27.504 -15.875   0.001  0.00  0.00    -0.025 A 
ATOM      2  C   UNL d   1      26.651 -14.875   0.470  0.00  0.00     0.014 A 
ATOM      3  C   UNL d   1      27.048 -14.031   1.508  0.00  0.00     0.049 A 
ATOM      4  C   UNL d   1      28.320 -14.155   2.077  0.00  0.00     0.102 A 
ATOM      5  N   UNL d   1      29.120 -15.115   1.586  0.00  0.00    -0.352 N 
ATOM      6  C   UNL d   1      28.769 -15.956   0.595  0.00  0.00     0.098 A 
ATOM      7  H   UNL d   1      30.011 -15.228   2.064  0.00  0.00     0.166 HD
ENDROOT
BRANCH   1   8
ATOM      8  C   UNL d   1      27.131 -16.796  -1.147  0.00  0.00     0.162 C 
BRANCH   8   9
ATOM      9  N   UNL d   1      25.708 -17.084  -1.249  0.00  0.00    -0.353 N 
ATOM     10  C   UNL d   1      25.079 -17.905  -0.341  0.00  0.00     0.253 C 
ATOM     11  O   UNL d   1      25.665 -18.412   0.613  0.00  0.00    -0.268 OA
ATOM     12  H   UNL d   1      25.123 -16.577  -1.896  0.00  0.00     0.163 HD
BRANCH  10  13
ATOM     13  C   UNL d   1      23.607 -18.098  -0.557  0.00  0.00     0.048 A 
ATOM     14  C   UNL d   1      22.798 -17.005  -1.101  0.00  0.00     0.022 A 
ATOM     15  C   UNL d   1      21.462 -17.107  -1.243  0.00  0.00     0.052 A 
ATOM     16  C   UNL d   1      20.800 -18.303  -0.858  0.00  0.00     0.133 A 
ATOM     17  N   UNL d   1      19.530 -18.643  -0.895  0.00  0.00    -0.241 NA
ATOM     18  N   UNL d   1      21.589 -19.327  -0.341  0.00  0.00    -0.315 N 
ATOM     19  C   UNL d   1      19.477 -19.917  -0.393  0.00  0.00     0.136 A 
ATOM     20  C   UNL d   1      20.734 -20.362  -0.048  0.00  0.00     0.117 A 
ATOM     21  C   UNL d   1      22.976 -19.233  -0.184  0.00  0.00     0.115 A 
ENDBRANCH  10  13
ENDBRANCH   8   9
ENDBRANCH   1   8
BRANCH   4  22
ATOM     22  N   UNL d   1      28.718 -13.530   3.245  0.00  0.00    -0.367 N 
ATOM     23  C   UNL d   1      29.706 -14.143   4.152  0.00  0.00     0.124 C 
ATOM     24  C   UNL d   1      29.025 -14.417   5.500  0.00  0.00     0.020 C 
ATOM     25  C   UNL d   1      28.741 -13.172   6.350  0.00  0.00     0.002 C 
ATOM     26  C   UNL d   1      27.983 -12.058   5.628  0.00  0.00     0.002 C 
ATOM     27  C   UNL d   1      28.816 -11.388   4.537  0.00  0.00     0.020 C 
ATOM     28  C   UNL d   1      28.694 -12.062   3.174  0.00  0.00     0.124 C 
ENDBRANCH   4  22
TORSDOF 4
ENDMDL
MODEL 2
REMARK VINA RESULT:   -28.924      3.569      6.612
REMARK INTER + INTRA:         -30.628
REMARK INTER:                 -30.117
REMARK INTRA:                  -0.511
REMARK CONF_INDEPENDENT:        1.193
REMARK UNBOUND:                -0.511
REMARK  4 active torsions:
REMARK  status: ('A' for Active; 'I' for Inactive)
REMARK       I    between atoms: C_2  and  N_3 
REMARK    1  A    between atoms: C_2  and  C_18 
REMARK    2  A    between atoms: N_3  and  C_4 
REMARK    3  A    between atoms: C_4  and  C_5 
REMARK    4  A    between atoms: C_8  and  N_9 
ROOT
ATOM      1  C   UNL d   1      28.097 -16.342  -1.074  0.00  0.00    -0.025 A 
ATOM      2  C   UNL d   1      29.316 -16.954  -0.776  0.00  0.00     0.014 A 
ATOM      3  C   UNL d   1      30.220 -17.270  -1.791  0.00  0.00     0.049 A 
ATOM      4  C   UNL d   1      29.933 -16.952  -3.122  0.00  0.00     0.102 A 
ATOM      5  N   UNL d   1      28.761 -16.344  -3.368  0.00  0.00    -0.352 N 
ATOM      6  C   UNL d   1      27.857 -16.035  -2.419  0.00  0.00     0.098 A 
ATOM      7  H   UNL d   1      28.548 -16.188  -4.350  0.00  0.00     0.166 HD
ENDROOT
BRANCH   1   8
ATOM      8  C   UNL d   1      27.096 -15.950  -0.003  0.00  0.00     0.162 C 
BRANCH   8   9
ATOM      9  N   UNL d   1      25.725 -16.350  -0.284  0.00  0.00    -0.353 N 
ATOM     10  C   UNL d   1      25.235 -17.564   0.141  0.00  0.00     0.253 C 
ATOM     11  O   UNL d   1      25.903 -18.357   0.800  0.00  0.00    -0.268 OA
ATOM     12  H   UNL d   1      25.063 -15.693  -0.668  0.00  0.00     0.163 HD
BRANCH  10  13
ATOM     13  C   UNL d   1      23.800 -17.836  -0.203  0.00  0.00     0.048 A 
ATOM     14  C   UNL d   1      23.018 -16.832  -0.929  0.00  0.00     0.022 A 
ATOM     15  C   UNL d   1      21.708 -17.002  -1.195  0.00  0.00     0.052 A 
ATOM     16  C   UNL d   1      21.047 -18.183  -0.764  0.00  0.00     0.133 A 
ATOM     17  N   UNL d   1      19.800 -18.577  -0.896  0.00  0.00    -0.241 NA
ATOM     18  N   UNL d   1      21.809 -19.121  -0.073  0.00  0.00    -0.315 N 
ATOM     19  C   UNL d   1      19.735 -19.800  -0.281  0.00  0.00     0.136 A 
ATOM     20  C   UNL d   1      20.961 -20.159   0.230  0.00  0.00     0.117 A 
ATOM     21  C   UNL d   1      23.169 -18.956   0.213  0.00  0.00     0.115 A 
ENDBRANCH  10  13
ENDBRANCH   8   9
ENDBRANCH   1   8
BRANCH   4  22
ATOM     22  N   UNL d   1      30.647 -17.420  -4.209  0.00  0.00    -0.367 N 
ATOM     23  C   UNL d   1      31.450 -16.517  -5.054  0.00  0.00     0.124 C 
ATOM     24  C   UNL d   1      30.865 -16.530  -6.473  0.00  0.00     0.020 C 
ATOM     25  C   UNL d   1      31.128 -17.812  -7.273  0.00  0.00     0.002 C 
ATOM     26  C   UNL d   1      30.734 -19.107  -6.562  0.00  0.00     0.002 C 
ATOM     27  C   UNL d   1      31.627 -19.415  -5.361  0.00  0.00     0.020 C 
ATOM     28  C   UNL d   1      31.131 -18.800  -4.057  0.00  0.00     0.124 C 
ENDBRANCH   4  22
TORSDOF 4
ENDMDL
MODEL 3
REMARK VINA RESULT:   -28.370      1.721      2.391
REMARK INTER + INTRA:         -30.008
REMARK INTER:                 -29.563
REMARK INTRA:                  -0.445
REMARK CONF_INDEPENDENT:        1.193
REMARK UNBOUND:                -0.445
REMARK  4 active torsions:
REMARK  status: ('A' for Active; 'I' for Inactive)
REMARK       I    between atoms: C_2  and  N_3 
REMARK    1  A    between atoms: C_2  and  C_18 
REMARK    2  A    between atoms: N_3  and  C_4 
REMARK    3  A    between atoms: C_4  and  C_5 
REMARK    4  A    between atoms: C_8  and  N_9 
ROOT
ATOM      1  C   UNL d   1      27.382 -14.949   0.564  0.00  0.00    -0.025 A 
ATOM      2  C   UNL d   1      28.052 -14.849   1.785  0.00  0.00     0.014 A 
ATOM      3  C   UNL d   1      28.169 -13.619   2.433  0.00  0.00     0.049 A 
ATOM      4  C   UNL d   1      27.593 -12.469   1.883  0.00  0.00     0.102 A 
ATOM      5  N   UNL d   1      26.939 -12.607   0.719  0.00  0.00    -0.352 N 
ATOM      6  C   UNL d   1      26.815 -13.774   0.057  0.00  0.00     0.098 A 
ATOM      7  H   UNL d   1      26.591 -11.744   0.308  0.00  0.00     0.166 HD
ENDROOT
BRANCH   1   8
ATOM      8  C   UNL d   1      27.201 -16.269  -0.163  0.00  0.00     0.162 C 
BRANCH   8   9
ATOM      9  N   UNL d   1      25.815 -16.622  -0.433  0.00  0.00    -0.353 N 
ATOM     10  C   UNL d   1      25.213 -17.684   0.204  0.00  0.00     0.253 C 
ATOM     11  O   UNL d   1      25.789 -18.367   1.048  0.00  0.00    -0.268 OA
ATOM     12  H   UNL d   1      25.223 -16.015  -0.979  0.00  0.00     0.163 HD
BRANCH  10  13
ATOM     13  C   UNL d   1      23.776 -17.921  -0.156  0.00  0.00     0.048 A 
ATOM     14  C   UNL d   1      23.014 -16.880  -0.850  0.00  0.00     0.022 A 
ATOM     15  C   UNL d   1      21.703 -17.020  -1.129  0.00  0.00     0.052 A 
ATOM     16  C   UNL d   1      21.022 -18.206  -0.743  0.00  0.00     0.133 A 
ATOM     17  N   UNL d   1      19.769 -18.575  -0.895  0.00  0.00    -0.241 NA
ATOM     18  N   UNL d   1      21.765 -19.179  -0.082  0.00  0.00    -0.315 N 
ATOM     19  C   UNL d   1      19.681 -19.817  -0.324  0.00  0.00     0.136 A 
ATOM     20  C   UNL d   1      20.900 -20.213   0.180  0.00  0.00     0.117 A 
ATOM     21  C   UNL d   1      23.125 -19.045   0.217  0.00  0.00     0.115 A 
ENDBRANCH  10  13
ENDBRANCH   8   9
ENDBRANCH   1   8
BRANCH   4  22
ATOM     22  N   UNL d   1      27.845 -11.182   2.323  0.00  0.00    -0.367 N 
ATOM     23  C   UNL d   1      28.500 -10.922   3.618  0.00  0.00     0.124 C 
ATOM     24  C   UNL d   1      27.517 -10.157   4.516  0.00  0.00     0.020 C 
ATOM     25  C   UNL d   1      27.287  -8.691   4.127  0.00  0.00     0.002 C 
ATOM     26  C   UNL d   1      26.903  -8.465   2.665  0.00  0.00     0.002 C 
ATOM     27  C   UNL d   1      28.049  -8.766   1.701  0.00  0.00     0.020 C 
ATOM     28  C   UNL d   1      28.094 -10.219   1.241  0.00  0.00     0.124 C 
ENDBRANCH   4  22
TORSDOF 4
ENDMDL
MODEL 4
REMARK VINA RESULT:   -28.340      3.865      6.652
REMARK INTER + INTRA:         -29.939
REMARK INTER:                 -29.534
REMARK INTRA:                  -0.405
REMARK CONF_INDEPENDENT:        1.193
REMARK UNBOUND:                -0.405
REMARK  4 active torsions:
REMARK  status: ('A' for Active; 'I' for Inactive)
REMARK       I    between atoms: C_2  and  N_3 
REMARK    1  A    between atoms: C_2  and  C_18 
REMARK    2  A    between atoms: N_3  and  C_4 
REMARK    3  A    between atoms: C_4  and  C_5 
REMARK    4  A    between atoms: C_8  and  N_9 
ROOT
ATOM      1  C   UNL d   1      28.238 -16.520  -1.417  0.00  0.00    -0.025 A 
ATOM      2  C   UNL d   1      29.433 -17.223  -1.252  0.00  0.00     0.014 A 
ATOM      3  C   UNL d   1      30.289 -17.434  -2.333  0.00  0.00     0.049 A 
ATOM      4  C   UNL d   1      29.979 -16.918  -3.596  0.00  0.00     0.102 A 
ATOM      5  N   UNL d   1      28.832 -16.229  -3.712  0.00  0.00    -0.352 N 
ATOM      6  C   UNL d   1      27.974 -16.016  -2.696  0.00  0.00     0.098 A 
ATOM      7  H   UNL d   1      28.598 -15.926  -4.654  0.00  0.00     0.166 HD
ENDROOT
BRANCH   1   8
ATOM      8  C   UNL d   1      27.290 -16.238  -0.266  0.00  0.00     0.162 C 
BRANCH   8   9
ATOM      9  N   UNL d   1      25.906 -16.603  -0.523  0.00  0.00    -0.353 N 
ATOM     10  C   UNL d   1      25.288 -17.604   0.193  0.00  0.00     0.253 C 
ATOM     11  O   UNL d   1      25.848 -18.218   1.098  0.00  0.00    -0.268 OA
ATOM     12  H   UNL d   1      25.325 -16.040  -1.125  0.00  0.00     0.163 HD
BRANCH  10  13
ATOM     13  C   UNL d   1      23.853 -17.861  -0.164  0.00  0.00     0.048 A 
ATOM     14  C   UNL d   1      23.066 -16.818  -0.826  0.00  0.00     0.022 A 
ATOM     15  C   UNL d   1      21.755 -16.978  -1.099  0.00  0.00     0.052 A 
ATOM     16  C   UNL d   1      21.101 -18.186  -0.741  0.00  0.00     0.133 A 
ATOM     17  N   UNL d   1      19.855 -18.577  -0.895  0.00  0.00    -0.241 NA
ATOM     18  N   UNL d   1      21.869 -19.162  -0.111  0.00  0.00    -0.315 N 
ATOM     19  C   UNL d   1      19.797 -19.835  -0.357  0.00  0.00     0.136 A 
ATOM     20  C   UNL d   1      21.026 -20.220   0.129  0.00  0.00     0.117 A 
ATOM     21  C   UNL d   1      23.228 -19.008   0.183  0.00  0.00     0.115 A 
ENDBRANCH  10  13
ENDBRANCH   8   9
ENDBRANCH   1   8
BRANCH   4  22
ATOM     22  N   UNL d   1      30.637 -17.260  -4.763  0.00  0.00    -0.367 N 
ATOM     23  C   UNL d   1      30.827 -18.668  -5.159  0.00  0.00     0.124 C 
ATOM     24  C   UNL d   1      32.333 -18.965  -5.193  0.00  0.00     0.020 C 
ATOM     25  C   UNL d   1      33.093 -18.338  -6.368  0.00  0.00     0.002 C 
ATOM     26  C   UNL d   1      32.879 -16.835  -6.546  0.00  0.00     0.002 C 
ATOM     27  C   UNL d   1      31.461 -16.490  -6.998  0.00  0.00     0.020 C 
ATOM     28  C   UNL d   1      30.488 -16.276  -5.844  0.00  0.00     0.124 C 
ENDBRANCH   4  22
TORSDOF 4
ENDMDL
MODEL 5
REMARK VINA RESULT:   -28.317      3.823      6.511
REMARK INTER + INTRA:         -30.012
REMARK INTER:                 -29.510
REMARK INTRA:                  -0.502
REMARK CONF_INDEPENDENT:        1.193
REMARK UNBOUND:                -0.502
REMARK  4 active torsions:
REMARK  status: ('A' for Active; 'I' for Inactive)
REMARK       I    between atoms: C_2  and  N_3 
REMARK    1  A    between atoms: C_2  and  C_18 
REMARK    2  A    between atoms: N_3  and  C_4 
REMARK    3  A    between atoms: C_4  and  C_5 
REMARK    4  A    between atoms: C_8  and  N_9 
ROOT
ATOM      1  C   UNL d   1      28.055 -16.408  -1.429  0.00  0.00    -0.025 A 
ATOM      2  C   UNL d   1      27.690 -15.757  -2.610  0.00  0.00     0.014 A 
ATOM      3  C   UNL d   1      28.501 -15.833  -3.743  0.00  0.00     0.049 A 
ATOM      4  C   UNL d   1      29.679 -16.586  -3.725  0.00  0.00     0.102 A 
ATOM      5  N   UNL d   1      29.987 -17.215  -2.579  0.00  0.00    -0.352 N 
ATOM      6  C   UNL d   1      29.238 -17.155  -1.461  0.00  0.00     0.098 A 
ATOM      7  H   UNL d   1      30.882 -17.697  -2.572  0.00  0.00     0.166 HD
ENDROOT
BRANCH   1   8
ATOM      8  C   UNL d   1      27.192 -16.381  -0.181  0.00  0.00     0.162 C 
BRANCH   8   9
ATOM      9  N   UNL d   1      25.788 -16.682  -0.413  0.00  0.00    -0.353 N 
ATOM     10  C   UNL d   1      25.271 -17.928  -0.138  0.00  0.00     0.253 C 
ATOM     11  O   UNL d   1      25.945 -18.837   0.342  0.00  0.00    -0.268 OA
ATOM     12  H   UNL d   1      25.132 -15.951  -0.642  0.00  0.00     0.163 HD
BRANCH  10  13
ATOM     13  C   UNL d   1      23.804 -18.092  -0.407  0.00  0.00     0.048 A 
ATOM     14  C   UNL d   1      23.018 -16.955  -0.894  0.00  0.00     0.022 A 
ATOM     15  C   UNL d   1      21.685 -17.035  -1.080  0.00  0.00     0.052 A 
ATOM     16  C   UNL d   1      21.005 -18.250  -0.799  0.00  0.00     0.133 A 
ATOM     17  N   UNL d   1      19.734 -18.575  -0.895  0.00  0.00    -0.241 NA
ATOM     18  N   UNL d   1      21.772 -19.315  -0.335  0.00  0.00    -0.315 N 
ATOM     19  C   UNL d   1      19.659 -19.881  -0.487  0.00  0.00     0.136 A 
ATOM     20  C   UNL d   1      20.902 -20.360  -0.141  0.00  0.00     0.117 A 
ATOM     21  C   UNL d   1      23.154 -19.245  -0.133  0.00  0.00     0.115 A 
ENDBRANCH  10  13
ENDBRANCH   8   9
ENDBRANCH   1   8
BRANCH   4  22
ATOM     22  N   UNL d   1      30.652 -16.539  -4.706  0.00  0.00    -0.367 N 
ATOM     23  C   UNL d   1      31.772 -15.583  -4.640  0.00  0.00     0.124 C 
ATOM     24  C   UNL d   1      31.675 -14.635  -5.843  0.00  0.00     0.020 C 
ATOM     25  C   UNL d   1      32.045 -15.260  -7.194  0.00  0.00     0.002 C 
ATOM     26  C   UNL d   1      31.313 -16.560  -7.526  0.00  0.00     0.002 C 
ATOM     27  C   UNL d   1      31.736 -17.721  -6.628  0.00  0.00     0.020 C 
ATOM     28  C   UNL d   1      30.915 -17.835  -5.348  0.00  0.00     0.124 C 
ENDBRANCH   4  22
TORSDOF 4
ENDMDL
MODEL 6
REMARK VINA RESULT:   -28.114      3.540      6.155
REMARK INTER + INTRA:         -29.858
REMARK INTER:                 -29.307
REMARK INTRA:                  -0.551
REMARK CONF_INDEPENDENT:        1.193
REMARK UNBOUND:                -0.551
REMARK  4 active torsions:
REMARK  status: ('A' for Active; 'I' for Inactive)
REMARK       I    between atoms: C_2  and  N_3 
REMARK    1  A    between atoms: C_2  and  C_18 
REMARK    2  A    between atoms: N_3  and  C_4 
REMARK    3  A    between atoms: C_4  and  C_5 
REMARK    4  A    between atoms: C_8  and  N_9 
ROOT
ATOM      1  C   UNL d   1      27.919 -16.393  -0.882  0.00  0.00    -0.025 A 
ATOM      2  C   UNL d   1      27.616 -15.729  -2.073  0.00  0.00     0.014 A 
ATOM      3  C   UNL d   1      28.471 -15.817  -3.172  0.00  0.00     0.049 A 
ATOM      4  C   UNL d   1      29.632 -16.595  -3.110  0.00  0.00     0.102 A 
ATOM      5  N   UNL d   1      29.879 -17.235  -1.956  0.00  0.00    -0.352 N 
ATOM      6  C   UNL d   1      29.087 -17.165  -0.869  0.00  0.00     0.098 A 
ATOM      7  H   UNL d   1      30.764 -17.735  -1.915  0.00  0.00     0.166 HD
ENDROOT
BRANCH   1   8
ATOM      8  C   UNL d   1      27.006 -16.354   0.330  0.00  0.00     0.162 C 
BRANCH   8   9
ATOM      9  N   UNL d   1      25.611 -16.652   0.043  0.00  0.00    -0.353 N 
ATOM     10  C   UNL d   1      25.181 -17.947  -0.137  0.00  0.00     0.253 C 
ATOM     11  O   UNL d   1      25.931 -18.917  -0.037  0.00  0.00    -0.268 OA
ATOM     12  H   UNL d   1      24.904 -15.936   0.113  0.00  0.00     0.163 HD
BRANCH  10  13
ATOM     13  C   UNL d   1      23.714 -18.109  -0.407  0.00  0.00     0.048 A 
ATOM     14  C   UNL d   1      22.939 -16.982  -0.934  0.00  0.00     0.022 A 
ATOM     15  C   UNL d   1      21.607 -17.058  -1.123  0.00  0.00     0.052 A 
ATOM     16  C   UNL d   1      20.916 -18.258  -0.805  0.00  0.00     0.133 A 
ATOM     17  N   UNL d   1      19.643 -18.576  -0.896  0.00  0.00    -0.241 NA
ATOM     18  N   UNL d   1      21.672 -19.313  -0.303  0.00  0.00    -0.315 N 
ATOM     19  C   UNL d   1      19.555 -19.867  -0.446  0.00  0.00     0.136 A 
ATOM     20  C   UNL d   1      20.793 -20.345  -0.078  0.00  0.00     0.117 A 
ATOM     21  C   UNL d   1      23.055 -19.247  -0.098  0.00  0.00     0.115 A 
ENDBRANCH  10  13
ENDBRANCH   8   9
ENDBRANCH   1   8
BRANCH   4  22
ATOM     22  N   UNL d   1      30.645 -16.564  -4.051  0.00  0.00    -0.367 N 
ATOM     23  C   UNL d   1      30.391 -16.164  -5.447  0.00  0.00     0.124 C 
ATOM     24  C   UNL d   1      30.698 -17.360  -6.359  0.00  0.00     0.020 C 
ATOM     25  C   UNL d   1      32.187 -17.685  -6.527  0.00  0.00     0.002 C 
ATOM     26  C   UNL d   1      32.963 -17.845  -5.220  0.00  0.00     0.002 C 
ATOM     27  C   UNL d   1      33.114 -16.530  -4.459  0.00  0.00     0.020 C 
ATOM     28  C   UNL d   1      31.968 -16.247  -3.494  0.00  0.00     0.124 C 
ENDBRANCH   4  22
TORSDOF 4
ENDMDL
MODEL 7
REMARK VINA RESULT:   -27.439      4.025      6.082
REMARK INTER + INTRA:         -29.075
REMARK INTER:                 -28.632
REMARK INTRA:                  -0.443
REMARK CONF_INDEPENDENT:        1.193
REMARK UNBOUND:                -0.443
REMARK  4 active torsions:
REMARK  status: ('A' for Active; 'I' for Inactive)
REMARK       I    between atoms: C_2  and  N_3 
REMARK    1  A    between atoms: C_2  and  C_18 
REMARK    2  A    between atoms: N_3  and  C_4 
REMARK    3  A    between atoms: C_4  and  C_5 
REMARK    4  A    between atoms: C_8  and  N_9 
ROOT
ATOM      1  C   UNL d   1      27.759 -15.927  -1.711  0.00  0.00    -0.025 A 
ATOM      2  C   UNL d   1      29.009 -16.109  -2.306  0.00  0.00     0.014 A 
ATOM      3  C   UNL d   1      29.462 -15.230  -3.290  0.00  0.00     0.049 A 
ATOM      4  C   UNL d   1      28.684 -14.135  -3.677  0.00  0.00     0.102 A 
ATOM      5  N   UNL d   1      27.497 -13.980  -3.068  0.00  0.00    -0.352 N 
ATOM      6  C   UNL d   1      27.019 -14.813  -2.124  0.00  0.00     0.098 A 
ATOM      7  H   UNL d   1      26.923 -13.217  -3.418  0.00  0.00     0.166 HD
ENDROOT
BRANCH   1   8
ATOM      8  C   UNL d   1      27.236 -16.837  -0.614  0.00  0.00     0.162 C 
BRANCH   8   9
ATOM      9  N   UNL d   1      25.873 -17.305  -0.819  0.00  0.00    -0.353 N 
ATOM     10  C   UNL d   1      25.233 -18.071   0.129  0.00  0.00     0.253 C 
ATOM     11  O   UNL d   1      25.753 -18.375   1.200  0.00  0.00    -0.268 OA
ATOM     12  H   UNL d   1      25.318 -16.961  -1.587  0.00  0.00     0.163 HD
BRANCH  10  13
ATOM     13  C   UNL d   1      23.825 -18.467  -0.206  0.00  0.00     0.048 A 
ATOM     14  C   UNL d   1      23.431 -18.656  -1.604  0.00  0.00     0.022 A 
ATOM     15  C   UNL d   1      22.161 -18.940  -1.956  0.00  0.00     0.052 A 
ATOM     16  C   UNL d   1      21.160 -19.060  -0.955  0.00  0.00     0.133 A 
ATOM     17  N   UNL d   1      19.875 -19.325  -1.040  0.00  0.00    -0.241 NA
ATOM     18  N   UNL d   1      21.558 -18.874   0.366  0.00  0.00    -0.315 N 
ATOM     19  C   UNL d   1      19.413 -19.312   0.250  0.00  0.00     0.136 A 
ATOM     20  C   UNL d   1      20.432 -19.041   1.135  0.00  0.00     0.117 A 
ATOM     21  C   UNL d   1      22.871 -18.575   0.745  0.00  0.00     0.115 A 
ENDBRANCH  10  13
ENDBRANCH   8   9
ENDBRANCH   1   8
BRANCH   4  22
ATOM     22  N   UNL d   1      28.938 -13.349  -4.787  0.00  0.00    -0.367 N 
ATOM     23  C   UNL d   1      30.021 -12.350  -4.795  0.00  0.00     0.124 C 
ATOM     24  C   UNL d   1      29.399 -10.958  -4.971  0.00  0.00     0.020 C 
ATOM     25  C   UNL d   1      28.862 -10.659  -6.376  0.00  0.00     0.002 C 
ATOM     26  C   UNL d   1      27.900 -11.708  -6.935  0.00  0.00     0.002 C 
ATOM     27  C   UNL d   1      28.589 -13.035  -7.245  0.00  0.00     0.020 C 
ATOM     28  C   UNL d   1      28.617 -14.000  -6.065  0.00  0.00     0.124 C 
ENDBRANCH   4  22
TORSDOF 4
ENDMDL
MODEL 8
REMARK VINA RESULT:   -27.232      2.354      3.213
REMARK INTER + INTRA:         -28.921
REMARK INTER:                 -28.425
REMARK INTRA:                  -0.496
REMARK CONF_INDEPENDENT:        1.193
REMARK UNBOUND:                -0.496
REMARK  4 active torsions:
REMARK  status: ('A' for Active; 'I' for Inactive)
REMARK       I    between atoms: C_2  and  N_3 
REMARK    1  A    between atoms: C_2  and  C_18 
REMARK    2  A    between atoms: N_3  and  C_4 
REMARK    3  A    between atoms: C_4  and  C_5 
REMARK    4  A    between atoms: C_8  and  N_9 
ROOT
ATOM      1  C   UNL d   1      27.682 -15.745  -0.729  0.00  0.00    -0.025 A 
ATOM      2  C   UNL d   1      27.782 -15.277   0.583  0.00  0.00     0.014 A 
ATOM      3  C   UNL d   1      28.107 -13.945   0.839  0.00  0.00     0.049 A 
ATOM      4  C   UNL d   1      28.309 -13.047  -0.215  0.00  0.00     0.102 A 
ATOM      5  N   UNL d   1      28.184 -13.529  -1.462  0.00  0.00    -0.352 N 
ATOM      6  C   UNL d   1      27.886 -14.810  -1.751  0.00  0.00     0.098 A 
ATOM      7  H   UNL d   1      28.406 -12.873  -2.207  0.00  0.00     0.166 HD
ENDROOT
BRANCH   1   8
ATOM      8  C   UNL d   1      27.301 -17.177  -1.059  0.00  0.00     0.162 C 
BRANCH   8   9
ATOM      9  N   UNL d   1      25.870 -17.405  -1.189  0.00  0.00    -0.353 N 
ATOM     10  C   UNL d   1      25.135 -17.932  -0.151  0.00  0.00     0.253 C 
ATOM     11  O   UNL d   1      25.629 -18.208   0.941  0.00  0.00    -0.268 OA
ATOM     12  H   UNL d   1      25.359 -17.051  -1.983  0.00  0.00     0.163 HD
BRANCH  10  13
ATOM     13  C   UNL d   1      23.668 -18.095  -0.416  0.00  0.00     0.048 A 
ATOM     14  C   UNL d   1      22.882 -16.957  -0.901  0.00  0.00     0.022 A 
ATOM     15  C   UNL d   1      21.549 -17.037  -1.084  0.00  0.00     0.052 A 
ATOM     16  C   UNL d   1      20.868 -18.251  -0.801  0.00  0.00     0.133 A 
ATOM     17  N   UNL d   1      19.597 -18.575  -0.895  0.00  0.00    -0.241 NA
ATOM     18  N   UNL d   1      21.635 -19.316  -0.340  0.00  0.00    -0.315 N 
ATOM     19  C   UNL d   1      19.521 -19.881  -0.487  0.00  0.00     0.136 A 
ATOM     20  C   UNL d   1      20.765 -20.361  -0.143  0.00  0.00     0.117 A 
ATOM     21  C   UNL d   1      23.018 -19.247  -0.141  0.00  0.00     0.115 A 
ENDBRANCH  10  13
ENDBRANCH   8   9
ENDBRANCH   1   8
BRANCH   4  22
ATOM     22  N   UNL d   1      28.850 -11.783  -0.072  0.00  0.00    -0.367 N 
ATOM     23  C   UNL d   1      28.952 -11.131   1.246  0.00  0.00     0.124 C 
ATOM     24  C   UNL d   1      28.086  -9.863   1.231  0.00  0.00     0.020 C 
ATOM     25  C   UNL d   1      28.650  -8.700   0.405  0.00  0.00     0.002 C 
ATOM     26  C   UNL d   1      29.035  -9.057  -1.030  0.00  0.00     0.002 C 
ATOM     27  C   UNL d   1      30.248  -9.981  -1.104  0.00  0.00     0.020 C 
ATOM     28  C   UNL d   1      29.891 -11.463  -1.059  0.00  0.00     0.124 C 
ENDBRANCH   4  22
TORSDOF 4
ENDMDL
