MODEL 1
REMARK VINA RESULT:    -9.718      0.000      0.000
REMARK INTER + INTRA:         -13.037
REMARK INTER:                 -11.507
REMARK INTRA:                  -1.529
REMARK CONF_INDEPENDENT:        1.790
REMARK UNBOUND:                -1.529
REMARK  6 active torsions:
REMARK  status: ('A' for Active; 'I' for Inactive)
REMARK    1  A    between atoms: C_3  and  O_2 
REMARK    2  A    between atoms: C_3  and  C_26 
REMARK    3  A    between atoms: C_3  and  C_4 
REMARK       I    between atoms: C_4  and  N_6 
REMARK    4  A    between atoms: N_6  and  C_7 
REMARK    5  A    between atoms: N_11  and  C_12 
REMARK    6  A    between atoms: C_15  and  C_16 
ROOT
ATOM      1  C   UNL d   1      26.854 -15.575  -2.240  0.00  0.00     0.043 A 
ATOM      2  C   UNL d   1      25.441 -15.570  -2.421  0.00  0.00     0.066 A 
ATOM      3  C   UNL d   1      24.723 -16.561  -1.689  0.00  0.00     0.111 A 
ATOM      4  N   UNL d   1      23.413 -16.887  -1.689  0.00  0.00    -0.147 NA
ATOM      5  N   UNL d   1      23.329 -17.815  -0.695  0.00  0.00    -0.150 N 
ATOM      6  N   UNL d   1      24.485 -18.182  -0.104  0.00  0.00    -0.147 NA
ATOM      7  C   UNL d   1      25.401 -17.462  -0.762  0.00  0.00     0.110 A 
ATOM      8  C   UNL d   1      26.794 -17.474  -0.609  0.00  0.00     0.045 A 
ATOM      9  C   UNL d   1      27.509 -16.505  -1.353  0.00  0.00    -0.033 A 
ATOM     10  C   UNL d   1      29.003 -16.454  -1.110  0.00  0.00     0.050 C 
ENDROOT
BRANCH   1  11
ATOM     11  N   UNL d   1      27.667 -14.633  -2.957  0.00  0.00    -0.324 N 
ATOM     12  C   UNL d   1      27.743 -14.743  -4.346  0.00  0.00     0.255 C 
ATOM     13  O   UNL d   1      26.983 -15.521  -4.953  0.00  0.00    -0.270 OA
ATOM     14  H   UNL d   1      27.774 -13.705  -2.562  0.00  0.00     0.169 HD
BRANCH  12  15
ATOM     15  C   UNL d   1      28.760 -13.837  -5.151  0.00  0.00     0.247 C 
BRANCH  15  16
ATOM     16  C   UNL d   1      27.950 -12.949  -6.111  0.00  0.00     0.001 C 
ATOM     17  C   UNL d   1      28.342 -13.000  -7.470  0.00  0.00     0.012 C 
ATOM     18  C   UNL d   1      27.983 -11.995  -8.368  0.00  0.00     0.001 C 
ATOM     19  C   UNL d   1      27.159 -10.960  -7.953  0.00  0.00     0.002 C 
ATOM     20  C   UNL d   1      26.627 -10.983  -6.672  0.00  0.00     0.024 C 
ATOM     21  C   UNL d   1      26.989 -11.978  -5.760  0.00  0.00     0.043 C 
ATOM     22 CL   UNL d   1      26.071 -11.915  -4.296  0.00  0.00    -0.084 Cl
ENDBRANCH  15  16
BRANCH  15  23
ATOM     23  O   UNL d   1      29.829 -14.553  -5.781  0.00  0.00    -0.377 OA
ATOM     24  C   UNL d   1      30.072 -15.870  -5.274  0.00  0.00     0.203 C 
ENDBRANCH  15  23
ENDBRANCH  12  15
ENDBRANCH   1  11
BRANCH   5  25
ATOM     25  C   UNL d   1      22.112 -18.436  -0.307  0.00  0.00     0.079 A 
ATOM     26  C   UNL d   1      21.796 -18.575   1.052  0.00  0.00     0.034 A 
ATOM     27  C   UNL d   1      20.688 -19.340   1.445  0.00  0.00     0.010 A 
ATOM     28  C   UNL d   1      19.852 -19.941   0.490  0.00  0.00    -0.055 A 
ATOM     29  C   UNL d   1      20.141 -19.710  -0.868  0.00  0.00     0.010 A 
ATOM     30  C   UNL d   1      21.273 -18.991  -1.270  0.00  0.00     0.034 A 
BRANCH  28  31
ATOM     31  C   UNL d   1      18.713 -20.857   0.940  0.00  0.00     0.010 C 
ATOM     32  C   UNL d   1      18.024 -20.337   2.206  0.00  0.00     0.015 C 
ATOM     33  C   UNL d   1      17.655 -21.091  -0.145  0.00  0.00     0.015 C 
ENDBRANCH  28  31
ENDBRANCH   5  25
TORSDOF 6
ENDMDL
MODEL 2
REMARK VINA RESULT:    -9.366      1.911      2.761
REMARK INTER + INTRA:         -12.697
REMARK INTER:                 -11.156
REMARK INTRA:                  -1.542
REMARK CONF_INDEPENDENT:        1.790
REMARK UNBOUND:                -1.542
REMARK  6 active torsions:
REMARK  status: ('A' for Active; 'I' for Inactive)
REMARK    1  A    between atoms: C_3  and  O_2 
REMARK    2  A    between atoms: C_3  and  C_26 
REMARK    3  A    between atoms: C_3  and  C_4 
REMARK       I    between atoms: C_4  and  N_6 
REMARK    4  A    between atoms: N_6  and  C_7 
REMARK    5  A    between atoms: N_11  and  C_12 
REMARK    6  A    between atoms: C_15  and  C_16 
ROOT
ATOM      1  C   UNL d   1      27.034 -15.676  -2.007  0.00  0.00     0.043 A 
ATOM      2  C   UNL d   1      25.644 -15.720  -2.315  0.00  0.00     0.066 A 
ATOM      3  C   UNL d   1      24.878 -16.661  -1.568  0.00  0.00     0.111 A 
ATOM      4  N   UNL d   1      23.578 -17.017  -1.657  0.00  0.00    -0.147 NA
ATOM      5  N   UNL d   1      23.417 -17.858  -0.598  0.00  0.00    -0.150 N 
ATOM      6  N   UNL d   1      24.519 -18.146   0.125  0.00  0.00    -0.147 NA
ATOM      7  C   UNL d   1      25.480 -17.463  -0.508  0.00  0.00     0.110 A 
ATOM      8  C   UNL d   1      26.854 -17.429  -0.229  0.00  0.00     0.045 A 
ATOM      9  C   UNL d   1      27.619 -16.511  -0.987  0.00  0.00    -0.033 A 
ATOM     10  C   UNL d   1      29.083 -16.404  -0.615  0.00  0.00     0.050 C 
ENDROOT
BRANCH   1  11
ATOM     11  N   UNL d   1      27.895 -14.779  -2.727  0.00  0.00    -0.324 N 
ATOM     12  C   UNL d   1      27.928 -14.865  -4.120  0.00  0.00     0.255 C 
ATOM     13  O   UNL d   1      27.099 -15.574  -4.721  0.00  0.00    -0.270 OA
ATOM     14  H   UNL d   1      28.079 -13.870  -2.317  0.00  0.00     0.169 HD
BRANCH  12  15
ATOM     15  C   UNL d   1      28.988 -14.018  -4.933  0.00  0.00     0.247 C 
BRANCH  15  16
ATOM     16  C   UNL d   1      29.732 -14.973  -5.884  0.00  0.00     0.001 C 
ATOM     17  C   UNL d   1      29.650 -16.348  -5.558  0.00  0.00     0.012 C 
ATOM     18  C   UNL d   1      30.561 -17.271  -6.069  0.00  0.00     0.001 C 
ATOM     19  C   UNL d   1      31.523 -16.860  -6.980  0.00  0.00     0.002 C 
ATOM     20  C   UNL d   1      31.512 -15.551  -7.440  0.00  0.00     0.024 C 
ATOM     21  C   UNL d   1      30.612 -14.615  -6.926  0.00  0.00     0.043 C 
ATOM     22 CL   UNL d   1      30.655 -13.106  -7.770  0.00  0.00    -0.084 Cl
ENDBRANCH  15  16
BRANCH  15  23
ATOM     23  O   UNL d   1      29.853 -13.209  -4.126  0.00  0.00    -0.377 OA
ATOM     24  C   UNL d   1      29.229 -12.091  -3.483  0.00  0.00     0.203 C 
ENDBRANCH  15  23
ENDBRANCH  12  15
ENDBRANCH   1  11
BRANCH   5  25
ATOM     25  C   UNL d   1      22.180 -18.472  -0.269  0.00  0.00     0.079 A 
ATOM     26  C   UNL d   1      21.780 -18.575   1.071  0.00  0.00     0.034 A 
ATOM     27  C   UNL d   1      20.651 -19.333   1.415  0.00  0.00     0.010 A 
ATOM     28  C   UNL d   1      19.876 -19.962   0.428  0.00  0.00    -0.055 A 
ATOM     29  C   UNL d   1      20.248 -19.767  -0.916  0.00  0.00     0.010 A 
ATOM     30  C   UNL d   1      21.403 -19.055  -1.267  0.00  0.00     0.034 A 
BRANCH  28  31
ATOM     31  C   UNL d   1      18.713 -20.869   0.831  0.00  0.00     0.010 C 
ATOM     32  C   UNL d   1      18.035 -20.394   2.120  0.00  0.00     0.015 C 
ATOM     33  C   UNL d   1      17.651 -21.022  -0.265  0.00  0.00     0.015 C 
ENDBRANCH  28  31
ENDBRANCH   5  25
TORSDOF 6
ENDMDL
MODEL 3
REMARK VINA RESULT:    -8.875      2.817      4.050
REMARK INTER + INTRA:         -12.331
REMARK INTER:                 -10.665
REMARK INTRA:                  -1.666
REMARK CONF_INDEPENDENT:        1.790
REMARK UNBOUND:                -1.666
REMARK  6 active torsions:
REMARK  status: ('A' for Active; 'I' for Inactive)
REMARK    1  A    between atoms: C_3  and  O_2 
REMARK    2  A    between atoms: C_3  and  C_26 
REMARK    3  A    between atoms: C_3  and  C_4 
REMARK       I    between atoms: C_4  and  N_6 
REMARK    4  A    between atoms: N_6  and  C_7 
REMARK    5  A    between atoms: N_11  and  C_12 
REMARK    6  A    between atoms: C_15  and  C_16 
ROOT
ATOM      1  C   UNL d   1      27.209 -16.119  -1.931  0.00  0.00     0.043 A 
ATOM      2  C   UNL d   1      26.676 -17.330  -1.402  0.00  0.00     0.066 A 
ATOM      3  C   UNL d   1      25.270 -17.334  -1.170  0.00  0.00     0.111 A 
ATOM      4  N   UNL d   1      24.466 -18.265  -0.611  0.00  0.00    -0.147 NA
ATOM      5  N   UNL d   1      23.221 -17.742  -0.791  0.00  0.00    -0.150 N 
ATOM      6  N   UNL d   1      23.151 -16.514  -1.345  0.00  0.00    -0.147 NA
ATOM      7  C   UNL d   1      24.436 -16.192  -1.528  0.00  0.00     0.110 A 
ATOM      8  C   UNL d   1      24.973 -14.996  -2.027  0.00  0.00     0.045 A 
ATOM      9  C   UNL d   1      26.373 -14.984  -2.236  0.00  0.00    -0.033 A 
ATOM     10  C   UNL d   1      26.937 -13.729  -2.868  0.00  0.00     0.050 C 
ENDROOT
BRANCH   1  11
ATOM     11  N   UNL d   1      28.621 -16.007  -2.172  0.00  0.00    -0.324 N 
ATOM     12  C   UNL d   1      29.072 -16.023  -3.493  0.00  0.00     0.255 C 
ATOM     13  O   UNL d   1      28.257 -15.953  -4.432  0.00  0.00    -0.270 OA
ATOM     14  H   UNL d   1      29.174 -15.485  -1.503  0.00  0.00     0.169 HD
BRANCH  12  15
ATOM     15  C   UNL d   1      30.625 -16.077  -3.790  0.00  0.00     0.247 C 
BRANCH  15  16
ATOM     16  C   UNL d   1      30.893 -17.290  -4.700  0.00  0.00     0.001 C 
ATOM     17  C   UNL d   1      30.941 -17.016  -6.087  0.00  0.00     0.012 C 
ATOM     18  C   UNL d   1      30.784 -18.027  -7.034  0.00  0.00     0.001 C 
ATOM     19  C   UNL d   1      30.657 -19.345  -6.621  0.00  0.00     0.002 C 
ATOM     20  C   UNL d   1      30.778 -19.653  -5.273  0.00  0.00     0.024 C 
ATOM     21  C   UNL d   1      30.923 -18.646  -4.315  0.00  0.00     0.043 C 
ATOM     22 CL   UNL d   1      31.236 -19.265  -2.731  0.00  0.00    -0.084 Cl
ENDBRANCH  15  16
BRANCH  15  23
ATOM     23  O   UNL d   1      31.459 -16.026  -2.626  0.00  0.00    -0.377 OA
ATOM     24  C   UNL d   1      31.362 -14.826  -1.851  0.00  0.00     0.203 C 
ENDBRANCH  15  23
ENDBRANCH  12  15
ENDBRANCH   1  11
BRANCH   5  25
ATOM     25  C   UNL d   1      22.032 -18.397  -0.378  0.00  0.00     0.079 A 
ATOM     26  C   UNL d   1      21.764 -18.575   0.986  0.00  0.00     0.034 A 
ATOM     27  C   UNL d   1      20.685 -19.372   1.396  0.00  0.00     0.010 A 
ATOM     28  C   UNL d   1      19.829 -19.967   0.456  0.00  0.00    -0.055 A 
ATOM     29  C   UNL d   1      20.068 -19.698  -0.906  0.00  0.00     0.010 A 
ATOM     30  C   UNL d   1      21.172 -18.946  -1.327  0.00  0.00     0.034 A 
BRANCH  28  31
ATOM     31  C   UNL d   1      18.725 -20.917   0.920  0.00  0.00     0.010 C 
ATOM     32  C   UNL d   1      18.045 -20.425   2.202  0.00  0.00     0.015 C 
ATOM     33  C   UNL d   1      17.653 -21.174  -0.147  0.00  0.00     0.015 C 
ENDBRANCH  28  31
ENDBRANCH   5  25
TORSDOF 6
ENDMDL
MODEL 4
REMARK VINA RESULT:    -8.704      7.120      9.781
REMARK INTER + INTRA:         -12.255
REMARK INTER:                 -10.494
REMARK INTRA:                  -1.761
REMARK CONF_INDEPENDENT:        1.790
REMARK UNBOUND:                -1.761
REMARK  6 active torsions:
REMARK  status: ('A' for Active; 'I' for Inactive)
REMARK    1  A    between atoms: C_3  and  O_2 
REMARK    2  A    between atoms: C_3  and  C_26 
REMARK    3  A    between atoms: C_3  and  C_4 
REMARK       I    between atoms: C_4  and  N_6 
REMARK    4  A    between atoms: N_6  and  C_7 
REMARK    5  A    between atoms: N_11  and  C_12 
REMARK    6  A    between atoms: C_15  and  C_16 
ROOT
ATOM      1  C   UNL d   1      28.612 -14.823   1.424  0.00  0.00     0.043 A 
ATOM      2  C   UNL d   1      27.789 -14.816   2.586  0.00  0.00     0.066 A 
ATOM      3  C   UNL d   1      28.424 -14.390   3.789  0.00  0.00     0.111 A 
ATOM      4  N   UNL d   1      27.974 -14.342   5.061  0.00  0.00    -0.147 NA
ATOM      5  N   UNL d   1      28.993 -13.728   5.724  0.00  0.00    -0.150 N 
ATOM      6  N   UNL d   1      30.103 -13.447   5.009  0.00  0.00    -0.147 NA
ATOM      7  C   UNL d   1      29.806 -13.922   3.794  0.00  0.00     0.110 A 
ATOM      8  C   UNL d   1      30.615 -13.954   2.650  0.00  0.00     0.045 A 
ATOM      9  C   UNL d   1      29.991 -14.399   1.460  0.00  0.00    -0.033 A 
ATOM     10  C   UNL d   1      30.836 -14.338   0.206  0.00  0.00     0.050 C 
ENDROOT
BRANCH   1  11
ATOM     11  N   UNL d   1      28.070 -15.264   0.169  0.00  0.00    -0.324 N 
ATOM     12  C   UNL d   1      26.815 -14.789  -0.215  0.00  0.00     0.255 C 
ATOM     13  O   UNL d   1      26.271 -13.872   0.427  0.00  0.00    -0.270 OA
ATOM     14  H   UNL d   1      28.722 -15.495  -0.572  0.00  0.00     0.169 HD
BRANCH  12  15
ATOM     15  C   UNL d   1      26.112 -15.385  -1.502  0.00  0.00     0.247 C 
BRANCH  15  16
ATOM     16  C   UNL d   1      25.132 -16.480  -1.044  0.00  0.00     0.001 C 
ATOM     17  C   UNL d   1      23.785 -16.300  -1.440  0.00  0.00     0.012 C 
ATOM     18  C   UNL d   1      22.743 -16.966  -0.796  0.00  0.00     0.001 C 
ATOM     19  C   UNL d   1      23.024 -17.886   0.203  0.00  0.00     0.002 C 
ATOM     20  C   UNL d   1      24.345 -18.200   0.488  0.00  0.00     0.024 C 
ATOM     21  C   UNL d   1      25.397 -17.530  -0.142  0.00  0.00     0.043 C 
ATOM     22 CL   UNL d   1      26.944 -18.207   0.231  0.00  0.00    -0.084 Cl
ENDBRANCH  15  16
BRANCH  15  23
ATOM     23  O   UNL d   1      27.011 -15.804  -2.535  0.00  0.00    -0.377 OA
ATOM     24  C   UNL d   1      27.243 -14.847  -3.576  0.00  0.00     0.203 C 
ENDBRANCH  15  23
ENDBRANCH  12  15
ENDBRANCH   1  11
BRANCH   5  25
ATOM     25  C   UNL d   1      28.957 -13.432   7.112  0.00  0.00     0.079 A 
ATOM     26  C   UNL d   1      29.238 -14.434   8.052  0.00  0.00     0.034 A 
ATOM     27  C   UNL d   1      29.032 -14.197   9.419  0.00  0.00     0.010 A 
ATOM     28  C   UNL d   1      28.587 -12.946   9.876  0.00  0.00    -0.055 A 
ATOM     29  C   UNL d   1      28.400 -11.931   8.918  0.00  0.00     0.010 A 
ATOM     30  C   UNL d   1      28.553 -12.172   7.547  0.00  0.00     0.034 A 
BRANCH  28  31
ATOM     31  C   UNL d   1      28.268 -12.742  11.357  0.00  0.00     0.010 C 
ATOM     32  C   UNL d   1      28.155 -14.072  12.109  0.00  0.00     0.015 C 
ATOM     33  C   UNL d   1      29.281 -11.844  12.080  0.00  0.00     0.015 C 
ENDBRANCH  28  31
ENDBRANCH   5  25
TORSDOF 6
ENDMDL
MODEL 5
REMARK VINA RESULT:    -8.428      1.648      2.069
REMARK INTER + INTRA:         -11.977
REMARK INTER:                 -10.218
REMARK INTRA:                  -1.759
REMARK CONF_INDEPENDENT:        1.790
REMARK UNBOUND:                -1.759
REMARK  6 active torsions:
REMARK  status: ('A' for Active; 'I' for Inactive)
REMARK    1  A    between atoms: C_3  and  O_2 
REMARK    2  A    between atoms: C_3  and  C_26 
REMARK    3  A    between atoms: C_3  and  C_4 
REMARK       I    between atoms: C_4  and  N_6 
REMARK    4  A    between atoms: N_6  and  C_7 
REMARK    5  A    between atoms: N_11  and  C_12 
REMARK    6  A    between atoms: C_15  and  C_16 
ROOT
ATOM      1  C   UNL d   1      27.076 -15.609  -1.872  0.00  0.00     0.043 A 
ATOM      2  C   UNL d   1      25.713 -15.727  -2.269  0.00  0.00     0.066 A 
ATOM      3  C   UNL d   1      24.923 -16.629  -1.498  0.00  0.00     0.111 A 
ATOM      4  N   UNL d   1      23.644 -17.036  -1.647  0.00  0.00    -0.147 NA
ATOM      5  N   UNL d   1      23.432 -17.791  -0.532  0.00  0.00    -0.150 N 
ATOM      6  N   UNL d   1      24.488 -17.978   0.287  0.00  0.00    -0.147 NA
ATOM      7  C   UNL d   1      25.472 -17.318  -0.335  0.00  0.00     0.110 A 
ATOM      8  C   UNL d   1      26.820 -17.212   0.035  0.00  0.00     0.045 A 
ATOM      9  C   UNL d   1      27.610 -16.335  -0.745  0.00  0.00    -0.033 A 
ATOM     10  C   UNL d   1      29.040 -16.145  -0.284  0.00  0.00     0.050 C 
ENDROOT
BRANCH   1  11
ATOM     11  N   UNL d   1      27.960 -14.746  -2.605  0.00  0.00    -0.324 N 
ATOM     12  C   UNL d   1      27.856 -13.368  -2.410  0.00  0.00     0.255 C 
ATOM     13  O   UNL d   1      27.142 -12.920  -1.494  0.00  0.00    -0.270 OA
ATOM     14  H   UNL d   1      28.873 -15.108  -2.855  0.00  0.00     0.169 HD
BRANCH  12  15
ATOM     15  C   UNL d   1      28.689 -12.382  -3.325  0.00  0.00     0.247 C 
BRANCH  15  16
ATOM     16  C   UNL d   1      27.732 -11.294  -3.845  0.00  0.00     0.001 C 
ATOM     17  C   UNL d   1      28.234  -9.971  -3.814  0.00  0.00     0.012 C 
ATOM     18  C   UNL d   1      27.383  -8.869  -3.874  0.00  0.00     0.001 C 
ATOM     19  C   UNL d   1      26.020  -9.057  -4.049  0.00  0.00     0.002 C 
ATOM     20  C   UNL d   1      25.530 -10.340  -4.253  0.00  0.00     0.024 C 
ATOM     21  C   UNL d   1      26.372 -11.452  -4.181  0.00  0.00     0.043 C 
ATOM     22 CL   UNL d   1      25.586 -12.922  -4.644  0.00  0.00    -0.084 Cl
ENDBRANCH  15  16
BRANCH  15  23
ATOM     23  O   UNL d   1      29.456 -13.022  -4.351  0.00  0.00    -0.377 OA
ATOM     24  C   UNL d   1      28.695 -13.711  -5.351  0.00  0.00     0.203 C 
ENDBRANCH  15  23
ENDBRANCH  12  15
ENDBRANCH   1  11
BRANCH   5  25
ATOM     25  C   UNL d   1      22.193 -18.418  -0.237  0.00  0.00     0.079 A 
ATOM     26  C   UNL d   1      21.783 -18.575   1.094  0.00  0.00     0.034 A 
ATOM     27  C   UNL d   1      20.652 -19.346   1.399  0.00  0.00     0.010 A 
ATOM     28  C   UNL d   1      19.886 -19.936   0.381  0.00  0.00    -0.055 A 
ATOM     29  C   UNL d   1      20.268 -19.687  -0.951  0.00  0.00     0.010 A 
ATOM     30  C   UNL d   1      21.424 -18.962  -1.264  0.00  0.00     0.034 A 
BRANCH  28  31
ATOM     31  C   UNL d   1      18.720 -20.859   0.739  0.00  0.00     0.010 C 
ATOM     32  C   UNL d   1      18.047 -20.451   2.054  0.00  0.00     0.015 C 
ATOM     33  C   UNL d   1      17.655 -20.949  -0.360  0.00  0.00     0.015 C 
ENDBRANCH  28  31
ENDBRANCH   5  25
TORSDOF 6
ENDMDL
MODEL 6
REMARK VINA RESULT:    -8.327      7.677     10.402
REMARK INTER + INTRA:         -11.418
REMARK INTER:                 -10.117
REMARK INTRA:                  -1.301
REMARK CONF_INDEPENDENT:        1.790
REMARK UNBOUND:                -1.301
REMARK  6 active torsions:
REMARK  status: ('A' for Active; 'I' for Inactive)
REMARK    1  A    between atoms: C_3  and  O_2 
REMARK    2  A    between atoms: C_3  and  C_26 
REMARK    3  A    between atoms: C_3  and  C_4 
REMARK       I    between atoms: C_4  and  N_6 
REMARK    4  A    between atoms: N_6  and  C_7 
REMARK    5  A    between atoms: N_11  and  C_12 
REMARK    6  A    between atoms: C_15  and  C_16 
ROOT
ATOM      1  C   UNL d   1      27.027 -13.332   2.609  0.00  0.00     0.043 A 
ATOM      2  C   UNL d   1      27.405 -14.345   3.537  0.00  0.00     0.066 A 
ATOM      3  C   UNL d   1      28.011 -13.883   4.741  0.00  0.00     0.111 A 
ATOM      4  N   UNL d   1      28.553 -14.559   5.778  0.00  0.00    -0.147 NA
ATOM      5  N   UNL d   1      28.842 -13.571   6.669  0.00  0.00    -0.150 N 
ATOM      6  N   UNL d   1      28.613 -12.303   6.270  0.00  0.00    -0.147 NA
ATOM      7  C   UNL d   1      28.156 -12.459   5.022  0.00  0.00     0.110 A 
ATOM      8  C   UNL d   1      27.802 -11.470   4.093  0.00  0.00     0.045 A 
ATOM      9  C   UNL d   1      27.222 -11.930   2.887  0.00  0.00    -0.033 A 
ATOM     10  C   UNL d   1      26.749 -10.857   1.928  0.00  0.00     0.050 C 
ENDROOT
BRANCH   1  11
ATOM     11  N   UNL d   1      26.435 -13.700   1.354  0.00  0.00    -0.324 N 
ATOM     12  C   UNL d   1      27.048 -14.702   0.599  0.00  0.00     0.255 C 
ATOM     13  O   UNL d   1      27.972 -15.376   1.091  0.00  0.00    -0.270 OA
ATOM     14  H   UNL d   1      25.431 -13.600   1.258  0.00  0.00     0.169 HD
BRANCH  12  15
ATOM     15  C   UNL d   1      26.527 -15.012  -0.863  0.00  0.00     0.247 C 
BRANCH  15  16
ATOM     16  C   UNL d   1      25.551 -16.199  -0.778  0.00  0.00     0.001 C 
ATOM     17  C   UNL d   1      24.241 -15.950  -1.255  0.00  0.00     0.012 C 
ATOM     18  C   UNL d   1      23.170 -16.766  -0.895  0.00  0.00     0.001 C 
ATOM     19  C   UNL d   1      23.390 -17.893  -0.118  0.00  0.00     0.002 C 
ATOM     20  C   UNL d   1      24.689 -18.247   0.217  0.00  0.00     0.024 C 
ATOM     21  C   UNL d   1      25.770 -17.431  -0.127  0.00  0.00     0.043 C 
ATOM     22 CL   UNL d   1      27.300 -18.153   0.230  0.00  0.00    -0.084 Cl
ENDBRANCH  15  16
BRANCH  15  23
ATOM     23  O   UNL d   1      27.559 -15.176  -1.843  0.00  0.00    -0.377 OA
ATOM     24  C   UNL d   1      27.108 -15.453  -3.173  0.00  0.00     0.203 C 
ENDBRANCH  15  23
ENDBRANCH  12  15
ENDBRANCH   1  11
BRANCH   5  25
ATOM     25  C   UNL d   1      29.415 -13.813   7.946  0.00  0.00     0.079 A 
ATOM     26  C   UNL d   1      30.779 -14.115   8.059  0.00  0.00     0.034 A 
ATOM     27  C   UNL d   1      31.312 -14.527   9.289  0.00  0.00     0.010 A 
ATOM     28  C   UNL d   1      30.505 -14.602  10.436  0.00  0.00    -0.055 A 
ATOM     29  C   UNL d   1      29.159 -14.207  10.313  0.00  0.00     0.010 A 
ATOM     30  C   UNL d   1      28.605 -13.843   9.079  0.00  0.00     0.034 A 
BRANCH  28  31
ATOM     31  C   UNL d   1      31.080 -15.155  11.740  0.00  0.00     0.010 C 
ATOM     32  C   UNL d   1      30.868 -16.667  11.867  0.00  0.00     0.015 C 
ATOM     33  C   UNL d   1      32.569 -14.841  11.931  0.00  0.00     0.015 C 
ENDBRANCH  28  31
ENDBRANCH   5  25
TORSDOF 6
ENDMDL
MODEL 7
REMARK VINA RESULT:    -8.240      2.614      3.844
REMARK INTER + INTRA:         -11.611
REMARK INTER:                 -10.029
REMARK INTRA:                  -1.582
REMARK CONF_INDEPENDENT:        1.790
REMARK UNBOUND:                -1.582
REMARK  6 active torsions:
REMARK  status: ('A' for Active; 'I' for Inactive)
REMARK    1  A    between atoms: C_3  and  O_2 
REMARK    2  A    between atoms: C_3  and  C_26 
REMARK    3  A    between atoms: C_3  and  C_4 
REMARK       I    between atoms: C_4  and  N_6 
REMARK    4  A    between atoms: N_6  and  C_7 
REMARK    5  A    between atoms: N_11  and  C_12 
REMARK    6  A    between atoms: C_15  and  C_16 
ROOT
ATOM      1  C   UNL d   1      28.272 -14.375  -4.041  0.00  0.00     0.043 A 
ATOM      2  C   UNL d   1      26.934 -14.830  -4.219  0.00  0.00     0.066 A 
ATOM      3  C   UNL d   1      26.380 -15.556  -3.124  0.00  0.00     0.111 A 
ATOM      4  N   UNL d   1      25.194 -16.190  -2.989  0.00  0.00    -0.147 NA
ATOM      5  N   UNL d   1      25.202 -16.577  -1.683  0.00  0.00    -0.150 N 
ATOM      6  N   UNL d   1      26.324 -16.323  -0.978  0.00  0.00    -0.147 NA
ATOM      7  C   UNL d   1      27.123 -15.745  -1.882  0.00  0.00     0.110 A 
ATOM      8  C   UNL d   1      28.448 -15.313  -1.726  0.00  0.00     0.045 A 
ATOM      9  C   UNL d   1      29.005 -14.612  -2.822  0.00  0.00    -0.033 A 
ATOM     10  C   UNL d   1      30.400 -14.060  -2.614  0.00  0.00     0.050 C 
ENDROOT
BRANCH   1  11
ATOM     11  N   UNL d   1      28.927 -13.659  -5.100  0.00  0.00    -0.324 N 
ATOM     12  C   UNL d   1      28.914 -14.210  -6.382  0.00  0.00     0.255 C 
ATOM     13  O   UNL d   1      28.200 -15.200  -6.628  0.00  0.00    -0.270 OA
ATOM     14  H   UNL d   1      28.963 -12.648  -5.033  0.00  0.00     0.169 HD
BRANCH  12  15
ATOM     15  C   UNL d   1      29.770 -13.541  -7.532  0.00  0.00     0.247 C 
BRANCH  15  16
ATOM     16  C   UNL d   1      31.227 -14.014  -7.378  0.00  0.00     0.001 C 
ATOM     17  C   UNL d   1      32.204 -12.990  -7.358  0.00  0.00     0.012 C 
ATOM     18  C   UNL d   1      33.547 -13.263  -7.615  0.00  0.00     0.001 C 
ATOM     19  C   UNL d   1      33.960 -14.571  -7.817  0.00  0.00     0.002 C 
ATOM     20  C   UNL d   1      33.045 -15.605  -7.673  0.00  0.00     0.024 C 
ATOM     21  C   UNL d   1      31.695 -15.343  -7.428  0.00  0.00     0.043 C 
ATOM     22 CL   UNL d   1      30.780 -16.774  -7.105  0.00  0.00    -0.084 Cl
ENDBRANCH  15  16
BRANCH  15  23
ATOM     23  O   UNL d   1      29.627 -12.119  -7.633  0.00  0.00    -0.377 OA
ATOM     24  C   UNL d   1      28.421 -11.664  -8.257  0.00  0.00     0.203 C 
ENDBRANCH  15  23
ENDBRANCH  12  15
ENDBRANCH   1  11
BRANCH   5  25
ATOM     25  C   UNL d   1      24.126 -17.269  -1.067  0.00  0.00     0.079 A 
ATOM     26  C   UNL d   1      24.310 -18.575  -0.591  0.00  0.00     0.034 A 
ATOM     27  C   UNL d   1      23.212 -19.325  -0.145  0.00  0.00     0.010 A 
ATOM     28  C   UNL d   1      21.922 -18.772  -0.122  0.00  0.00    -0.055 A 
ATOM     29  C   UNL d   1      21.780 -17.428  -0.520  0.00  0.00     0.010 A 
ATOM     30  C   UNL d   1      22.861 -16.688  -1.016  0.00  0.00     0.034 A 
BRANCH  28  31
ATOM     31  C   UNL d   1      20.724 -19.640   0.267  0.00  0.00     0.010 C 
ATOM     32  C   UNL d   1      20.280 -19.390   1.712  0.00  0.00     0.015 C 
ATOM     33  C   UNL d   1      19.518 -19.466  -0.664  0.00  0.00     0.015 C 
ENDBRANCH  28  31
ENDBRANCH   5  25
TORSDOF 6
ENDMDL
MODEL 8
REMARK VINA RESULT:    -8.123      2.128      2.718
REMARK INTER + INTRA:         -11.482
REMARK INTER:                  -9.913
REMARK INTRA:                  -1.569
REMARK CONF_INDEPENDENT:        1.790
REMARK UNBOUND:                -1.569
REMARK  6 active torsions:
REMARK  status: ('A' for Active; 'I' for Inactive)
REMARK    1  A    between atoms: C_3  and  O_2 
REMARK    2  A    between atoms: C_3  and  C_26 
REMARK    3  A    between atoms: C_3  and  C_4 
REMARK       I    between atoms: C_4  and  N_6 
REMARK    4  A    between atoms: N_6  and  C_7 
REMARK    5  A    between atoms: N_11  and  C_12 
REMARK    6  A    between atoms: C_15  and  C_16 
ROOT
ATOM      1  C   UNL d   1      26.228 -14.798  -2.297  0.00  0.00     0.043 A 
ATOM      2  C   UNL d   1      24.808 -14.867  -2.193  0.00  0.00     0.066 A 
ATOM      3  C   UNL d   1      24.290 -16.071  -1.632  0.00  0.00     0.111 A 
ATOM      4  N   UNL d   1      23.018 -16.496  -1.467  0.00  0.00    -0.147 NA
ATOM      5  N   UNL d   1      23.172 -17.653  -0.764  0.00  0.00    -0.150 N 
ATOM      6  N   UNL d   1      24.437 -18.060  -0.530  0.00  0.00    -0.147 NA
ATOM      7  C   UNL d   1      25.173 -17.120  -1.133  0.00  0.00     0.110 A 
ATOM      8  C   UNL d   1      26.567 -17.052  -1.261  0.00  0.00     0.045 A 
ATOM      9  C   UNL d   1      27.081 -15.867  -1.839  0.00  0.00    -0.033 A 
ATOM     10  C   UNL d   1      28.591 -15.754  -1.885  0.00  0.00     0.050 C 
ENDROOT
BRANCH   1  11
ATOM     11  N   UNL d   1      26.844 -13.637  -2.876  0.00  0.00    -0.324 N 
ATOM     12  C   UNL d   1      27.123 -12.550  -2.046  0.00  0.00     0.255 C 
ATOM     13  O   UNL d   1      27.005 -12.661  -0.811  0.00  0.00    -0.270 OA
ATOM     14  H   UNL d   1      27.453 -13.775  -3.675  0.00  0.00     0.169 HD
BRANCH  12  15
ATOM     15  C   UNL d   1      27.639 -11.194  -2.677  0.00  0.00     0.247 C 
BRANCH  15  16
ATOM     16  C   UNL d   1      26.546 -10.663  -3.621  0.00  0.00     0.001 C 
ATOM     17  C   UNL d   1      26.313 -11.435  -4.784  0.00  0.00     0.012 C 
ATOM     18  C   UNL d   1      25.662 -10.899  -5.894  0.00  0.00     0.001 C 
ATOM     19  C   UNL d   1      25.156  -9.609  -5.842  0.00  0.00     0.002 C 
ATOM     20  C   UNL d   1      25.226  -8.897  -4.652  0.00  0.00     0.024 C 
ATOM     21  C   UNL d   1      25.887  -9.419  -3.538  0.00  0.00     0.043 C 
ATOM     22 CL   UNL d   1      25.692  -8.445  -2.123  0.00  0.00    -0.084 Cl
ENDBRANCH  15  16
BRANCH  15  23
ATOM     23  O   UNL d   1      28.939 -11.269  -3.274  0.00  0.00    -0.377 OA
ATOM     24  C   UNL d   1      30.003 -10.685  -2.513  0.00  0.00     0.203 C 
ENDBRANCH  15  23
ENDBRANCH  12  15
ENDBRANCH   1  11
BRANCH   5  25
ATOM     25  C   UNL d   1      22.083 -18.454  -0.331  0.00  0.00     0.079 A 
ATOM     26  C   UNL d   1      21.218 -19.034  -1.270  0.00  0.00     0.034 A 
ATOM     27  C   UNL d   1      20.045 -19.676  -0.848  0.00  0.00     0.010 A 
ATOM     28  C   UNL d   1      19.737 -19.791   0.517  0.00  0.00    -0.055 A 
ATOM     29  C   UNL d   1      20.668 -19.279   1.442  0.00  0.00     0.010 A 
ATOM     30  C   UNL d   1      21.816 -18.592   1.030  0.00  0.00     0.034 A 
BRANCH  28  31
ATOM     31  C   UNL d   1      18.403 -20.400   0.951  0.00  0.00     0.010 C 
ATOM     32  C   UNL d   1      18.375 -21.919   0.757  0.00  0.00     0.015 C 
ATOM     33  C   UNL d   1      18.029 -20.075   2.402  0.00  0.00     0.015 C 
ENDBRANCH  28  31
ENDBRANCH   5  25
TORSDOF 6
ENDMDL
MODEL 9
REMARK VINA RESULT:    -7.960      1.881      2.731
REMARK INTER + INTRA:         -11.453
REMARK INTER:                  -9.750
REMARK INTRA:                  -1.702
REMARK CONF_INDEPENDENT:        1.790
REMARK UNBOUND:                -1.702
REMARK  6 active torsions:
REMARK  status: ('A' for Active; 'I' for Inactive)
REMARK    1  A    between atoms: C_3  and  O_2 
REMARK    2  A    between atoms: C_3  and  C_26 
REMARK    3  A    between atoms: C_3  and  C_4 
REMARK       I    between atoms: C_4  and  N_6 
REMARK    4  A    between atoms: N_6  and  C_7 
REMARK    5  A    between atoms: N_11  and  C_12 
REMARK    6  A    between atoms: C_15  and  C_16 
ROOT
ATOM      1  C   UNL d   1      28.398 -14.386  -3.959  0.00  0.00     0.043 A 
ATOM      2  C   UNL d   1      27.094 -14.914  -4.188  0.00  0.00     0.066 A 
ATOM      3  C   UNL d   1      26.500 -15.587  -3.081  0.00  0.00     0.111 A 
ATOM      4  N   UNL d   1      25.336 -16.264  -2.976  0.00  0.00    -0.147 NA
ATOM      5  N   UNL d   1      25.272 -16.559  -1.648  0.00  0.00    -0.150 N 
ATOM      6  N   UNL d   1      26.334 -16.206  -0.894  0.00  0.00    -0.147 NA
ATOM      7  C   UNL d   1      27.166 -15.655  -1.785  0.00  0.00     0.110 A 
ATOM      8  C   UNL d   1      28.458 -15.152  -1.577  0.00  0.00     0.045 A 
ATOM      9  C   UNL d   1      29.058 -14.504  -2.682  0.00  0.00    -0.033 A 
ATOM     10  C   UNL d   1      30.411 -13.874  -2.427  0.00  0.00     0.050 C 
ENDROOT
BRANCH   1  11
ATOM     11  N   UNL d   1      29.091 -13.715  -5.023  0.00  0.00    -0.324 N 
ATOM     12  C   UNL d   1      28.695 -12.420  -5.361  0.00  0.00     0.255 C 
ATOM     13  O   UNL d   1      27.889 -11.805  -4.638  0.00  0.00    -0.270 OA
ATOM     14  H   UNL d   1      30.064 -13.953  -5.177  0.00  0.00     0.169 HD
BRANCH  12  15
ATOM     15  C   UNL d   1      29.316 -11.717  -6.636  0.00  0.00     0.247 C 
BRANCH  15  16
ATOM     16  C   UNL d   1      28.289 -11.813  -7.779  0.00  0.00     0.001 C 
ATOM     17  C   UNL d   1      28.681 -12.599  -8.889  0.00  0.00     0.012 C 
ATOM     18  C   UNL d   1      28.056 -12.469 -10.128  0.00  0.00     0.001 C 
ATOM     19  C   UNL d   1      26.975 -11.611 -10.270  0.00  0.00     0.002 C 
ATOM     20  C   UNL d   1      26.470 -10.960  -9.153  0.00  0.00     0.024 C 
ATOM     21  C   UNL d   1      27.096 -11.074  -7.909  0.00  0.00     0.043 C 
ATOM     22 CL   UNL d   1      26.196 -10.330  -6.633  0.00  0.00    -0.084 Cl
ENDBRANCH  15  16
BRANCH  15  23
ATOM     23  O   UNL d   1      30.627 -12.172  -6.990  0.00  0.00    -0.377 OA
ATOM     24  C   UNL d   1      31.640 -11.965  -5.999  0.00  0.00     0.203 C 
ENDBRANCH  15  23
ENDBRANCH  12  15
ENDBRANCH   1  11
BRANCH   5  25
ATOM     25  C   UNL d   1      24.188 -17.256  -1.053  0.00  0.00     0.079 A 
ATOM     26  C   UNL d   1      24.356 -18.578  -0.615  0.00  0.00     0.034 A 
ATOM     27  C   UNL d   1      23.249 -19.328  -0.191  0.00  0.00     0.010 A 
ATOM     28  C   UNL d   1      21.966 -18.761  -0.154  0.00  0.00    -0.055 A 
ATOM     29  C   UNL d   1      21.840 -17.405  -0.514  0.00  0.00     0.010 A 
ATOM     30  C   UNL d   1      22.929 -16.663  -0.987  0.00  0.00     0.034 A 
BRANCH  28  31
ATOM     31  C   UNL d   1      20.758 -19.626   0.209  0.00  0.00     0.010 C 
ATOM     32  C   UNL d   1      20.305 -19.402   1.655  0.00  0.00     0.015 C 
ATOM     33  C   UNL d   1      19.560 -19.423  -0.727  0.00  0.00     0.015 C 
ENDBRANCH  28  31
ENDBRANCH   5  25
TORSDOF 6
ENDMDL
