MODEL 1
REMARK VINA RESULT:    -7.801      0.000      0.000
REMARK INTER + INTRA:         -13.422
REMARK INTER:                 -10.486
REMARK INTRA:                  -2.936
REMARK CONF_INDEPENDENT:        2.685
REMARK UNBOUND:                -2.936
REMARK  9 active torsions:
REMARK  status: ('A' for Active; 'I' for Inactive)
REMARK    1  A    between atoms: O_2  and  C_3 
REMARK    2  A    between atoms: C_6  and  N_7 
REMARK    3  A    between atoms: N_7  and  C_8 
REMARK    4  A    between atoms: C_9  and  C_10 
REMARK    5  A    between atoms: C_10  and  C_12 
REMARK    6  A    between atoms: C_15  and  C_16 
REMARK    7  A    between atoms: C_16  and  N_17 
REMARK    8  A    between atoms: N_17  and  C_18 
REMARK    9  A    between atoms: C_21  and  C_22 
ROOT
ATOM      1  C   UNL d   1      27.056 -14.780  -4.524  0.00  0.00     0.114 C 
ATOM      2  N   UNL d   1      26.687 -15.201  -5.690  0.00  0.00    -0.134 NA
ATOM      3  O   UNL d   1      27.855 -15.551  -6.414  0.00  0.00    -0.249 OA
ATOM      4  C   UNL d   1      29.005 -15.409  -5.566  0.00  0.00     0.173 C 
ATOM      5  C   UNL d   1      28.513 -14.760  -4.283  0.00  0.00     0.101 C 
ENDROOT
BRANCH   4   6
ATOM      6  C   UNL d   1      30.059 -14.536  -6.285  0.00  0.00     0.128 C 
BRANCH   6   7
ATOM      7  N   UNL d   1      29.552 -13.967  -7.553  0.00  0.00    -0.275 NA
ATOM      8  H   UNL d   1      29.017 -14.651  -8.104  0.00  0.00     0.129 HD
BRANCH   7   9
ATOM      9  C   UNL d   1      28.926 -12.721  -7.519  0.00  0.00     0.102 A 
ATOM     10  N   UNL d   1      27.786 -12.602  -6.814  0.00  0.00    -0.355 N 
ATOM     11  C   UNL d   1      27.055 -11.475  -6.748  0.00  0.00     0.105 A 
ATOM     12  H   UNL d   1      27.500 -13.420  -6.281  0.00  0.00     0.166 HD
ATOM     13  C   UNL d   1      27.512 -10.306  -7.346  0.00  0.00     0.065 A 
ATOM     14  C   UNL d   1      28.756 -10.335  -7.981  0.00  0.00     0.044 A 
ATOM     15  C   UNL d   1      29.435 -11.549  -8.118  0.00  0.00     0.073 A 
ATOM     16 CL   UNL d   1      30.855 -11.589  -9.089  0.00  0.00    -0.081 Cl
BRANCH  13  17
ATOM     17  C   UNL d   1      26.639  -9.079  -7.340  0.00  0.00     0.418 C 
ATOM     18  F   UNL d   1      27.172  -8.111  -6.552  0.00  0.00    -0.166 F 
ATOM     19  F   UNL d   1      26.518  -8.539  -8.578  0.00  0.00    -0.166 F 
ATOM     20  F   UNL d   1      25.386  -9.310  -6.881  0.00  0.00    -0.166 F 
ENDBRANCH  13  17
ENDBRANCH   7   9
ENDBRANCH   6   7
ENDBRANCH   4   6
BRANCH   1  21
ATOM     21  C   UNL d   1      26.089 -14.275  -3.474  0.00  0.00     0.200 C 
ATOM     22  O   UNL d   1      25.881 -13.069  -3.381  0.00  0.00    -0.286 OA
BRANCH  21  23
ATOM     23  C   UNL d   1      25.429 -15.295  -2.607  0.00  0.00     0.074 C 
ATOM     24  C   UNL d   1      25.748 -15.397  -1.309  0.00  0.00     0.092 C 
BRANCH  24  25
ATOM     25  N   UNL d   1      25.251 -16.282  -0.375  0.00  0.00    -0.366 N 
ATOM     26  H   UNL d   1      25.774 -16.393   0.486  0.00  0.00     0.165 HD
BRANCH  25  27
ATOM     27  C   UNL d   1      24.166 -17.173  -0.530  0.00  0.00     0.032 A 
ATOM     28  C   UNL d   1      22.879 -16.688  -0.811  0.00  0.00     0.032 A 
ATOM     29  C   UNL d   1      21.779 -17.559  -0.891  0.00  0.00     0.039 A 
ATOM     30  C   UNL d   1      21.949 -18.939  -0.769  0.00  0.00     0.068 A 
ATOM     31  C   UNL d   1      23.222 -19.435  -0.526  0.00  0.00     0.039 A 
ATOM     32  C   UNL d   1      24.310 -18.561  -0.412  0.00  0.00     0.032 A 
BRANCH  30  33
ATOM     33  O   UNL d   1      20.843 -19.702  -1.015  0.00  0.00    -0.356 OA
ATOM     34  C   UNL d   1      19.580 -19.117  -0.714  0.00  0.00     0.210 C 
ENDBRANCH  30  33
ENDBRANCH  25  27
ENDBRANCH  24  25
ENDBRANCH  21  23
ENDBRANCH   1  21
TORSDOF 9
ENDMDL
MODEL 2
REMARK VINA RESULT:    -7.776      0.179      1.122
REMARK INTER + INTRA:         -13.323
REMARK INTER:                 -10.461
REMARK INTRA:                  -2.862
REMARK CONF_INDEPENDENT:        2.685
REMARK UNBOUND:                -2.862
REMARK  9 active torsions:
REMARK  status: ('A' for Active; 'I' for Inactive)
REMARK    1  A    between atoms: O_2  and  C_3 
REMARK    2  A    between atoms: C_6  and  N_7 
REMARK    3  A    between atoms: N_7  and  C_8 
REMARK    4  A    between atoms: C_9  and  C_10 
REMARK    5  A    between atoms: C_10  and  C_12 
REMARK    6  A    between atoms: C_15  and  C_16 
REMARK    7  A    between atoms: C_16  and  N_17 
REMARK    8  A    between atoms: N_17  and  C_18 
REMARK    9  A    between atoms: C_21  and  C_22 
ROOT
ATOM      1  C   UNL d   1      27.064 -14.771  -4.483  0.00  0.00     0.114 C 
ATOM      2  N   UNL d   1      26.661 -15.205  -5.632  0.00  0.00    -0.134 NA
ATOM      3  O   UNL d   1      27.806 -15.573  -6.383  0.00  0.00    -0.249 OA
ATOM      4  C   UNL d   1      28.979 -15.427  -5.569  0.00  0.00     0.173 C 
ATOM      5  C   UNL d   1      28.528 -14.758  -4.282  0.00  0.00     0.101 C 
ENDROOT
BRANCH   4   6
ATOM      6  C   UNL d   1      30.019 -14.570  -6.329  0.00  0.00     0.128 C 
BRANCH   6   7
ATOM      7  N   UNL d   1      29.466 -13.975  -7.565  0.00  0.00    -0.275 NA
ATOM      8  H   UNL d   1      28.917 -14.650  -8.114  0.00  0.00     0.129 HD
BRANCH   7   9
ATOM      9  C   UNL d   1      28.835 -12.734  -7.480  0.00  0.00     0.102 A 
ATOM     10  N   UNL d   1      27.779 -12.614  -6.656  0.00  0.00    -0.355 N 
ATOM     11  C   UNL d   1      27.047 -11.493  -6.525  0.00  0.00     0.105 A 
ATOM     12  H   UNL d   1      27.561 -13.426  -6.083  0.00  0.00     0.166 HD
ATOM     13  C   UNL d   1      27.424 -10.329  -7.187  0.00  0.00     0.065 A 
ATOM     14  C   UNL d   1      28.590 -10.358  -7.954  0.00  0.00     0.044 A 
ATOM     15  C   UNL d   1      29.262 -11.567  -8.149  0.00  0.00     0.073 A 
ATOM     16 CL   UNL d   1      30.568 -11.610  -9.269  0.00  0.00    -0.081 Cl
BRANCH  13  17
ATOM     17  C   UNL d   1      26.543  -9.110  -7.103  0.00  0.00     0.418 C 
ATOM     18  F   UNL d   1      26.227  -8.658  -8.344  0.00  0.00    -0.166 F 
ATOM     19  F   UNL d   1      25.367  -9.378  -6.483  0.00  0.00    -0.166 F 
ATOM     20  F   UNL d   1      27.115  -8.075  -6.445  0.00  0.00    -0.166 F 
ENDBRANCH  13  17
ENDBRANCH   7   9
ENDBRANCH   6   7
ENDBRANCH   4   6
BRANCH   1  21
ATOM     21  C   UNL d   1      26.130 -14.246  -3.413  0.00  0.00     0.200 C 
ATOM     22  O   UNL d   1      25.956 -13.036  -3.311  0.00  0.00    -0.286 OA
BRANCH  21  23
ATOM     23  C   UNL d   1      25.458 -15.252  -2.541  0.00  0.00     0.074 C 
ATOM     24  C   UNL d   1      25.908 -15.490  -1.300  0.00  0.00     0.092 C 
BRANCH  24  25
ATOM     25  N   UNL d   1      25.419 -16.386  -0.373  0.00  0.00    -0.366 N 
ATOM     26  H   UNL d   1      25.999 -16.584   0.435  0.00  0.00     0.165 HD
BRANCH  25  27
ATOM     27  C   UNL d   1      24.258 -17.184  -0.478  0.00  0.00     0.032 A 
ATOM     28  C   UNL d   1      24.335 -18.579  -0.335  0.00  0.00     0.032 A 
ATOM     29  C   UNL d   1      23.201 -19.389  -0.514  0.00  0.00     0.039 A 
ATOM     30  C   UNL d   1      21.950 -18.822  -0.763  0.00  0.00     0.068 A 
ATOM     31  C   UNL d   1      21.853 -17.442  -0.872  0.00  0.00     0.039 A 
ATOM     32  C   UNL d   1      22.992 -16.641  -0.728  0.00  0.00     0.032 A 
BRANCH  30  33
ATOM     33  O   UNL d   1      20.892 -19.686  -0.767  0.00  0.00    -0.356 OA
ATOM     34  C   UNL d   1      19.595 -19.112  -0.897  0.00  0.00     0.210 C 
ENDBRANCH  30  33
ENDBRANCH  25  27
ENDBRANCH  24  25
ENDBRANCH  21  23
ENDBRANCH   1  21
TORSDOF 9
ENDMDL
MODEL 3
REMARK VINA RESULT:    -7.633      1.396      1.612
REMARK INTER + INTRA:         -12.914
REMARK INTER:                 -10.318
REMARK INTRA:                  -2.596
REMARK CONF_INDEPENDENT:        2.685
REMARK UNBOUND:                -2.596
REMARK  9 active torsions:
REMARK  status: ('A' for Active; 'I' for Inactive)
REMARK    1  A    between atoms: O_2  and  C_3 
REMARK    2  A    between atoms: C_6  and  N_7 
REMARK    3  A    between atoms: N_7  and  C_8 
REMARK    4  A    between atoms: C_9  and  C_10 
REMARK    5  A    between atoms: C_10  and  C_12 
REMARK    6  A    between atoms: C_15  and  C_16 
REMARK    7  A    between atoms: C_16  and  N_17 
REMARK    8  A    between atoms: N_17  and  C_18 
REMARK    9  A    between atoms: C_21  and  C_22 
ROOT
ATOM      1  C   UNL d   1      28.291 -15.631  -4.177  0.00  0.00     0.114 C 
ATOM      2  N   UNL d   1      27.315 -15.575  -5.024  0.00  0.00    -0.134 NA
ATOM      3  O   UNL d   1      27.871 -15.390  -6.315  0.00  0.00    -0.249 OA
ATOM      4  C   UNL d   1      29.304 -15.431  -6.229  0.00  0.00     0.173 C 
ATOM      5  C   UNL d   1      29.644 -15.475  -4.750  0.00  0.00     0.101 C 
ENDROOT
BRANCH   4   6
ATOM      6  C   UNL d   1      29.888 -14.175  -6.918  0.00  0.00     0.128 C 
BRANCH   6   7
ATOM      7  N   UNL d   1      28.908 -13.509  -7.805  0.00  0.00    -0.275 NA
ATOM      8  H   UNL d   1      28.340 -14.182  -8.336  0.00  0.00     0.129 HD
BRANCH   7   9
ATOM      9  C   UNL d   1      28.137 -12.471  -7.282  0.00  0.00     0.102 A 
ATOM     10  N   UNL d   1      27.502 -12.679  -6.114  0.00  0.00    -0.355 N 
ATOM     11  C   UNL d   1      26.682 -11.785  -5.533  0.00  0.00     0.105 A 
ATOM     12  H   UNL d   1      27.697 -13.561  -5.647  0.00  0.00     0.166 HD
ATOM     13  C   UNL d   1      26.526 -10.516  -6.082  0.00  0.00     0.065 A 
ATOM     14  C   UNL d   1      27.264 -10.199  -7.223  0.00  0.00     0.044 A 
ATOM     15  C   UNL d   1      28.022 -11.187  -7.856  0.00  0.00     0.073 A 
ATOM     16 CL   UNL d   1      28.745 -10.822  -9.374  0.00  0.00    -0.081 Cl
BRANCH  13  17
ATOM     17  C   UNL d   1      25.535  -9.561  -5.470  0.00  0.00     0.418 C 
ATOM     18  F   UNL d   1      26.006  -8.288  -5.510  0.00  0.00    -0.166 F 
ATOM     19  F   UNL d   1      24.358  -9.553  -6.143  0.00  0.00    -0.166 F 
ATOM     20  F   UNL d   1      25.252  -9.832  -4.174  0.00  0.00    -0.166 F 
ENDBRANCH  13  17
ENDBRANCH   7   9
ENDBRANCH   6   7
ENDBRANCH   4   6
BRANCH   1  21
ATOM     21  C   UNL d   1      28.094 -15.783  -2.684  0.00  0.00     0.200 C 
ATOM     22  O   UNL d   1      29.073 -15.768  -1.945  0.00  0.00    -0.286 OA
BRANCH  21  23
ATOM     23  C   UNL d   1      26.693 -15.933  -2.192  0.00  0.00     0.074 C 
ATOM     24  C   UNL d   1      26.391 -15.701  -0.907  0.00  0.00     0.092 C 
BRANCH  24  25
ATOM     25  N   UNL d   1      25.163 -15.804  -0.287  0.00  0.00    -0.366 N 
ATOM     26  H   UNL d   1      24.997 -15.210   0.518  0.00  0.00     0.165 HD
BRANCH  25  27
ATOM     27  C   UNL d   1      24.146 -16.748  -0.547  0.00  0.00     0.032 A 
ATOM     28  C   UNL d   1      22.814 -16.335  -0.712  0.00  0.00     0.032 A 
ATOM     29  C   UNL d   1      21.783 -17.272  -0.895  0.00  0.00     0.039 A 
ATOM     30  C   UNL d   1      22.066 -18.635  -0.996  0.00  0.00     0.068 A 
ATOM     31  C   UNL d   1      23.382 -19.054  -0.870  0.00  0.00     0.039 A 
ATOM     32  C   UNL d   1      24.402 -18.121  -0.652  0.00  0.00     0.032 A 
BRANCH  30  33
ATOM     33  O   UNL d   1      21.013 -19.441  -1.326  0.00  0.00    -0.356 OA
ATOM     34  C   UNL d   1      19.842 -19.327  -0.524  0.00  0.00     0.210 C 
ENDBRANCH  30  33
ENDBRANCH  25  27
ENDBRANCH  24  25
ENDBRANCH  21  23
ENDBRANCH   1  21
TORSDOF 9
ENDMDL
MODEL 4
REMARK VINA RESULT:    -7.548      4.237      5.271
REMARK INTER + INTRA:         -13.014
REMARK INTER:                 -10.233
REMARK INTRA:                  -2.781
REMARK CONF_INDEPENDENT:        2.685
REMARK UNBOUND:                -2.781
REMARK  9 active torsions:
REMARK  status: ('A' for Active; 'I' for Inactive)
REMARK    1  A    between atoms: O_2  and  C_3 
REMARK    2  A    between atoms: C_6  and  N_7 
REMARK    3  A    between atoms: N_7  and  C_8 
REMARK    4  A    between atoms: C_9  and  C_10 
REMARK    5  A    between atoms: C_10  and  C_12 
REMARK    6  A    between atoms: C_15  and  C_16 
REMARK    7  A    between atoms: C_16  and  N_17 
REMARK    8  A    between atoms: N_17  and  C_18 
REMARK    9  A    between atoms: C_21  and  C_22 
ROOT
ATOM      1  C   UNL d   1      25.572 -15.729  -2.612  0.00  0.00     0.114 C 
ATOM      2  N   UNL d   1      24.479 -15.050  -2.490  0.00  0.00    -0.134 NA
ATOM      3  O   UNL d   1      24.346 -14.230  -3.639  0.00  0.00    -0.249 OA
ATOM      4  C   UNL d   1      25.409 -14.520  -4.559  0.00  0.00     0.173 C 
ATOM      5  C   UNL d   1      26.354 -15.466  -3.839  0.00  0.00     0.101 C 
ENDROOT
BRANCH   4   6
ATOM      6  C   UNL d   1      26.108 -13.199  -4.957  0.00  0.00     0.128 C 
BRANCH   6   7
ATOM      7  N   UNL d   1      25.625 -12.044  -4.169  0.00  0.00    -0.275 NA
ATOM      8  H   UNL d   1      24.600 -12.030  -4.083  0.00  0.00     0.129 HD
BRANCH   7   9
ATOM      9  C   UNL d   1      26.255 -11.755  -2.959  0.00  0.00     0.102 A 
ATOM     10  N   UNL d   1      26.329 -12.729  -2.033  0.00  0.00    -0.355 N 
ATOM     11  C   UNL d   1      26.857 -12.565  -0.807  0.00  0.00     0.105 A 
ATOM     12  H   UNL d   1      25.988 -13.645  -2.316  0.00  0.00     0.166 HD
ATOM     13  C   UNL d   1      27.464 -11.363  -0.460  0.00  0.00     0.065 A 
ATOM     14  C   UNL d   1      27.535 -10.359  -1.428  0.00  0.00     0.044 A 
ATOM     15  C   UNL d   1      26.884 -10.530  -2.652  0.00  0.00     0.073 A 
ATOM     16 CL   UNL d   1      26.808  -9.194  -3.735  0.00  0.00    -0.081 Cl
BRANCH  13  17
ATOM     17  C   UNL d   1      27.967 -11.165   0.946  0.00  0.00     0.418 C 
ATOM     18  F   UNL d   1      27.752 -12.276   1.696  0.00  0.00    -0.166 F 
ATOM     19  F   UNL d   1      29.303 -10.936   0.977  0.00  0.00    -0.166 F 
ATOM     20  F   UNL d   1      27.370 -10.136   1.593  0.00  0.00    -0.166 F 
ENDBRANCH  13  17
ENDBRANCH   7   9
ENDBRANCH   6   7
ENDBRANCH   4   6
BRANCH   1  21
ATOM     21  C   UNL d   1      26.081 -16.691  -1.560  0.00  0.00     0.200 C 
ATOM     22  O   UNL d   1      27.195 -17.188  -1.690  0.00  0.00    -0.286 OA
BRANCH  21  23
ATOM     23  C   UNL d   1      25.182 -16.974  -0.403  0.00  0.00     0.074 C 
ATOM     24  C   UNL d   1      24.074 -17.712  -0.563  0.00  0.00     0.092 C 
BRANCH  24  25
ATOM     25  N   UNL d   1      23.134 -18.056   0.386  0.00  0.00    -0.366 N 
ATOM     26  H   UNL d   1      23.401 -17.965   1.360  0.00  0.00     0.165 HD
BRANCH  25  27
ATOM     27  C   UNL d   1      21.878 -18.664   0.169  0.00  0.00     0.032 A 
ATOM     28  C   UNL d   1      21.035 -18.965   1.251  0.00  0.00     0.032 A 
ATOM     29  C   UNL d   1      19.817 -19.639   1.055  0.00  0.00     0.039 A 
ATOM     30  C   UNL d   1      19.378 -19.959  -0.231  0.00  0.00     0.068 A 
ATOM     31  C   UNL d   1      20.185 -19.636  -1.312  0.00  0.00     0.039 A 
ATOM     32  C   UNL d   1      21.413 -18.996  -1.109  0.00  0.00     0.032 A 
BRANCH  30  33
ATOM     33  O   UNL d   1      18.115 -20.473  -0.320  0.00  0.00    -0.356 OA
ATOM     34  C   UNL d   1      17.774 -21.501   0.605  0.00  0.00     0.210 C 
ENDBRANCH  30  33
ENDBRANCH  25  27
ENDBRANCH  24  25
ENDBRANCH  21  23
ENDBRANCH   1  21
TORSDOF 9
ENDMDL
MODEL 5
REMARK VINA RESULT:    -7.488      2.876      3.416
REMARK INTER + INTRA:         -12.129
REMARK INTER:                 -10.173
REMARK INTRA:                  -1.956
REMARK CONF_INDEPENDENT:        2.685
REMARK UNBOUND:                -1.956
REMARK  9 active torsions:
REMARK  status: ('A' for Active; 'I' for Inactive)
REMARK    1  A    between atoms: O_2  and  C_3 
REMARK    2  A    between atoms: C_6  and  N_7 
REMARK    3  A    between atoms: N_7  and  C_8 
REMARK    4  A    between atoms: C_9  and  C_10 
REMARK    5  A    between atoms: C_10  and  C_12 
REMARK    6  A    between atoms: C_15  and  C_16 
REMARK    7  A    between atoms: C_16  and  N_17 
REMARK    8  A    between atoms: N_17  and  C_18 
REMARK    9  A    between atoms: C_21  and  C_22 
ROOT
ATOM      1  C   UNL d   1      28.046 -15.328  -4.223  0.00  0.00     0.114 C 
ATOM      2  N   UNL d   1      27.001 -15.576  -4.944  0.00  0.00    -0.134 NA
ATOM      3  O   UNL d   1      27.110 -14.823  -6.140  0.00  0.00    -0.249 OA
ATOM      4  C   UNL d   1      28.374 -14.142  -6.164  0.00  0.00     0.173 C 
ATOM      5  C   UNL d   1      29.006 -14.365  -4.801  0.00  0.00     0.101 C 
ENDROOT
BRANCH   4   6
ATOM      6  C   UNL d   1      28.134 -12.641  -6.450  0.00  0.00     0.128 C 
BRANCH   6   7
ATOM      7  N   UNL d   1      26.732 -12.236  -6.209  0.00  0.00    -0.275 NA
ATOM      8  H   UNL d   1      26.105 -13.044  -6.098  0.00  0.00     0.129 HD
BRANCH   7   9
ATOM      9  C   UNL d   1      26.480 -11.244  -5.262  0.00  0.00     0.102 A 
ATOM     10  N   UNL d   1      26.762  -9.970  -5.587  0.00  0.00    -0.355 N 
ATOM     11  C   UNL d   1      26.622  -8.928  -4.748  0.00  0.00     0.105 A 
ATOM     12  H   UNL d   1      27.067  -9.807  -6.544  0.00  0.00     0.166 HD
ATOM     13  C   UNL d   1      26.063  -9.114  -3.488  0.00  0.00     0.065 A 
ATOM     14  C   UNL d   1      25.628 -10.395  -3.144  0.00  0.00     0.044 A 
ATOM     15  C   UNL d   1      25.887 -11.468  -4.001  0.00  0.00     0.073 A 
ATOM     16 CL   UNL d   1      25.532 -13.061  -3.454  0.00  0.00    -0.081 Cl
BRANCH  13  17
ATOM     17  C   UNL d   1      25.998  -7.955  -2.527  0.00  0.00     0.418 C 
ATOM     18  F   UNL d   1      27.245  -7.562  -2.162  0.00  0.00    -0.166 F 
ATOM     19  F   UNL d   1      25.403  -6.871  -3.082  0.00  0.00    -0.166 F 
ATOM     20  F   UNL d   1      25.328  -8.238  -1.385  0.00  0.00    -0.166 F 
ENDBRANCH  13  17
ENDBRANCH   7   9
ENDBRANCH   6   7
ENDBRANCH   4   6
BRANCH   1  21
ATOM     21  C   UNL d   1      28.272 -15.918  -2.847  0.00  0.00     0.200 C 
ATOM     22  O   UNL d   1      29.417 -16.019  -2.419  0.00  0.00    -0.286 OA
BRANCH  21  23
ATOM     23  C   UNL d   1      27.064 -16.338  -2.079  0.00  0.00     0.074 C 
ATOM     24  C   UNL d   1      27.167 -16.715  -0.796  0.00  0.00     0.092 C 
BRANCH  24  25
ATOM     25  N   UNL d   1      26.166 -17.141   0.051  0.00  0.00    -0.366 N 
ATOM     26  H   UNL d   1      26.435 -17.416   0.989  0.00  0.00     0.165 HD
BRANCH  25  27
ATOM     27  C   UNL d   1      24.812 -17.383  -0.272  0.00  0.00     0.032 A 
ATOM     28  C   UNL d   1      23.968 -16.325  -0.645  0.00  0.00     0.032 A 
ATOM     29  C   UNL d   1      22.602 -16.542  -0.894  0.00  0.00     0.039 A 
ATOM     30  C   UNL d   1      22.064 -17.829  -0.853  0.00  0.00     0.068 A 
ATOM     31  C   UNL d   1      22.895 -18.889  -0.520  0.00  0.00     0.039 A 
ATOM     32  C   UNL d   1      24.247 -18.664  -0.238  0.00  0.00     0.032 A 
BRANCH  30  33
ATOM     33  O   UNL d   1      20.765 -17.948  -1.260  0.00  0.00    -0.356 OA
ATOM     34  C   UNL d   1      20.084 -19.143  -0.892  0.00  0.00     0.210 C 
ENDBRANCH  30  33
ENDBRANCH  25  27
ENDBRANCH  24  25
ENDBRANCH  21  23
ENDBRANCH   1  21
TORSDOF 9
ENDMDL
MODEL 6
REMARK VINA RESULT:    -7.094      1.610      2.032
REMARK INTER + INTRA:         -12.619
REMARK INTER:                  -9.779
REMARK INTRA:                  -2.840
REMARK CONF_INDEPENDENT:        2.685
REMARK UNBOUND:                -2.840
REMARK  9 active torsions:
REMARK  status: ('A' for Active; 'I' for Inactive)
REMARK    1  A    between atoms: O_2  and  C_3 
REMARK    2  A    between atoms: C_6  and  N_7 
REMARK    3  A    between atoms: N_7  and  C_8 
REMARK    4  A    between atoms: C_9  and  C_10 
REMARK    5  A    between atoms: C_10  and  C_12 
REMARK    6  A    between atoms: C_15  and  C_16 
REMARK    7  A    between atoms: C_16  and  N_17 
REMARK    8  A    between atoms: N_17  and  C_18 
REMARK    9  A    between atoms: C_21  and  C_22 
ROOT
ATOM      1  C   UNL d   1      26.101 -15.311  -3.861  0.00  0.00     0.114 C 
ATOM      2  N   UNL d   1      25.819 -15.432  -5.117  0.00  0.00    -0.134 NA
ATOM      3  O   UNL d   1      27.042 -15.535  -5.827  0.00  0.00    -0.249 OA
ATOM      4  C   UNL d   1      28.135 -15.567  -4.897  0.00  0.00     0.173 C 
ATOM      5  C   UNL d   1      27.540 -15.293  -3.526  0.00  0.00     0.101 C 
ENDROOT
BRANCH   4   6
ATOM      6  C   UNL d   1      29.174 -14.495  -5.299  0.00  0.00     0.128 C 
BRANCH   6   7
ATOM      7  N   UNL d   1      28.744 -13.702  -6.472  0.00  0.00    -0.275 NA
ATOM      8  H   UNL d   1      28.262 -14.276  -7.177  0.00  0.00     0.129 HD
BRANCH   7   9
ATOM      9  C   UNL d   1      28.093 -12.489  -6.251  0.00  0.00     0.102 A 
ATOM     10  N   UNL d   1      26.860 -12.519  -5.711  0.00  0.00    -0.355 N 
ATOM     11  C   UNL d   1      26.102 -11.428  -5.501  0.00  0.00     0.105 A 
ATOM     12  H   UNL d   1      26.518 -13.432  -5.421  0.00  0.00     0.166 HD
ATOM     13  C   UNL d   1      26.615 -10.159  -5.749  0.00  0.00     0.065 A 
ATOM     14  C   UNL d   1      27.938 -10.059  -6.186  0.00  0.00     0.044 A 
ATOM     15  C   UNL d   1      28.656 -11.218  -6.492  0.00  0.00     0.073 A 
ATOM     16 CL   UNL d   1      30.202 -11.055  -7.230  0.00  0.00    -0.081 Cl
BRANCH  13  17
ATOM     17  C   UNL d   1      25.723  -8.955  -5.596  0.00  0.00     0.418 C 
ATOM     18  F   UNL d   1      26.014  -8.282  -4.454  0.00  0.00    -0.166 F 
ATOM     19  F   UNL d   1      25.887  -8.073  -6.612  0.00  0.00    -0.166 F 
ATOM     20  F   UNL d   1      24.405  -9.263  -5.543  0.00  0.00    -0.166 F 
ENDBRANCH  13  17
ENDBRANCH   7   9
ENDBRANCH   6   7
ENDBRANCH   4   6
BRANCH   1  21
ATOM     21  C   UNL d   1      25.052 -15.134  -2.783  0.00  0.00     0.200 C 
ATOM     22  O   UNL d   1      24.328 -14.144  -2.806  0.00  0.00    -0.286 OA
BRANCH  21  23
ATOM     23  C   UNL d   1      24.956 -16.201  -1.744  0.00  0.00     0.074 C 
ATOM     24  C   UNL d   1      23.790 -16.819  -1.505  0.00  0.00     0.092 C 
BRANCH  24  25
ATOM     25  N   UNL d   1      23.522 -17.808  -0.582  0.00  0.00    -0.366 N 
ATOM     26  H   UNL d   1      24.305 -18.181  -0.058  0.00  0.00     0.165 HD
BRANCH  25  27
ATOM     27  C   UNL d   1      22.295 -18.478  -0.372  0.00  0.00     0.032 A 
ATOM     28  C   UNL d   1      21.548 -18.955  -1.460  0.00  0.00     0.032 A 
ATOM     29  C   UNL d   1      20.292 -19.555  -1.268  0.00  0.00     0.039 A 
ATOM     30  C   UNL d   1      19.788 -19.760   0.016  0.00  0.00     0.068 A 
ATOM     31  C   UNL d   1      20.532 -19.325   1.103  0.00  0.00     0.039 A 
ATOM     32  C   UNL d   1      21.767 -18.697   0.906  0.00  0.00     0.032 A 
BRANCH  30  33
ATOM     33  O   UNL d   1      18.633 -20.487   0.096  0.00  0.00    -0.356 OA
ATOM     34  C   UNL d   1      18.583 -21.504   1.092  0.00  0.00     0.210 C 
ENDBRANCH  30  33
ENDBRANCH  25  27
ENDBRANCH  24  25
ENDBRANCH  21  23
ENDBRANCH   1  21
TORSDOF 9
ENDMDL
MODEL 7
REMARK VINA RESULT:    -6.567      5.279      8.463
REMARK INTER + INTRA:         -12.629
REMARK INTER:                  -9.252
REMARK INTRA:                  -3.377
REMARK CONF_INDEPENDENT:        2.685
REMARK UNBOUND:                -3.377
REMARK  9 active torsions:
REMARK  status: ('A' for Active; 'I' for Inactive)
REMARK    1  A    between atoms: O_2  and  C_3 
REMARK    2  A    between atoms: C_6  and  N_7 
REMARK    3  A    between atoms: N_7  and  C_8 
REMARK    4  A    between atoms: C_9  and  C_10 
REMARK    5  A    between atoms: C_10  and  C_12 
REMARK    6  A    between atoms: C_15  and  C_16 
REMARK    7  A    between atoms: C_16  and  N_17 
REMARK    8  A    between atoms: N_17  and  C_18 
REMARK    9  A    between atoms: C_21  and  C_22 
ROOT
ATOM      1  C   UNL d   1      27.142 -13.999  -5.394  0.00  0.00     0.114 C 
ATOM      2  N   UNL d   1      26.735 -15.200  -5.647  0.00  0.00    -0.134 NA
ATOM      3  O   UNL d   1      25.530 -15.410  -4.931  0.00  0.00    -0.249 OA
ATOM      4  C   UNL d   1      25.148 -14.193  -4.271  0.00  0.00     0.173 C 
ATOM      5  C   UNL d   1      26.299 -13.221  -4.463  0.00  0.00     0.101 C 
ENDROOT
BRANCH   4   6
ATOM      6  C   UNL d   1      24.888 -14.490  -2.775  0.00  0.00     0.128 C 
BRANCH   6   7
ATOM      7  N   UNL d   1      25.092 -15.916  -2.438  0.00  0.00    -0.275 NA
ATOM      8  H   UNL d   1      24.692 -16.547  -3.145  0.00  0.00     0.129 HD
BRANCH   7   9
ATOM      9  C   UNL d   1      26.359 -16.327  -2.027  0.00  0.00     0.102 A 
ATOM     10  N   UNL d   1      27.419 -15.949  -2.765  0.00  0.00    -0.355 N 
ATOM     11  C   UNL d   1      28.686 -16.325  -2.513  0.00  0.00     0.105 A 
ATOM     12  H   UNL d   1      27.227 -15.314  -3.536  0.00  0.00     0.166 HD
ATOM     13  C   UNL d   1      28.984 -17.068  -1.375  0.00  0.00     0.065 A 
ATOM     14  C   UNL d   1      27.940 -17.377  -0.500  0.00  0.00     0.044 A 
ATOM     15  C   UNL d   1      26.626 -17.059  -0.850  0.00  0.00     0.073 A 
ATOM     16 CL   UNL d   1      25.347 -17.643   0.144  0.00  0.00    -0.081 Cl
BRANCH  13  17
ATOM     17  C   UNL d   1      30.391 -17.558  -1.157  0.00  0.00     0.418 C 
ATOM     18  F   UNL d   1      30.403 -18.891  -0.904  0.00  0.00    -0.166 F 
ATOM     19  F   UNL d   1      31.168 -17.369  -2.252  0.00  0.00    -0.166 F 
ATOM     20  F   UNL d   1      31.016 -16.958  -0.116  0.00  0.00    -0.166 F 
ENDBRANCH  13  17
ENDBRANCH   7   9
ENDBRANCH   6   7
ENDBRANCH   4   6
BRANCH   1  21
ATOM     21  C   UNL d   1      28.426 -13.418  -5.947  0.00  0.00     0.200 C 
ATOM     22  O   UNL d   1      28.450 -12.242  -6.298  0.00  0.00    -0.286 OA
BRANCH  21  23
ATOM     23  C   UNL d   1      29.609 -14.325  -6.023  0.00  0.00     0.074 C 
ATOM     24  C   UNL d   1      29.608 -15.379  -6.852  0.00  0.00     0.092 C 
BRANCH  24  25
ATOM     25  N   UNL d   1      30.601 -16.318  -7.038  0.00  0.00    -0.366 N 
ATOM     26  H   UNL d   1      31.344 -16.089  -7.688  0.00  0.00     0.165 HD
BRANCH  25  27
ATOM     27  C   UNL d   1      30.639 -17.639  -6.537  0.00  0.00     0.032 A 
ATOM     28  C   UNL d   1      30.537 -17.882  -5.158  0.00  0.00     0.032 A 
ATOM     29  C   UNL d   1      30.650 -19.184  -4.642  0.00  0.00     0.039 A 
ATOM     30  C   UNL d   1      30.791 -20.280  -5.494  0.00  0.00     0.068 A 
ATOM     31  C   UNL d   1      30.859 -20.058  -6.862  0.00  0.00     0.039 A 
ATOM     32  C   UNL d   1      30.780 -18.756  -7.369  0.00  0.00     0.032 A 
BRANCH  30  33
ATOM     33  O   UNL d   1      30.738 -21.510  -4.900  0.00  0.00    -0.356 OA
ATOM     34  C   UNL d   1      31.116 -21.577  -3.529  0.00  0.00     0.210 C 
ENDBRANCH  30  33
ENDBRANCH  25  27
ENDBRANCH  24  25
ENDBRANCH  21  23
ENDBRANCH   1  21
TORSDOF 9
ENDMDL
MODEL 8
REMARK VINA RESULT:    -6.553      3.107      4.408
REMARK INTER + INTRA:         -12.543
REMARK INTER:                  -9.238
REMARK INTRA:                  -3.305
REMARK CONF_INDEPENDENT:        2.685
REMARK UNBOUND:                -3.305
REMARK  9 active torsions:
REMARK  status: ('A' for Active; 'I' for Inactive)
REMARK    1  A    between atoms: O_2  and  C_3 
REMARK    2  A    between atoms: C_6  and  N_7 
REMARK    3  A    between atoms: N_7  and  C_8 
REMARK    4  A    between atoms: C_9  and  C_10 
REMARK    5  A    between atoms: C_10  and  C_12 
REMARK    6  A    between atoms: C_15  and  C_16 
REMARK    7  A    between atoms: C_16  and  N_17 
REMARK    8  A    between atoms: N_17  and  C_18 
REMARK    9  A    between atoms: C_21  and  C_22 
ROOT
ATOM      1  C   UNL d   1      30.730 -16.981  -4.572  0.00  0.00     0.114 C 
ATOM      2  N   UNL d   1      30.021 -17.451  -5.545  0.00  0.00    -0.134 NA
ATOM      3  O   UNL d   1      30.264 -16.647  -6.687  0.00  0.00    -0.249 OA
ATOM      4  C   UNL d   1      31.274 -15.673  -6.380  0.00  0.00     0.173 C 
ATOM      5  C   UNL d   1      31.541 -15.787  -4.890  0.00  0.00     0.101 C 
ENDROOT
BRANCH   4   6
ATOM      6  C   UNL d   1      30.756 -14.268  -6.768  0.00  0.00     0.128 C 
BRANCH   6   7
ATOM      7  N   UNL d   1      29.368 -14.298  -7.278  0.00  0.00    -0.275 NA
ATOM      8  H   UNL d   1      29.204 -15.082  -7.923  0.00  0.00     0.129 HD
BRANCH   7   9
ATOM      9  C   UNL d   1      28.322 -14.142  -6.368  0.00  0.00     0.102 A 
ATOM     10  N   UNL d   1      27.976 -15.199  -5.612  0.00  0.00    -0.355 N 
ATOM     11  C   UNL d   1      26.951 -15.200  -4.741  0.00  0.00     0.105 A 
ATOM     12  H   UNL d   1      28.563 -16.026  -5.699  0.00  0.00     0.166 HD
ATOM     13  C   UNL d   1      26.236 -14.032  -4.498  0.00  0.00     0.065 A 
ATOM     14  C   UNL d   1      26.635 -12.868  -5.158  0.00  0.00     0.044 A 
ATOM     15  C   UNL d   1      27.636 -12.932  -6.132  0.00  0.00     0.073 A 
ATOM     16 CL   UNL d   1      27.954 -11.528  -7.075  0.00  0.00    -0.081 Cl
BRANCH  13  17
ATOM     17  C   UNL d   1      25.035 -14.073  -3.590  0.00  0.00     0.418 C 
ATOM     18  F   UNL d   1      23.919 -13.668  -4.250  0.00  0.00    -0.166 F 
ATOM     19  F   UNL d   1      24.781 -15.327  -3.144  0.00  0.00    -0.166 F 
ATOM     20  F   UNL d   1      25.154 -13.277  -2.501  0.00  0.00    -0.166 F 
ENDBRANCH  13  17
ENDBRANCH   7   9
ENDBRANCH   6   7
ENDBRANCH   4   6
BRANCH   1  21
ATOM     21  C   UNL d   1      30.708 -17.552  -3.169  0.00  0.00     0.200 C 
ATOM     22  O   UNL d   1      31.566 -18.363  -2.839  0.00  0.00    -0.286 OA
BRANCH  21  23
ATOM     23  C   UNL d   1      29.628 -17.075  -2.256  0.00  0.00     0.074 C 
ATOM     24  C   UNL d   1      29.670 -17.355  -0.945  0.00  0.00     0.092 C 
BRANCH  24  25
ATOM     25  N   UNL d   1      28.759 -17.008   0.030  0.00  0.00    -0.366 N 
ATOM     26  H   UNL d   1      29.120 -16.812   0.957  0.00  0.00     0.165 HD
BRANCH  25  27
ATOM     27  C   UNL d   1      27.349 -17.029  -0.064  0.00  0.00     0.032 A 
ATOM     28  C   UNL d   1      26.632 -18.197   0.237  0.00  0.00     0.032 A 
ATOM     29  C   UNL d   1      25.237 -18.252   0.073  0.00  0.00     0.039 A 
ATOM     30  C   UNL d   1      24.519 -17.122  -0.319  0.00  0.00     0.068 A 
ATOM     31  C   UNL d   1      25.212 -15.950  -0.586  0.00  0.00     0.039 A 
ATOM     32  C   UNL d   1      26.604 -15.910  -0.455  0.00  0.00     0.032 A 
BRANCH  30  33
ATOM     33  O   UNL d   1      23.157 -17.242  -0.299  0.00  0.00    -0.356 OA
ATOM     34  C   UNL d   1      22.623 -18.531  -0.582  0.00  0.00     0.210 C 
ENDBRANCH  30  33
ENDBRANCH  25  27
ENDBRANCH  24  25
ENDBRANCH  21  23
ENDBRANCH   1  21
TORSDOF 9
ENDMDL
MODEL 9
REMARK VINA RESULT:    -6.077      4.114      5.420
REMARK INTER + INTRA:         -12.017
REMARK INTER:                  -8.762
REMARK INTRA:                  -3.256
REMARK CONF_INDEPENDENT:        2.685
REMARK UNBOUND:                -3.256
REMARK  9 active torsions:
REMARK  status: ('A' for Active; 'I' for Inactive)
REMARK    1  A    between atoms: O_2  and  C_3 
REMARK    2  A    between atoms: C_6  and  N_7 
REMARK    3  A    between atoms: N_7  and  C_8 
REMARK    4  A    between atoms: C_9  and  C_10 
REMARK    5  A    between atoms: C_10  and  C_12 
REMARK    6  A    between atoms: C_15  and  C_16 
REMARK    7  A    between atoms: C_16  and  N_17 
REMARK    8  A    between atoms: N_17  and  C_18 
REMARK    9  A    between atoms: C_21  and  C_22 
ROOT
ATOM      1  C   UNL d   1      26.395 -13.437  -4.950  0.00  0.00     0.114 C 
ATOM      2  N   UNL d   1      25.276 -12.794  -4.867  0.00  0.00    -0.134 NA
ATOM      3  O   UNL d   1      25.530 -11.436  -5.184  0.00  0.00    -0.249 OA
ATOM      4  C   UNL d   1      26.904 -11.286  -5.576  0.00  0.00     0.173 C 
ATOM      5  C   UNL d   1      27.574 -12.623  -5.313  0.00  0.00     0.101 C 
ENDROOT
BRANCH   4   6
ATOM      6  C   UNL d   1      27.544 -10.147  -4.747  0.00  0.00     0.128 C 
BRANCH   6   7
ATOM      7  N   UNL d   1      26.808  -9.878  -3.492  0.00  0.00    -0.275 NA
ATOM      8  H   UNL d   1      25.801  -9.742  -3.650  0.00  0.00     0.129 HD
BRANCH   7   9
ATOM      9  C   UNL d   1      27.058 -10.692  -2.388  0.00  0.00     0.102 A 
ATOM     10  N   UNL d   1      26.499 -11.916  -2.362  0.00  0.00    -0.355 N 
ATOM     11  C   UNL d   1      26.612 -12.774  -1.333  0.00  0.00     0.105 A 
ATOM     12  H   UNL d   1      25.993 -12.197  -3.198  0.00  0.00     0.166 HD
ATOM     13  C   UNL d   1      27.427 -12.466  -0.248  0.00  0.00     0.065 A 
ATOM     14  C   UNL d   1      28.138 -11.265  -0.281  0.00  0.00     0.044 A 
ATOM     15  C   UNL d   1      27.912 -10.354  -1.317  0.00  0.00     0.073 A 
ATOM     16 CL   UNL d   1      28.640  -8.798  -1.215  0.00  0.00    -0.081 Cl
BRANCH  13  17
ATOM     17  C   UNL d   1      27.469 -13.396   0.936  0.00  0.00     0.418 C 
ATOM     18  F   UNL d   1      27.733 -14.668   0.540  0.00  0.00    -0.166 F 
ATOM     19  F   UNL d   1      28.449 -13.058   1.809  0.00  0.00    -0.166 F 
ATOM     20  F   UNL d   1      26.309 -13.437   1.633  0.00  0.00    -0.166 F 
ENDBRANCH  13  17
ENDBRANCH   7   9
ENDBRANCH   6   7
ENDBRANCH   4   6
BRANCH   1  21
ATOM     21  C   UNL d   1      26.537 -14.912  -4.642  0.00  0.00     0.200 C 
ATOM     22  O   UNL d   1      27.201 -15.620  -5.392  0.00  0.00    -0.286 OA
BRANCH  21  23
ATOM     23  C   UNL d   1      25.855 -15.422  -3.416  0.00  0.00     0.074 C 
ATOM     24  C   UNL d   1      26.561 -15.988  -2.427  0.00  0.00     0.092 C 
BRANCH  24  25
ATOM     25  N   UNL d   1      26.096 -16.519  -1.242  0.00  0.00    -0.366 N 
ATOM     26  H   UNL d   1      26.774 -16.685  -0.508  0.00  0.00     0.165 HD
BRANCH  25  27
ATOM     27  C   UNL d   1      24.796 -17.001  -0.969  0.00  0.00     0.032 A 
ATOM     28  C   UNL d   1      24.604 -18.317  -0.520  0.00  0.00     0.032 A 
ATOM     29  C   UNL d   1      23.311 -18.831  -0.318  0.00  0.00     0.039 A 
ATOM     30  C   UNL d   1      22.187 -18.023  -0.485  0.00  0.00     0.068 A 
ATOM     31  C   UNL d   1      22.364 -16.709  -0.895  0.00  0.00     0.039 A 
ATOM     32  C   UNL d   1      23.651 -16.211  -1.128  0.00  0.00     0.032 A 
BRANCH  30  33
ATOM     33  O   UNL d   1      20.992 -18.575  -0.116  0.00  0.00    -0.356 OA
ATOM     34  C   UNL d   1      20.304 -19.333  -1.105  0.00  0.00     0.210 C 
ENDBRANCH  30  33
ENDBRANCH  25  27
ENDBRANCH  24  25
ENDBRANCH  21  23
ENDBRANCH   1  21
TORSDOF 9
ENDMDL
