MODEL 1
REMARK VINA RESULT:    -8.498      0.000      0.000
REMARK INTER + INTRA:         -12.668
REMARK INTER:                 -11.481
REMARK INTRA:                  -1.187
REMARK CONF_INDEPENDENT:        2.983
REMARK UNBOUND:                -1.187
REMARK  10 active torsions:
REMARK  status: ('A' for Active; 'I' for Inactive)
REMARK    1  A    between atoms: O_2  and  C_3 
REMARK    2  A    between atoms: C_3  and  C_4 
REMARK    3  A    between atoms: C_4  and  O_5 
REMARK    4  A    between atoms: O_5  and  C_6 
REMARK    5  A    between atoms: C_11  and  N_12 
REMARK       I    between atoms: N_12  and  C_13 
REMARK       I    between atoms: C_13  and  N_15 
REMARK    6  A    between atoms: N_15  and  C_16 
REMARK    7  A    between atoms: C_16  and  C_17 
REMARK    8  A    between atoms: C_17  and  N_18 
REMARK       I    between atoms: N_18  and  C_19 
REMARK    9  A    between atoms: C_19  and  C_21 
REMARK   10  A    between atoms: C_24  and  O_25 
ROOT
ATOM      1  N   UNL d   1      28.443 -17.205   0.098  0.00  0.00    -0.306 N 
ATOM      2  C   UNL d   1      29.433 -17.371  -0.867  0.00  0.00     0.320 C 
ATOM      3  O   UNL d   1      29.283 -17.125  -2.064  0.00  0.00    -0.247 OA
ATOM      4  N   UNL d   1      30.566 -18.032  -0.405  0.00  0.00    -0.341 N 
ATOM      5  H   UNL d   1      28.745 -16.880   1.004  0.00  0.00     0.171 HD
ATOM      6  H   UNL d   1      30.873 -17.888   0.543  0.00  0.00     0.164 HD
ENDROOT
BRANCH   4   7
ATOM      7  C   UNL d   1      31.377 -18.903  -1.283  0.00  0.00     0.144 C 
BRANCH   7   8
ATOM      8  C   UNL d   1      32.180 -20.008  -0.590  0.00  0.00     0.142 C 
BRANCH   8   9
ATOM      9  N   UNL d   1      31.752 -20.339   0.777  0.00  0.00    -0.355 N 
ATOM     10  C   UNL d   1      32.698 -20.645   1.741  0.00  0.00     0.251 C 
ATOM     11  O   UNL d   1      33.909 -20.644   1.503  0.00  0.00    -0.268 OA
ATOM     12  H   UNL d   1      30.780 -20.237   1.047  0.00  0.00     0.162 HD
BRANCH  10  13
ATOM     13  C   UNL d   1      32.235 -21.001   3.116  0.00  0.00     0.032 A 
ATOM     14  C   UNL d   1      30.904 -21.415   3.312  0.00  0.00     0.020 A 
ATOM     15  C   UNL d   1      30.383 -21.576   4.605  0.00  0.00     0.037 A 
ATOM     16  C   UNL d   1      31.214 -21.382   5.702  0.00  0.00     0.065 A 
ATOM     17  C   UNL d   1      32.534 -20.979   5.525  0.00  0.00     0.037 A 
ATOM     18  C   UNL d   1      33.048 -20.783   4.234  0.00  0.00     0.020 A 
BRANCH  16  19
ATOM     19  O   UNL d   1      30.779 -21.581   6.980  0.00  0.00    -0.361 OA
ATOM     20  H   UNL d   1      30.040 -22.213   6.975  0.00  0.00     0.217 HD
ENDBRANCH  16  19
ENDBRANCH  10  13
ENDBRANCH   8   9
ENDBRANCH   7   8
ENDBRANCH   4   7
BRANCH   1  21
ATOM     21  C   UNL d   1      27.025 -17.146  -0.166  0.00  0.00     0.069 A 
ATOM     22  C   UNL d   1      26.218 -18.205   0.318  0.00  0.00     0.032 A 
ATOM     23  C   UNL d   1      24.814 -18.200   0.176  0.00  0.00     0.002 A 
ATOM     24  C   UNL d   1      24.183 -17.143  -0.462  0.00  0.00     0.003 A 
ATOM     25  C   UNL d   1      24.964 -16.137  -1.024  0.00  0.00     0.039 A 
ATOM     26  C   UNL d   1      26.372 -16.133  -0.899  0.00  0.00     0.095 A 
BRANCH  26  27
ATOM     27  O   UNL d   1      26.927 -15.038  -1.501  0.00  0.00    -0.347 OA
BRANCH  27  28
ATOM     28  C   UNL d   1      26.941 -14.968  -2.924  0.00  0.00     0.201 C 
BRANCH  28  29
ATOM     29  C   UNL d   1      25.801 -14.034  -3.346  0.00  0.00     0.193 C 
BRANCH  29  30
ATOM     30  O   UNL d   1      25.145 -14.557  -4.500  0.00  0.00    -0.394 OA
ATOM     31  C   UNL d   1      25.905 -15.574  -5.134  0.00  0.00     0.201 C 
ENDBRANCH  29  30
ENDBRANCH  28  29
ENDBRANCH  27  28
ENDBRANCH  26  27
ENDBRANCH   1  21
TORSDOF 10
ENDMDL
MODEL 2
REMARK VINA RESULT:    -8.281      5.611      8.837
REMARK INTER + INTRA:         -13.202
REMARK INTER:                 -11.264
REMARK INTRA:                  -1.939
REMARK CONF_INDEPENDENT:        2.983
REMARK UNBOUND:                -1.939
REMARK  10 active torsions:
REMARK  status: ('A' for Active; 'I' for Inactive)
REMARK    1  A    between atoms: O_2  and  C_3 
REMARK    2  A    between atoms: C_3  and  C_4 
REMARK    3  A    between atoms: C_4  and  O_5 
REMARK    4  A    between atoms: O_5  and  C_6 
REMARK    5  A    between atoms: C_11  and  N_12 
REMARK       I    between atoms: N_12  and  C_13 
REMARK       I    between atoms: C_13  and  N_15 
REMARK    6  A    between atoms: N_15  and  C_16 
REMARK    7  A    between atoms: C_16  and  C_17 
REMARK    8  A    between atoms: C_17  and  N_18 
REMARK       I    between atoms: N_18  and  C_19 
REMARK    9  A    between atoms: C_19  and  C_21 
REMARK   10  A    between atoms: C_24  and  O_25 
ROOT
ATOM      1  N   UNL d   1      26.818 -15.363  -2.400  0.00  0.00    -0.306 N 
ATOM      2  C   UNL d   1      25.969 -16.458  -2.257  0.00  0.00     0.320 C 
ATOM      3  O   UNL d   1      25.130 -16.799  -3.090  0.00  0.00    -0.247 OA
ATOM      4  N   UNL d   1      26.003 -17.036  -0.992  0.00  0.00    -0.341 N 
ATOM      5  H   UNL d   1      27.754 -15.468  -2.041  0.00  0.00     0.171 HD
ATOM      6  H   UNL d   1      26.869 -17.061  -0.481  0.00  0.00     0.164 HD
ENDROOT
BRANCH   4   7
ATOM      7  C   UNL d   1      24.812 -17.674  -0.391  0.00  0.00     0.144 C 
BRANCH   7   8
ATOM      8  C   UNL d   1      23.499 -16.889  -0.487  0.00  0.00     0.142 C 
BRANCH   8   9
ATOM      9  N   UNL d   1      22.315 -17.570   0.057  0.00  0.00    -0.355 N 
ATOM     10  C   UNL d   1      21.754 -18.634  -0.631  0.00  0.00     0.251 C 
ATOM     11  O   UNL d   1      22.219 -19.051  -1.695  0.00  0.00    -0.268 OA
ATOM     12  H   UNL d   1      21.972 -17.338   0.982  0.00  0.00     0.162 HD
BRANCH  10  13
ATOM     13  C   UNL d   1      20.536 -19.292  -0.069  0.00  0.00     0.032 A 
ATOM     14  C   UNL d   1      20.512 -19.656   1.290  0.00  0.00     0.020 A 
ATOM     15  C   UNL d   1      19.468 -20.438   1.806  0.00  0.00     0.037 A 
ATOM     16  C   UNL d   1      18.416 -20.805   0.975  0.00  0.00     0.065 A 
ATOM     17  C   UNL d   1      18.423 -20.448  -0.370  0.00  0.00     0.037 A 
ATOM     18  C   UNL d   1      19.483 -19.695  -0.898  0.00  0.00     0.020 A 
BRANCH  16  19
ATOM     19  O   UNL d   1      17.346 -21.515   1.436  0.00  0.00    -0.361 OA
ATOM     20  H   UNL d   1      16.936 -21.997   0.697  0.00  0.00     0.217 HD
ENDBRANCH  16  19
ENDBRANCH  10  13
ENDBRANCH   8   9
ENDBRANCH   7   8
ENDBRANCH   4   7
BRANCH   1  21
ATOM     21  C   UNL d   1      26.587 -14.241  -3.278  0.00  0.00     0.069 A 
ATOM     22  C   UNL d   1      26.012 -13.073  -2.722  0.00  0.00     0.032 A 
ATOM     23  C   UNL d   1      25.818 -11.899  -3.481  0.00  0.00     0.002 A 
ATOM     24  C   UNL d   1      26.184 -11.868  -4.818  0.00  0.00     0.003 A 
ATOM     25  C   UNL d   1      26.667 -13.033  -5.408  0.00  0.00     0.039 A 
ATOM     26  C   UNL d   1      26.858 -14.219  -4.662  0.00  0.00     0.095 A 
BRANCH  26  27
ATOM     27  O   UNL d   1      27.368 -15.224  -5.438  0.00  0.00    -0.347 OA
BRANCH  27  28
ATOM     28  C   UNL d   1      28.731 -15.155  -5.844  0.00  0.00     0.201 C 
BRANCH  28  29
ATOM     29  C   UNL d   1      29.512 -16.165  -4.994  0.00  0.00     0.193 C 
BRANCH  29  30
ATOM     30  O   UNL d   1      28.981 -16.201  -3.670  0.00  0.00    -0.394 OA
ATOM     31  C   UNL d   1      29.754 -17.019  -2.805  0.00  0.00     0.201 C 
ENDBRANCH  29  30
ENDBRANCH  28  29
ENDBRANCH  27  28
ENDBRANCH  26  27
ENDBRANCH   1  21
TORSDOF 10
ENDMDL
MODEL 3
REMARK VINA RESULT:    -7.508      5.195      8.639
REMARK INTER + INTRA:         -12.386
REMARK INTER:                 -10.491
REMARK INTRA:                  -1.895
REMARK CONF_INDEPENDENT:        2.983
REMARK UNBOUND:                -1.895
REMARK  10 active torsions:
REMARK  status: ('A' for Active; 'I' for Inactive)
REMARK    1  A    between atoms: O_2  and  C_3 
REMARK    2  A    between atoms: C_3  and  C_4 
REMARK    3  A    between atoms: C_4  and  O_5 
REMARK    4  A    between atoms: O_5  and  C_6 
REMARK    5  A    between atoms: C_11  and  N_12 
REMARK       I    between atoms: N_12  and  C_13 
REMARK       I    between atoms: C_13  and  N_15 
REMARK    6  A    between atoms: N_15  and  C_16 
REMARK    7  A    between atoms: C_16  and  C_17 
REMARK    8  A    between atoms: C_17  and  N_18 
REMARK       I    between atoms: N_18  and  C_19 
REMARK    9  A    between atoms: C_19  and  C_21 
REMARK   10  A    between atoms: C_24  and  O_25 
ROOT
ATOM      1  N   UNL d   1      27.369 -15.753  -1.885  0.00  0.00    -0.306 N 
ATOM      2  C   UNL d   1      26.971 -16.566  -0.827  0.00  0.00     0.320 C 
ATOM      3  O   UNL d   1      27.687 -17.418  -0.300  0.00  0.00    -0.247 OA
ATOM      4  N   UNL d   1      25.615 -16.481  -0.529  0.00  0.00    -0.341 N 
ATOM      5  H   UNL d   1      27.026 -14.804  -1.879  0.00  0.00     0.171 HD
ATOM      6  H   UNL d   1      25.138 -15.601  -0.631  0.00  0.00     0.164 HD
ENDROOT
BRANCH   4   7
ATOM      7  C   UNL d   1      24.855 -17.637  -0.006  0.00  0.00     0.144 C 
BRANCH   7   8
ATOM      8  C   UNL d   1      23.944 -18.359  -1.004  0.00  0.00     0.142 C 
BRANCH   8   9
ATOM      9  N   UNL d   1      22.795 -19.064  -0.417  0.00  0.00    -0.355 N 
ATOM     10  C   UNL d   1      21.515 -18.564  -0.591  0.00  0.00     0.251 C 
ATOM     11  O   UNL d   1      21.290 -17.538  -1.238  0.00  0.00    -0.268 OA
ATOM     12  H   UNL d   1      22.921 -19.970   0.020  0.00  0.00     0.162 HD
BRANCH  10  13
ATOM     13  C   UNL d   1      20.369 -19.286   0.037  0.00  0.00     0.032 A 
ATOM     14  C   UNL d   1      20.424 -19.613   1.405  0.00  0.00     0.020 A 
ATOM     15  C   UNL d   1      19.457 -20.450   1.984  0.00  0.00     0.037 A 
ATOM     16  C   UNL d   1      18.401 -20.910   1.207  0.00  0.00     0.065 A 
ATOM     17  C   UNL d   1      18.330 -20.591  -0.146  0.00  0.00     0.037 A 
ATOM     18  C   UNL d   1      19.314 -19.784  -0.736  0.00  0.00     0.020 A 
BRANCH  16  19
ATOM     19  O   UNL d   1      17.402 -21.678   1.730  0.00  0.00    -0.361 OA
ATOM     20  H   UNL d   1      17.135 -22.348   1.077  0.00  0.00     0.217 HD
ENDBRANCH  16  19
ENDBRANCH  10  13
ENDBRANCH   8   9
ENDBRANCH   7   8
ENDBRANCH   4   7
BRANCH   1  21
ATOM     21  C   UNL d   1      28.454 -16.038  -2.792  0.00  0.00     0.069 A 
ATOM     22  C   UNL d   1      29.702 -16.406  -2.234  0.00  0.00     0.032 A 
ATOM     23  C   UNL d   1      30.802 -16.778  -3.038  0.00  0.00     0.002 A 
ATOM     24  C   UNL d   1      30.683 -16.780  -4.420  0.00  0.00     0.003 A 
ATOM     25  C   UNL d   1      29.494 -16.335  -4.990  0.00  0.00     0.039 A 
ATOM     26  C   UNL d   1      28.388 -15.950  -4.198  0.00  0.00     0.095 A 
BRANCH  26  27
ATOM     27  O   UNL d   1      27.322 -15.578  -4.970  0.00  0.00    -0.347 OA
BRANCH  27  28
ATOM     28  C   UNL d   1      27.237 -14.231  -5.423  0.00  0.00     0.201 C 
BRANCH  28  29
ATOM     29  C   UNL d   1      26.208 -13.516  -4.539  0.00  0.00     0.193 C 
BRANCH  29  30
ATOM     30  O   UNL d   1      25.713 -14.412  -3.545  0.00  0.00    -0.394 OA
ATOM     31  C   UNL d   1      24.385 -14.100  -3.156  0.00  0.00     0.201 C 
ENDBRANCH  29  30
ENDBRANCH  28  29
ENDBRANCH  27  28
ENDBRANCH  26  27
ENDBRANCH   1  21
TORSDOF 10
ENDMDL
MODEL 4
REMARK VINA RESULT:    -6.991      5.188      7.382
REMARK INTER + INTRA:         -12.393
REMARK INTER:                  -9.974
REMARK INTRA:                  -2.419
REMARK CONF_INDEPENDENT:        2.983
REMARK UNBOUND:                -2.419
REMARK  10 active torsions:
REMARK  status: ('A' for Active; 'I' for Inactive)
REMARK    1  A    between atoms: O_2  and  C_3 
REMARK    2  A    between atoms: C_3  and  C_4 
REMARK    3  A    between atoms: C_4  and  O_5 
REMARK    4  A    between atoms: O_5  and  C_6 
REMARK    5  A    between atoms: C_11  and  N_12 
REMARK       I    between atoms: N_12  and  C_13 
REMARK       I    between atoms: C_13  and  N_15 
REMARK    6  A    between atoms: N_15  and  C_16 
REMARK    7  A    between atoms: C_16  and  C_17 
REMARK    8  A    between atoms: C_17  and  N_18 
REMARK       I    between atoms: N_18  and  C_19 
REMARK    9  A    between atoms: C_19  and  C_21 
REMARK   10  A    between atoms: C_24  and  O_25 
ROOT
ATOM      1  N   UNL d   1      24.492 -15.576  -2.180  0.00  0.00    -0.306 N 
ATOM      2  C   UNL d   1      25.157 -14.980  -3.248  0.00  0.00     0.320 C 
ATOM      3  O   UNL d   1      26.182 -15.427  -3.764  0.00  0.00    -0.247 OA
ATOM      4  N   UNL d   1      24.683 -13.713  -3.572  0.00  0.00    -0.341 N 
ATOM      5  H   UNL d   1      23.485 -15.524  -2.189  0.00  0.00     0.171 HD
ATOM      6  H   UNL d   1      23.702 -13.510  -3.477  0.00  0.00     0.164 HD
ENDROOT
BRANCH   4   7
ATOM      7  C   UNL d   1      25.570 -12.660  -4.113  0.00  0.00     0.144 C 
BRANCH   7   8
ATOM      8  C   UNL d   1      26.973 -12.574  -3.504  0.00  0.00     0.142 C 
BRANCH   8   9
ATOM      9  N   UNL d   1      27.146 -13.260  -2.215  0.00  0.00    -0.355 N 
ATOM     10  C   UNL d   1      27.164 -12.526  -1.040  0.00  0.00     0.251 C 
ATOM     11  O   UNL d   1      27.030 -11.300  -1.025  0.00  0.00    -0.268 OA
ATOM     12  H   UNL d   1      27.141 -14.272  -2.171  0.00  0.00     0.162 HD
BRANCH  10  13
ATOM     13  C   UNL d   1      27.367 -13.246   0.253  0.00  0.00     0.032 A 
ATOM     14  C   UNL d   1      26.714 -12.783   1.412  0.00  0.00     0.020 A 
ATOM     15  C   UNL d   1      27.025 -13.314   2.673  0.00  0.00     0.037 A 
ATOM     16  C   UNL d   1      27.944 -14.353   2.766  0.00  0.00     0.065 A 
ATOM     17  C   UNL d   1      28.593 -14.825   1.630  0.00  0.00     0.037 A 
ATOM     18  C   UNL d   1      28.311 -14.271   0.372  0.00  0.00     0.020 A 
BRANCH  16  19
ATOM     19  O   UNL d   1      28.241 -14.947   3.958  0.00  0.00    -0.361 OA
ATOM     20  H   UNL d   1      28.994 -15.550   3.839  0.00  0.00     0.217 HD
ENDBRANCH  16  19
ENDBRANCH  10  13
ENDBRANCH   8   9
ENDBRANCH   7   8
ENDBRANCH   4   7
BRANCH   1  21
ATOM     21  C   UNL d   1      25.079 -16.514  -1.253  0.00  0.00     0.069 A 
ATOM     22  C   UNL d   1      26.491 -16.550  -1.154  0.00  0.00     0.032 A 
ATOM     23  C   UNL d   1      27.155 -17.379  -0.224  0.00  0.00     0.002 A 
ATOM     24  C   UNL d   1      26.424 -18.199   0.622  0.00  0.00     0.003 A 
ATOM     25  C   UNL d   1      25.040 -18.245   0.479  0.00  0.00     0.039 A 
ATOM     26  C   UNL d   1      24.361 -17.429  -0.454  0.00  0.00     0.095 A 
BRANCH  26  27
ATOM     27  O   UNL d   1      23.009 -17.620  -0.400  0.00  0.00    -0.347 OA
BRANCH  27  28
ATOM     28  C   UNL d   1      22.465 -18.840  -0.894  0.00  0.00     0.201 C 
BRANCH  28  29
ATOM     29  C   UNL d   1      20.995 -18.578  -1.244  0.00  0.00     0.193 C 
BRANCH  29  30
ATOM     30  O   UNL d   1      20.275 -19.809  -1.276  0.00  0.00    -0.394 OA
ATOM     31  C   UNL d   1      19.346 -19.914  -0.208  0.00  0.00     0.201 C 
ENDBRANCH  29  30
ENDBRANCH  28  29
ENDBRANCH  27  28
ENDBRANCH  26  27
ENDBRANCH   1  21
TORSDOF 10
ENDMDL
MODEL 5
REMARK VINA RESULT:    -6.685      4.531      7.821
REMARK INTER + INTRA:         -12.336
REMARK INTER:                  -9.668
REMARK INTRA:                  -2.668
REMARK CONF_INDEPENDENT:        2.983
REMARK UNBOUND:                -2.668
REMARK  10 active torsions:
REMARK  status: ('A' for Active; 'I' for Inactive)
REMARK    1  A    between atoms: O_2  and  C_3 
REMARK    2  A    between atoms: C_3  and  C_4 
REMARK    3  A    between atoms: C_4  and  O_5 
REMARK    4  A    between atoms: O_5  and  C_6 
REMARK    5  A    between atoms: C_11  and  N_12 
REMARK       I    between atoms: N_12  and  C_13 
REMARK       I    between atoms: C_13  and  N_15 
REMARK    6  A    between atoms: N_15  and  C_16 
REMARK    7  A    between atoms: C_16  and  C_17 
REMARK    8  A    between atoms: C_17  and  N_18 
REMARK       I    between atoms: N_18  and  C_19 
REMARK    9  A    between atoms: C_19  and  C_21 
REMARK   10  A    between atoms: C_24  and  O_25 
ROOT
ATOM      1  N   UNL d   1      29.474 -16.546  -3.863  0.00  0.00    -0.306 N 
ATOM      2  C   UNL d   1      29.780 -16.863  -2.541  0.00  0.00     0.320 C 
ATOM      3  O   UNL d   1      30.823 -17.410  -2.184  0.00  0.00    -0.247 OA
ATOM      4  N   UNL d   1      28.719 -16.691  -1.659  0.00  0.00    -0.341 N 
ATOM      5  H   UNL d   1      28.971 -15.685  -4.015  0.00  0.00     0.171 HD
ATOM      6  H   UNL d   1      28.067 -15.939  -1.807  0.00  0.00     0.164 HD
ENDROOT
BRANCH   4   7
ATOM      7  C   UNL d   1      28.547 -17.547  -0.465  0.00  0.00     0.144 C 
BRANCH   7   8
ATOM      8  C   UNL d   1      27.596 -17.022   0.615  0.00  0.00     0.142 C 
BRANCH   8   9
ATOM      9  N   UNL d   1      26.179 -17.369   0.433  0.00  0.00    -0.355 N 
ATOM     10  C   UNL d   1      25.557 -17.113  -0.779  0.00  0.00     0.251 C 
ATOM     11  O   UNL d   1      26.153 -16.607  -1.734  0.00  0.00    -0.268 OA
ATOM     12  H   UNL d   1      25.684 -17.892   1.146  0.00  0.00     0.162 HD
BRANCH  10  13
ATOM     13  C   UNL d   1      24.110 -17.452  -0.930  0.00  0.00     0.032 A 
ATOM     14  C   UNL d   1      23.155 -16.418  -0.944  0.00  0.00     0.020 A 
ATOM     15  C   UNL d   1      21.783 -16.705  -0.895  0.00  0.00     0.037 A 
ATOM     16  C   UNL d   1      21.364 -18.031  -0.895  0.00  0.00     0.065 A 
ATOM     17  C   UNL d   1      22.296 -19.065  -0.887  0.00  0.00     0.037 A 
ATOM     18  C   UNL d   1      23.670 -18.780  -0.900  0.00  0.00     0.020 A 
BRANCH  16  19
ATOM     19  O   UNL d   1      20.042 -18.370  -0.907  0.00  0.00    -0.361 OA
ATOM     20  H   UNL d   1      19.576 -17.826  -1.564  0.00  0.00     0.217 HD
ENDBRANCH  16  19
ENDBRANCH  10  13
ENDBRANCH   8   9
ENDBRANCH   7   8
ENDBRANCH   4   7
BRANCH   1  21
ATOM     21  C   UNL d   1      30.073 -17.156  -5.025  0.00  0.00     0.069 A 
ATOM     22  C   UNL d   1      30.387 -18.535  -4.961  0.00  0.00     0.032 A 
ATOM     23  C   UNL d   1      30.905 -19.237  -6.070  0.00  0.00     0.002 A 
ATOM     24  C   UNL d   1      31.131 -18.576  -7.268  0.00  0.00     0.003 A 
ATOM     25  C   UNL d   1      30.914 -17.202  -7.325  0.00  0.00     0.039 A 
ATOM     26  C   UNL d   1      30.405 -16.483  -6.220  0.00  0.00     0.095 A 
BRANCH  26  27
ATOM     27  O   UNL d   1      30.245 -15.157  -6.513  0.00  0.00    -0.347 OA
BRANCH  27  28
ATOM     28  C   UNL d   1      29.007 -14.718  -7.063  0.00  0.00     0.201 C 
BRANCH  28  29
ATOM     29  C   UNL d   1      28.091 -14.348  -5.890  0.00  0.00     0.193 C 
BRANCH  29  30
ATOM     30  O   UNL d   1      27.368 -15.499  -5.456  0.00  0.00    -0.394 OA
ATOM     31  C   UNL d   1      26.322 -15.167  -4.556  0.00  0.00     0.201 C 
ENDBRANCH  29  30
ENDBRANCH  28  29
ENDBRANCH  27  28
ENDBRANCH  26  27
ENDBRANCH   1  21
TORSDOF 10
ENDMDL
MODEL 6
REMARK VINA RESULT:    -6.651      5.795      9.119
REMARK INTER + INTRA:         -12.043
REMARK INTER:                  -9.634
REMARK INTRA:                  -2.409
REMARK CONF_INDEPENDENT:        2.983
REMARK UNBOUND:                -2.409
REMARK  10 active torsions:
REMARK  status: ('A' for Active; 'I' for Inactive)
REMARK    1  A    between atoms: O_2  and  C_3 
REMARK    2  A    between atoms: C_3  and  C_4 
REMARK    3  A    between atoms: C_4  and  O_5 
REMARK    4  A    between atoms: O_5  and  C_6 
REMARK    5  A    between atoms: C_11  and  N_12 
REMARK       I    between atoms: N_12  and  C_13 
REMARK       I    between atoms: C_13  and  N_15 
REMARK    6  A    between atoms: N_15  and  C_16 
REMARK    7  A    between atoms: C_16  and  C_17 
REMARK    8  A    between atoms: C_17  and  N_18 
REMARK       I    between atoms: N_18  and  C_19 
REMARK    9  A    between atoms: C_19  and  C_21 
REMARK   10  A    between atoms: C_24  and  O_25 
ROOT
ATOM      1  N   UNL d   1      26.246 -13.843  -3.074  0.00  0.00    -0.306 N 
ATOM      2  C   UNL d   1      25.123 -14.663  -3.159  0.00  0.00     0.320 C 
ATOM      3  O   UNL d   1      24.163 -14.450  -3.899  0.00  0.00    -0.247 OA
ATOM      4  N   UNL d   1      25.074 -15.655  -2.185  0.00  0.00    -0.341 N 
ATOM      5  H   UNL d   1      27.132 -14.305  -2.939  0.00  0.00     0.171 HD
ATOM      6  H   UNL d   1      25.928 -16.084  -1.870  0.00  0.00     0.164 HD
ENDROOT
BRANCH   4   7
ATOM      7  C   UNL d   1      23.794 -16.149  -1.634  0.00  0.00     0.144 C 
BRANCH   7   8
ATOM      8  C   UNL d   1      23.877 -16.940  -0.325  0.00  0.00     0.142 C 
BRANCH   8   9
ATOM      9  N   UNL d   1      22.616 -17.544   0.131  0.00  0.00    -0.355 N 
ATOM     10  C   UNL d   1      22.124 -18.673  -0.502  0.00  0.00     0.251 C 
ATOM     11  O   UNL d   1      22.712 -19.212  -1.443  0.00  0.00    -0.268 OA
ATOM     12  H   UNL d   1      22.163 -17.206   0.972  0.00  0.00     0.162 HD
BRANCH  10  13
ATOM     13  C   UNL d   1      20.828 -19.252  -0.035  0.00  0.00     0.032 A 
ATOM     14  C   UNL d   1      20.652 -19.541   1.331  0.00  0.00     0.020 A 
ATOM     15  C   UNL d   1      19.528 -20.253   1.776  0.00  0.00     0.037 A 
ATOM     16  C   UNL d   1      18.550 -20.622   0.861  0.00  0.00     0.065 A 
ATOM     17  C   UNL d   1      18.706 -20.339  -0.492  0.00  0.00     0.037 A 
ATOM     18  C   UNL d   1      19.846 -19.658  -0.946  0.00  0.00     0.020 A 
BRANCH  16  19
ATOM     19  O   UNL d   1      17.408 -21.265   1.245  0.00  0.00    -0.361 OA
ATOM     20  H   UNL d   1      17.642 -22.058   1.756  0.00  0.00     0.217 HD
ENDBRANCH  16  19
ENDBRANCH  10  13
ENDBRANCH   8   9
ENDBRANCH   7   8
ENDBRANCH   4   7
BRANCH   1  21
ATOM     21  C   UNL d   1      26.296 -12.458  -3.474  0.00  0.00     0.069 A 
ATOM     22  C   UNL d   1      26.010 -12.148  -4.826  0.00  0.00     0.032 A 
ATOM     23  C   UNL d   1      25.960 -10.818  -5.295  0.00  0.00     0.002 A 
ATOM     24  C   UNL d   1      26.206  -9.765  -4.427  0.00  0.00     0.003 A 
ATOM     25  C   UNL d   1      26.578 -10.051  -3.116  0.00  0.00     0.039 A 
ATOM     26  C   UNL d   1      26.642 -11.378  -2.634  0.00  0.00     0.095 A 
BRANCH  26  27
ATOM     27  O   UNL d   1      27.000 -11.418  -1.315  0.00  0.00    -0.347 OA
BRANCH  27  28
ATOM     28  C   UNL d   1      27.934 -12.403  -0.884  0.00  0.00     0.201 C 
BRANCH  28  29
ATOM     29  C   UNL d   1      27.144 -13.484  -0.136  0.00  0.00     0.193 C 
BRANCH  29  30
ATOM     30  O   UNL d   1      27.266 -14.734  -0.816  0.00  0.00    -0.394 OA
ATOM     31  C   UNL d   1      28.409 -15.462  -0.396  0.00  0.00     0.201 C 
ENDBRANCH  29  30
ENDBRANCH  28  29
ENDBRANCH  27  28
ENDBRANCH  26  27
ENDBRANCH   1  21
TORSDOF 10
ENDMDL
MODEL 7
REMARK VINA RESULT:    -6.010      4.827     10.137
REMARK INTER + INTRA:         -12.036
REMARK INTER:                  -8.993
REMARK INTRA:                  -3.043
REMARK CONF_INDEPENDENT:        2.983
REMARK UNBOUND:                -3.043
REMARK  10 active torsions:
REMARK  status: ('A' for Active; 'I' for Inactive)
REMARK    1  A    between atoms: O_2  and  C_3 
REMARK    2  A    between atoms: C_3  and  C_4 
REMARK    3  A    between atoms: C_4  and  O_5 
REMARK    4  A    between atoms: O_5  and  C_6 
REMARK    5  A    between atoms: C_11  and  N_12 
REMARK       I    between atoms: N_12  and  C_13 
REMARK       I    between atoms: C_13  and  N_15 
REMARK    6  A    between atoms: N_15  and  C_16 
REMARK    7  A    between atoms: C_16  and  C_17 
REMARK    8  A    between atoms: C_17  and  N_18 
REMARK       I    between atoms: N_18  and  C_19 
REMARK    9  A    between atoms: C_19  and  C_21 
REMARK   10  A    between atoms: C_24  and  O_25 
ROOT
ATOM      1  N   UNL d   1      25.683 -15.885  -1.221  0.00  0.00    -0.306 N 
ATOM      2  C   UNL d   1      25.933 -15.358  -2.486  0.00  0.00     0.320 C 
ATOM      3  O   UNL d   1      25.099 -15.296  -3.388  0.00  0.00    -0.247 OA
ATOM      4  N   UNL d   1      27.275 -15.079  -2.725  0.00  0.00    -0.341 N 
ATOM      5  H   UNL d   1      26.134 -15.427  -0.443  0.00  0.00     0.171 HD
ATOM      6  H   UNL d   1      27.856 -14.750  -1.972  0.00  0.00     0.164 HD
ENDROOT
BRANCH   4   7
ATOM      7  C   UNL d   1      27.869 -15.192  -4.074  0.00  0.00     0.144 C 
BRANCH   7   8
ATOM      8  C   UNL d   1      27.036 -14.635  -5.233  0.00  0.00     0.142 C 
BRANCH   8   9
ATOM      9  N   UNL d   1      26.301 -13.394  -4.944  0.00  0.00    -0.355 N 
ATOM     10  C   UNL d   1      26.665 -12.215  -5.574  0.00  0.00     0.251 C 
ATOM     11  O   UNL d   1      27.589 -12.159  -6.390  0.00  0.00    -0.268 OA
ATOM     12  H   UNL d   1      25.464 -13.417  -4.374  0.00  0.00     0.162 HD
BRANCH  10  13
ATOM     13  C   UNL d   1      25.918 -10.964  -5.244  0.00  0.00     0.032 A 
ATOM     14  C   UNL d   1      25.546 -10.087  -6.280  0.00  0.00     0.020 A 
ATOM     15  C   UNL d   1      25.014  -8.820  -5.994  0.00  0.00     0.037 A 
ATOM     16  C   UNL d   1      24.797  -8.457  -4.670  0.00  0.00     0.065 A 
ATOM     17  C   UNL d   1      25.154  -9.315  -3.635  0.00  0.00     0.037 A 
ATOM     18  C   UNL d   1      25.720 -10.568  -3.917  0.00  0.00     0.020 A 
BRANCH  16  19
ATOM     19  O   UNL d   1      24.228  -7.262  -4.334  0.00  0.00    -0.361 OA
ATOM     20  H   UNL d   1      24.407  -7.072  -3.398  0.00  0.00     0.217 HD
ENDBRANCH  16  19
ENDBRANCH  10  13
ENDBRANCH   8   9
ENDBRANCH   7   8
ENDBRANCH   4   7
BRANCH   1  21
ATOM     21  C   UNL d   1      24.614 -16.798  -0.897  0.00  0.00     0.069 A 
ATOM     22  C   UNL d   1      23.284 -16.363  -1.111  0.00  0.00     0.032 A 
ATOM     23  C   UNL d   1      22.175 -17.210  -0.897  0.00  0.00     0.002 A 
ATOM     24  C   UNL d   1      22.368 -18.509  -0.452  0.00  0.00     0.003 A 
ATOM     25  C   UNL d   1      23.661 -18.927  -0.148  0.00  0.00     0.039 A 
ATOM     26  C   UNL d   1      24.780 -18.088  -0.349  0.00  0.00     0.095 A 
BRANCH  26  27
ATOM     27  O   UNL d   1      25.947 -18.716  -0.011  0.00  0.00    -0.347 OA
BRANCH  27  28
ATOM     28  C   UNL d   1      26.966 -17.968   0.645  0.00  0.00     0.201 C 
BRANCH  28  29
ATOM     29  C   UNL d   1      27.965 -17.517  -0.428  0.00  0.00     0.193 C 
BRANCH  29  30
ATOM     30  O   UNL d   1      28.193 -16.113  -0.321  0.00  0.00    -0.394 OA
ATOM     31  C   UNL d   1      27.926 -15.624   0.984  0.00  0.00     0.201 C 
ENDBRANCH  29  30
ENDBRANCH  28  29
ENDBRANCH  27  28
ENDBRANCH  26  27
ENDBRANCH   1  21
TORSDOF 10
ENDMDL
