MODEL 1
REMARK VINA RESULT:   -27.991      0.000      0.000
REMARK INTER + INTRA:         -29.329
REMARK INTER:                 -28.885
REMARK INTRA:                  -0.444
REMARK CONF_INDEPENDENT:        0.895
REMARK UNBOUND:                -0.444
REMARK  3 active torsions:
REMARK  status: ('A' for Active; 'I' for Inactive)
REMARK       I    between atoms: C_2  and  N_3 
REMARK    1  A    between atoms: C_2  and  C_14 
REMARK    2  A    between atoms: N_3  and  N_4 
REMARK    3  A    between atoms: N_4  and  C_5 
ROOT
ATOM      1  N   UNL d   1      19.905 -19.223  -1.269  0.00  0.00    -0.200 NA
ATOM      2  H   UNL d   1      19.431 -19.770  -2.000  0.00  0.00     0.153 HD
ENDROOT
BRANCH   1   3
ATOM      3  N   UNL d   1      21.279 -18.981  -1.628  0.00  0.00    -0.281 N 
ATOM      4  C   UNL d   1      21.796 -17.738  -1.237  0.00  0.00     0.289 C 
ATOM      5  O   UNL d   1      21.031 -16.825  -0.895  0.00  0.00    -0.264 OA
ATOM      6  H   UNL d   1      21.890 -19.783  -1.744  0.00  0.00     0.184 HD
BRANCH   4   7
ATOM      7  C   UNL d   1      23.242 -17.585  -1.153  0.00  0.00     0.143 A 
ATOM      8  C   UNL d   1      24.157 -18.395  -0.497  0.00  0.00     0.045 A 
ATOM      9  C   UNL d   1      25.436 -17.823  -0.667  0.00  0.00     0.027 A 
ATOM     10  C   UNL d   1      25.232 -16.660  -1.372  0.00  0.00     0.143 A 
ATOM     11  O   UNL d   1      23.912 -16.516  -1.702  0.00  0.00    -0.317 OA
ENDBRANCH   4   7
ENDBRANCH   1   3
BRANCH   1  12
ATOM     12  C   UNL d   1      19.666 -19.699   0.046  0.00  0.00     0.069 A 
ATOM     13  C   UNL d   1      20.545 -19.353   1.085  0.00  0.00     0.031 A 
ATOM     14  C   UNL d   1      20.280 -19.720   2.413  0.00  0.00     0.047 A 
ATOM     15  C   UNL d   1      19.137 -20.451   2.716  0.00  0.00     0.158 A 
ATOM     16  F   UNL d   1      18.885 -20.778   3.991  0.00  0.00    -0.203 F 
ATOM     17  C   UNL d   1      18.264 -20.827   1.706  0.00  0.00     0.195 A 
ATOM     18  F   UNL d   1      17.168 -21.541   2.009  0.00  0.00    -0.199 F 
ATOM     19  C   UNL d   1      18.525 -20.456   0.384  0.00  0.00     0.180 A 
ATOM     20  F   UNL d   1      17.661 -20.825  -0.575  0.00  0.00    -0.201 F 
ENDBRANCH   1  12
TORSDOF 3
ENDMDL
MODEL 2
REMARK VINA RESULT:   -27.064      1.491      2.107
REMARK INTER + INTRA:         -28.398
REMARK INTER:                 -27.959
REMARK INTRA:                  -0.439
REMARK CONF_INDEPENDENT:        0.895
REMARK UNBOUND:                -0.439
REMARK  3 active torsions:
REMARK  status: ('A' for Active; 'I' for Inactive)
REMARK       I    between atoms: C_2  and  N_3 
REMARK    1  A    between atoms: C_2  and  C_14 
REMARK    2  A    between atoms: N_3  and  N_4 
REMARK    3  A    between atoms: N_4  and  C_5 
ROOT
ATOM      1  N   UNL d   1      19.904 -18.575  -1.269  0.00  0.00    -0.200 NA
ATOM      2  H   UNL d   1      20.003 -19.021  -2.190  0.00  0.00     0.153 HD
ENDROOT
BRANCH   1   3
ATOM      3  N   UNL d   1      21.049 -17.751  -0.979  0.00  0.00    -0.281 N 
ATOM      4  C   UNL d   1      22.271 -18.429  -0.875  0.00  0.00     0.289 C 
ATOM      5  O   UNL d   1      22.291 -19.660  -0.735  0.00  0.00    -0.264 OA
ATOM      6  H   UNL d   1      21.020 -16.777  -1.262  0.00  0.00     0.184 HD
BRANCH   4   7
ATOM      7  C   UNL d   1      23.502 -17.666  -1.030  0.00  0.00     0.143 A 
ATOM      8  C   UNL d   1      24.785 -18.012  -0.632  0.00  0.00     0.045 A 
ATOM      9  C   UNL d   1      25.641 -16.939  -0.962  0.00  0.00     0.027 A 
ATOM     10  C   UNL d   1      24.828 -15.966  -1.495  0.00  0.00     0.143 A 
ATOM     11  O   UNL d   1      23.533 -16.403  -1.572  0.00  0.00    -0.317 OA
ENDBRANCH   4   7
ENDBRANCH   1   3
BRANCH   1  12
ATOM     12  C   UNL d   1      19.484 -19.463  -0.246  0.00  0.00     0.069 A 
ATOM     13  C   UNL d   1      18.483 -20.413  -0.511  0.00  0.00     0.031 A 
ATOM     14  C   UNL d   1      18.120 -21.372   0.446  0.00  0.00     0.047 A 
ATOM     15  C   UNL d   1      18.746 -21.386   1.687  0.00  0.00     0.158 A 
ATOM     16  F   UNL d   1      18.404 -22.320   2.586  0.00  0.00    -0.203 F 
ATOM     17  C   UNL d   1      19.720 -20.444   1.986  0.00  0.00     0.195 A 
ATOM     18  F   UNL d   1      20.310 -20.460   3.191  0.00  0.00    -0.199 F 
ATOM     19  C   UNL d   1      20.085 -19.492   1.029  0.00  0.00     0.180 A 
ATOM     20  F   UNL d   1      21.036 -18.596   1.339  0.00  0.00    -0.201 F 
ENDBRANCH   1  12
TORSDOF 3
ENDMDL
