MODEL 1
REMARK VINA RESULT:    -8.532      0.000      0.000
REMARK INTER + INTRA:          -9.863
REMARK INTER:                  -9.426
REMARK INTRA:                  -0.437
REMARK CONF_INDEPENDENT:        0.895
REMARK UNBOUND:                -0.437
REMARK  3 active torsions:
REMARK  status: ('A' for Active; 'I' for Inactive)
REMARK    1  A    between atoms: C_5  and  C_6 
REMARK       I    between atoms: C_6  and  N_8 
REMARK    2  A    between atoms: N_8  and  C_9 
REMARK    3  A    between atoms: C_12  and  C_13 
REMARK       I    between atoms: C_13  and  N_14 
ROOT
ATOM      1  C   UNL d   1      24.046 -18.072  -0.502  0.00  0.00     0.256 C 
ATOM      2  O   UNL d   1      24.402 -19.198  -0.159  0.00  0.00    -0.267 OA
ATOM      3  N   UNL d   1      22.714 -17.695  -0.645  0.00  0.00    -0.323 N 
ATOM      4  H   UNL d   1      22.478 -16.838  -1.121  0.00  0.00     0.169 HD
ENDROOT
BRANCH   3   5
ATOM      5  C   UNL d   1      21.628 -18.540  -0.309  0.00  0.00     0.035 A 
ATOM      6  C   UNL d   1      20.719 -18.925  -1.298  0.00  0.00     0.030 A 
ATOM      7  C   UNL d   1      19.600 -19.709  -0.973  0.00  0.00     0.019 A 
ATOM      8  C   UNL d   1      19.397 -20.156   0.339  0.00  0.00     0.032 A 
ATOM      9  C   UNL d   1      20.296 -19.744   1.332  0.00  0.00     0.019 A 
ATOM     10  C   UNL d   1      21.404 -18.949   1.007  0.00  0.00     0.030 A 
BRANCH   8  11
ATOM     11  C   UNL d   1      18.297 -21.097   0.714  0.00  0.00     0.249 C 
ATOM     12  N   UNL d   1      17.244 -21.252  -0.145  0.00  0.00    -0.366 N 
ATOM     13  H   UNL d   1      17.152 -20.802  -1.041  0.00  0.00     0.159 HD
ATOM     14  H   UNL d   1      16.542 -21.937   0.106  0.00  0.00     0.159 HD
ATOM     15  O   UNL d   1      18.336 -21.752   1.755  0.00  0.00    -0.268 OA
ENDBRANCH   8  11
ENDBRANCH   3   5
BRANCH   1  16
ATOM     16  C   UNL d   1      25.119 -17.077  -0.847  0.00  0.00     0.033 A 
ATOM     17  C   UNL d   1      26.344 -16.986  -0.179  0.00  0.00     0.017 A 
ATOM     18  C   UNL d   1      27.288 -16.021  -0.559  0.00  0.00     0.009 A 
ATOM     19  C   UNL d   1      27.040 -15.131  -1.615  0.00  0.00    -0.045 A 
ATOM     20  C   UNL d   1      28.082 -14.109  -1.981  0.00  0.00     0.049 C 
ATOM     21  C   UNL d   1      25.816 -15.230  -2.289  0.00  0.00     0.017 A 
ATOM     22  C   UNL d   1      24.871 -16.191  -1.910  0.00  0.00     0.036 A 
ATOM     23 BR   UNL d   1      25.375 -14.073  -3.733  0.00  0.00    -0.051 Br
ENDBRANCH   1  16
TORSDOF 3
ENDMDL
MODEL 2
REMARK VINA RESULT:    -8.153      3.531      8.383
REMARK INTER + INTRA:          -9.467
REMARK INTER:                  -9.048
REMARK INTRA:                  -0.419
REMARK CONF_INDEPENDENT:        0.895
REMARK UNBOUND:                -0.419
REMARK  3 active torsions:
REMARK  status: ('A' for Active; 'I' for Inactive)
REMARK    1  A    between atoms: C_5  and  C_6 
REMARK       I    between atoms: C_6  and  N_8 
REMARK    2  A    between atoms: N_8  and  C_9 
REMARK    3  A    between atoms: C_12  and  C_13 
REMARK       I    between atoms: C_13  and  N_14 
ROOT
ATOM      1  C   UNL d   1      22.744 -17.830  -0.384  0.00  0.00     0.256 C 
ATOM      2  O   UNL d   1      22.633 -16.610  -0.488  0.00  0.00    -0.267 OA
ATOM      3  N   UNL d   1      23.965 -18.497  -0.420  0.00  0.00    -0.323 N 
ATOM      4  H   UNL d   1      23.992 -19.498  -0.538  0.00  0.00     0.169 HD
ENDROOT
BRANCH   3   5
ATOM      5  C   UNL d   1      25.213 -17.831  -0.474  0.00  0.00     0.035 A 
ATOM      6  C   UNL d   1      26.184 -18.103   0.494  0.00  0.00     0.030 A 
ATOM      7  C   UNL d   1      27.404 -17.405   0.497  0.00  0.00     0.019 A 
ATOM      8  C   UNL d   1      27.688 -16.457  -0.495  0.00  0.00     0.032 A 
ATOM      9  C   UNL d   1      26.699 -16.168  -1.445  0.00  0.00     0.019 A 
ATOM     10  C   UNL d   1      25.477 -16.856  -1.437  0.00  0.00     0.030 A 
BRANCH   8  11
ATOM     11  C   UNL d   1      29.017 -15.783  -0.614  0.00  0.00     0.249 C 
ATOM     12  N   UNL d   1      29.895 -15.873   0.429  0.00  0.00    -0.366 N 
ATOM     13  H   UNL d   1      29.739 -16.389   1.280  0.00  0.00     0.159 HD
ATOM     14  H   UNL d   1      30.809 -15.457   0.299  0.00  0.00     0.159 HD
ATOM     15  O   UNL d   1      29.343 -15.179  -1.635  0.00  0.00    -0.268 OA
ENDBRANCH   8  11
ENDBRANCH   3   5
BRANCH   1  16
ATOM     16  C   UNL d   1      21.481 -18.638  -0.282  0.00  0.00     0.033 A 
ATOM     17  C   UNL d   1      20.660 -18.946  -1.371  0.00  0.00     0.017 A 
ATOM     18  C   UNL d   1      19.492 -19.700  -1.185  0.00  0.00     0.009 A 
ATOM     19  C   UNL d   1      19.117 -20.169   0.082  0.00  0.00    -0.045 A 
ATOM     20  C   UNL d   1      17.850 -20.968   0.230  0.00  0.00     0.049 C 
ATOM     21  C   UNL d   1      19.945 -19.867   1.171  0.00  0.00     0.017 A 
ATOM     22  C   UNL d   1      21.111 -19.113   0.989  0.00  0.00     0.036 A 
ATOM     23 BR   UNL d   1      19.530 -20.450   2.933  0.00  0.00    -0.051 Br
ENDBRANCH   1  16
TORSDOF 3
ENDMDL
MODEL 3
REMARK VINA RESULT:    -7.767      1.448      1.791
REMARK INTER + INTRA:          -8.938
REMARK INTER:                  -8.662
REMARK INTRA:                  -0.276
REMARK CONF_INDEPENDENT:        0.895
REMARK UNBOUND:                -0.276
REMARK  3 active torsions:
REMARK  status: ('A' for Active; 'I' for Inactive)
REMARK    1  A    between atoms: C_5  and  C_6 
REMARK       I    between atoms: C_6  and  N_8 
REMARK    2  A    between atoms: N_8  and  C_9 
REMARK    3  A    between atoms: C_12  and  C_13 
REMARK       I    between atoms: C_13  and  N_14 
ROOT
ATOM      1  C   UNL d   1      23.701 -17.733  -0.369  0.00  0.00     0.256 C 
ATOM      2  O   UNL d   1      23.953 -18.152   0.759  0.00  0.00    -0.267 OA
ATOM      3  N   UNL d   1      22.512 -18.000  -1.041  0.00  0.00    -0.323 N 
ATOM      4  H   UNL d   1      22.434 -17.813  -2.029  0.00  0.00     0.169 HD
ENDROOT
BRANCH   3   5
ATOM      5  C   UNL d   1      21.426 -18.693  -0.452  0.00  0.00     0.035 A 
ATOM      6  C   UNL d   1      20.341 -19.079  -1.244  0.00  0.00     0.030 A 
ATOM      7  C   UNL d   1      19.226 -19.710  -0.668  0.00  0.00     0.019 A 
ATOM      8  C   UNL d   1      19.199 -20.004   0.701  0.00  0.00     0.032 A 
ATOM      9  C   UNL d   1      20.277 -19.589   1.495  0.00  0.00     0.019 A 
ATOM     10  C   UNL d   1      21.382 -18.947   0.920  0.00  0.00     0.030 A 
BRANCH   8  11
ATOM     11  C   UNL d   1      18.097 -20.787   1.340  0.00  0.00     0.249 C 
ATOM     12  N   UNL d   1      17.659 -21.926   0.724  0.00  0.00    -0.366 N 
ATOM     13  H   UNL d   1      18.037 -22.313  -0.126  0.00  0.00     0.159 HD
ATOM     14  H   UNL d   1      16.952 -22.468   1.207  0.00  0.00     0.159 HD
ATOM     15  O   UNL d   1      17.603 -20.446   2.414  0.00  0.00    -0.268 OA
ENDBRANCH   8  11
ENDBRANCH   3   5
BRANCH   1  16
ATOM     16  C   UNL d   1      24.770 -16.949  -1.076  0.00  0.00     0.033 A 
ATOM     17  C   UNL d   1      24.512 -15.951  -2.021  0.00  0.00     0.017 A 
ATOM     18  C   UNL d   1      25.572 -15.273  -2.642  0.00  0.00     0.009 A 
ATOM     19  C   UNL d   1      26.909 -15.565  -2.333  0.00  0.00    -0.045 A 
ATOM     20  C   UNL d   1      28.010 -14.814  -3.032  0.00  0.00     0.049 C 
ATOM     21  C   UNL d   1      27.165 -16.558  -1.380  0.00  0.00     0.017 A 
ATOM     22  C   UNL d   1      26.110 -17.238  -0.760  0.00  0.00     0.036 A 
ATOM     23 BR   UNL d   1      28.940 -17.036  -0.889  0.00  0.00    -0.051 Br
ENDBRANCH   1  16
TORSDOF 3
ENDMDL
MODEL 4
REMARK VINA RESULT:    -7.132      2.771      3.654
REMARK INTER + INTRA:          -8.284
REMARK INTER:                  -8.027
REMARK INTRA:                  -0.257
REMARK CONF_INDEPENDENT:        0.895
REMARK UNBOUND:                -0.257
REMARK  3 active torsions:
REMARK  status: ('A' for Active; 'I' for Inactive)
REMARK    1  A    between atoms: C_5  and  C_6 
REMARK       I    between atoms: C_6  and  N_8 
REMARK    2  A    between atoms: N_8  and  C_9 
REMARK    3  A    between atoms: C_12  and  C_13 
REMARK       I    between atoms: C_13  and  N_14 
ROOT
ATOM      1  C   UNL d   1      26.621 -17.278  -0.197  0.00  0.00     0.256 C 
ATOM      2  O   UNL d   1      26.675 -18.476   0.077  0.00  0.00    -0.267 OA
ATOM      3  N   UNL d   1      25.461 -16.638  -0.623  0.00  0.00    -0.323 N 
ATOM      4  H   UNL d   1      25.511 -15.715  -1.028  0.00  0.00     0.169 HD
ENDROOT
BRANCH   3   5
ATOM      5  C   UNL d   1      24.199 -17.277  -0.686  0.00  0.00     0.035 A 
ATOM      6  C   UNL d   1      23.047 -16.514  -0.894  0.00  0.00     0.030 A 
ATOM      7  C   UNL d   1      21.780 -17.120  -0.895  0.00  0.00     0.019 A 
ATOM      8  C   UNL d   1      21.650 -18.506  -0.732  0.00  0.00     0.032 A 
ATOM      9  C   UNL d   1      22.806 -19.262  -0.496  0.00  0.00     0.019 A 
ATOM     10  C   UNL d   1      24.068 -18.652  -0.481  0.00  0.00     0.030 A 
BRANCH   8  11
ATOM     11  C   UNL d   1      20.341 -19.217  -0.854  0.00  0.00     0.249 C 
ATOM     12  N   UNL d   1      19.192 -18.476  -0.895  0.00  0.00    -0.366 N 
ATOM     13  H   UNL d   1      19.146 -17.470  -0.880  0.00  0.00     0.159 HD
ATOM     14  H   UNL d   1      18.325 -18.979  -1.036  0.00  0.00     0.159 HD
ATOM     15  O   UNL d   1      20.279 -20.443  -0.947  0.00  0.00    -0.268 OA
ENDBRANCH   8  11
ENDBRANCH   3   5
BRANCH   1  16
ATOM     16  C   UNL d   1      27.898 -16.489  -0.126  0.00  0.00     0.033 A 
ATOM     17  C   UNL d   1      28.947 -16.617  -1.041  0.00  0.00     0.017 A 
ATOM     18  C   UNL d   1      30.111 -15.848  -0.896  0.00  0.00     0.009 A 
ATOM     19  C   UNL d   1      30.255 -14.930   0.154  0.00  0.00    -0.045 A 
ATOM     20  C   UNL d   1      31.526 -14.132   0.270  0.00  0.00     0.049 C 
ATOM     21  C   UNL d   1      29.200 -14.796   1.065  0.00  0.00     0.017 A 
ATOM     22  C   UNL d   1      28.038 -15.564   0.924  0.00  0.00     0.036 A 
ATOM     23 BR   UNL d   1      29.291 -13.584   2.528  0.00  0.00    -0.051 Br
ENDBRANCH   1  16
TORSDOF 3
ENDMDL
MODEL 5
REMARK VINA RESULT:    -6.969      5.753      9.514
REMARK INTER + INTRA:          -8.267
REMARK INTER:                  -7.864
REMARK INTRA:                  -0.403
REMARK CONF_INDEPENDENT:        0.895
REMARK UNBOUND:                -0.403
REMARK  3 active torsions:
REMARK  status: ('A' for Active; 'I' for Inactive)
REMARK    1  A    between atoms: C_5  and  C_6 
REMARK       I    between atoms: C_6  and  N_8 
REMARK    2  A    between atoms: N_8  and  C_9 
REMARK    3  A    between atoms: C_12  and  C_13 
REMARK       I    between atoms: C_13  and  N_14 
ROOT
ATOM      1  C   UNL d   1      25.500 -14.114  -3.326  0.00  0.00     0.256 C 
ATOM      2  O   UNL d   1      24.744 -14.359  -4.264  0.00  0.00    -0.267 OA
ATOM      3  N   UNL d   1      26.102 -12.875  -3.126  0.00  0.00    -0.323 N 
ATOM      4  H   UNL d   1      26.864 -12.782  -2.472  0.00  0.00     0.169 HD
ENDROOT
BRANCH   3   5
ATOM      5  C   UNL d   1      25.823 -11.738  -3.922  0.00  0.00     0.035 A 
ATOM      6  C   UNL d   1      25.901 -11.833  -5.314  0.00  0.00     0.030 A 
ATOM      7  C   UNL d   1      25.692 -10.701  -6.120  0.00  0.00     0.019 A 
ATOM      8  C   UNL d   1      25.356  -9.468  -5.546  0.00  0.00     0.032 A 
ATOM      9  C   UNL d   1      25.307  -9.372  -4.149  0.00  0.00     0.019 A 
ATOM     10  C   UNL d   1      25.531 -10.500  -3.347  0.00  0.00     0.030 A 
BRANCH   8  11
ATOM     11  C   UNL d   1      24.996  -8.267  -6.360  0.00  0.00     0.249 C 
ATOM     12  N   UNL d   1      23.675  -7.953  -6.519  0.00  0.00    -0.366 N 
ATOM     13  H   UNL d   1      22.903  -8.451  -6.105  0.00  0.00     0.159 HD
ATOM     14  H   UNL d   1      23.461  -7.103  -7.027  0.00  0.00     0.159 HD
ATOM     15  O   UNL d   1      25.858  -7.545  -6.860  0.00  0.00    -0.268 OA
ENDBRANCH   8  11
ENDBRANCH   3   5
BRANCH   1  16
ATOM     16  C   UNL d   1      25.837 -15.241  -2.391  0.00  0.00     0.033 A 
ATOM     17  C   UNL d   1      27.131 -15.529  -1.947  0.00  0.00     0.017 A 
ATOM     18  C   UNL d   1      27.359 -16.608  -1.080  0.00  0.00     0.009 A 
ATOM     19  C   UNL d   1      26.308 -17.419  -0.630  0.00  0.00    -0.045 A 
ATOM     20  C   UNL d   1      26.605 -18.569   0.294  0.00  0.00     0.049 C 
ATOM     21  C   UNL d   1      25.011 -17.125  -1.068  0.00  0.00     0.017 A 
ATOM     22  C   UNL d   1      24.780 -16.050  -1.935  0.00  0.00     0.036 A 
ATOM     23 BR   UNL d   1      23.513 -18.162  -0.522  0.00  0.00    -0.051 Br
ENDBRANCH   1  16
TORSDOF 3
ENDMDL
MODEL 6
REMARK VINA RESULT:    -6.957      6.553      8.468
REMARK INTER + INTRA:          -8.278
REMARK INTER:                  -7.852
REMARK INTRA:                  -0.426
REMARK CONF_INDEPENDENT:        0.895
REMARK UNBOUND:                -0.426
REMARK  3 active torsions:
REMARK  status: ('A' for Active; 'I' for Inactive)
REMARK    1  A    between atoms: C_5  and  C_6 
REMARK       I    between atoms: C_6  and  N_8 
REMARK    2  A    between atoms: N_8  and  C_9 
REMARK    3  A    between atoms: C_12  and  C_13 
REMARK       I    between atoms: C_13  and  N_14 
ROOT
ATOM      1  C   UNL d   1      27.088 -13.531   2.356  0.00  0.00     0.256 C 
ATOM      2  O   UNL d   1      26.286 -12.618   2.166  0.00  0.00    -0.267 OA
ATOM      3  N   UNL d   1      27.386 -14.504   1.407  0.00  0.00    -0.323 N 
ATOM      4  H   UNL d   1      27.884 -15.338   1.675  0.00  0.00     0.169 HD
ENDROOT
BRANCH   3   5
ATOM      5  C   UNL d   1      26.875 -14.483   0.086  0.00  0.00     0.035 A 
ATOM      6  C   UNL d   1      27.027 -13.334  -0.695  0.00  0.00     0.030 A 
ATOM      7  C   UNL d   1      26.471 -13.269  -1.984  0.00  0.00     0.019 A 
ATOM      8  C   UNL d   1      25.793 -14.369  -2.527  0.00  0.00     0.032 A 
ATOM      9  C   UNL d   1      25.620 -15.507  -1.728  0.00  0.00     0.019 A 
ATOM     10  C   UNL d   1      26.163 -15.564  -0.437  0.00  0.00     0.030 A 
BRANCH   8  11
ATOM     11  C   UNL d   1      25.297 -14.400  -3.937  0.00  0.00     0.249 C 
ATOM     12  N   UNL d   1      24.598 -13.325  -4.411  0.00  0.00    -0.366 N 
ATOM     13  H   UNL d   1      24.405 -12.481  -3.895  0.00  0.00     0.159 HD
ATOM     14  H   UNL d   1      24.324 -13.348  -5.386  0.00  0.00     0.159 HD
ATOM     15  O   UNL d   1      25.530 -15.352  -4.681  0.00  0.00    -0.268 OA
ENDBRANCH   8  11
ENDBRANCH   3   5
BRANCH   1  16
ATOM     16  C   UNL d   1      27.723 -13.628   3.715  0.00  0.00     0.033 A 
ATOM     17  C   UNL d   1      28.056 -14.834   4.337  0.00  0.00     0.017 A 
ATOM     18  C   UNL d   1      28.639 -14.836   5.613  0.00  0.00     0.009 A 
ATOM     19  C   UNL d   1      28.910 -13.640   6.295  0.00  0.00    -0.045 A 
ATOM     20  C   UNL d   1      29.530 -13.694   7.665  0.00  0.00     0.049 C 
ATOM     21  C   UNL d   1      28.584 -12.432   5.666  0.00  0.00     0.017 A 
ATOM     22  C   UNL d   1      28.000 -12.427   4.394  0.00  0.00     0.036 A 
ATOM     23 BR   UNL d   1      28.905 -10.753   6.501  0.00  0.00    -0.051 Br
ENDBRANCH   1  16
TORSDOF 3
ENDMDL
MODEL 7
REMARK VINA RESULT:    -6.861      3.355      8.250
REMARK INTER + INTRA:          -8.201
REMARK INTER:                  -7.756
REMARK INTRA:                  -0.445
REMARK CONF_INDEPENDENT:        0.895
REMARK UNBOUND:                -0.445
REMARK  3 active torsions:
REMARK  status: ('A' for Active; 'I' for Inactive)
REMARK    1  A    between atoms: C_5  and  C_6 
REMARK       I    between atoms: C_6  and  N_8 
REMARK    2  A    between atoms: N_8  and  C_9 
REMARK    3  A    between atoms: C_12  and  C_13 
REMARK       I    between atoms: C_13  and  N_14 
ROOT
ATOM      1  C   UNL d   1      22.225 -18.649  -0.913  0.00  0.00     0.256 C 
ATOM      2  O   UNL d   1      22.613 -19.009  -2.022  0.00  0.00    -0.267 OA
ATOM      3  N   UNL d   1      22.894 -17.711  -0.131  0.00  0.00    -0.323 N 
ATOM      4  H   UNL d   1      22.657 -17.602   0.843  0.00  0.00     0.169 HD
ENDROOT
BRANCH   3   5
ATOM      5  C   UNL d   1      24.033 -16.998  -0.578  0.00  0.00     0.035 A 
ATOM      6  C   UNL d   1      23.882 -15.969  -1.510  0.00  0.00     0.030 A 
ATOM      7  C   UNL d   1      25.006 -15.293  -2.015  0.00  0.00     0.019 A 
ATOM      8  C   UNL d   1      26.293 -15.607  -1.560  0.00  0.00     0.032 A 
ATOM      9  C   UNL d   1      26.440 -16.659  -0.646  0.00  0.00     0.019 A 
ATOM     10  C   UNL d   1      25.319 -17.341  -0.155  0.00  0.00     0.030 A 
BRANCH   8  11
ATOM     11  C   UNL d   1      27.507 -14.833  -1.965  0.00  0.00     0.249 C 
ATOM     12  N   UNL d   1      27.778 -14.687  -3.297  0.00  0.00    -0.366 N 
ATOM     13  H   UNL d   1      27.208 -15.036  -4.050  0.00  0.00     0.159 HD
ATOM     14  H   UNL d   1      28.573 -14.110  -3.545  0.00  0.00     0.159 HD
ATOM     15  O   UNL d   1      28.242 -14.305  -1.132  0.00  0.00    -0.268 OA
ENDBRANCH   8  11
ENDBRANCH   3   5
BRANCH   1  16
ATOM     16  C   UNL d   1      20.999 -19.313  -0.354  0.00  0.00     0.033 A 
ATOM     17  C   UNL d   1      19.899 -19.699  -1.125  0.00  0.00     0.017 A 
ATOM     18  C   UNL d   1      18.788 -20.306  -0.521  0.00  0.00     0.009 A 
ATOM     19  C   UNL d   1      18.748 -20.550   0.860  0.00  0.00    -0.045 A 
ATOM     20  C   UNL d   1      17.531 -21.198   1.462  0.00  0.00     0.049 C 
ATOM     21  C   UNL d   1      19.855 -20.171   1.630  0.00  0.00     0.017 A 
ATOM     22  C   UNL d   1      20.964 -19.563   1.030  0.00  0.00     0.036 A 
ATOM     23 BR   UNL d   1      19.905 -20.452   3.511  0.00  0.00    -0.051 Br
ENDBRANCH   1  16
TORSDOF 3
ENDMDL
MODEL 8
REMARK VINA RESULT:    -6.777      2.410      3.536
REMARK INTER + INTRA:          -8.102
REMARK INTER:                  -7.672
REMARK INTRA:                  -0.429
REMARK CONF_INDEPENDENT:        0.895
REMARK UNBOUND:                -0.429
REMARK  3 active torsions:
REMARK  status: ('A' for Active; 'I' for Inactive)
REMARK    1  A    between atoms: C_5  and  C_6 
REMARK       I    between atoms: C_6  and  N_8 
REMARK    2  A    between atoms: N_8  and  C_9 
REMARK    3  A    between atoms: C_12  and  C_13 
REMARK       I    between atoms: C_13  and  N_14 
ROOT
ATOM      1  C   UNL d   1      25.582 -15.337  -1.895  0.00  0.00     0.256 C 
ATOM      2  O   UNL d   1      24.865 -15.280  -2.893  0.00  0.00    -0.267 OA
ATOM      3  N   UNL d   1      25.279 -16.105  -0.775  0.00  0.00    -0.323 N 
ATOM      4  H   UNL d   1      25.782 -15.963   0.088  0.00  0.00     0.169 HD
ENDROOT
BRANCH   3   5
ATOM      5  C   UNL d   1      24.169 -16.982  -0.710  0.00  0.00     0.035 A 
ATOM      6  C   UNL d   1      24.378 -18.350  -0.522  0.00  0.00     0.030 A 
ATOM      7  C   UNL d   1      23.295 -19.245  -0.520  0.00  0.00     0.019 A 
ATOM      8  C   UNL d   1      21.981 -18.777  -0.662  0.00  0.00     0.032 A 
ATOM      9  C   UNL d   1      21.780 -17.407  -0.879  0.00  0.00     0.019 A 
ATOM     10  C   UNL d   1      22.865 -16.519  -0.895  0.00  0.00     0.030 A 
BRANCH   8  11
ATOM     11  C   UNL d   1      20.787 -19.667  -0.537  0.00  0.00     0.249 C 
ATOM     12  N   UNL d   1      20.654 -20.434   0.587  0.00  0.00    -0.366 N 
ATOM     13  H   UNL d   1      21.286 -20.434   1.371  0.00  0.00     0.159 HD
ATOM     14  H   UNL d   1      19.807 -20.984   0.672  0.00  0.00     0.159 HD
ATOM     15  O   UNL d   1      19.915 -19.700  -1.405  0.00  0.00    -0.268 OA
ENDBRANCH   8  11
ENDBRANCH   3   5
BRANCH   1  16
ATOM     16  C   UNL d   1      26.812 -14.475  -1.870  0.00  0.00     0.033 A 
ATOM     17  C   UNL d   1      28.114 -14.974  -1.768  0.00  0.00     0.017 A 
ATOM     18  C   UNL d   1      29.209 -14.097  -1.743  0.00  0.00     0.009 A 
ATOM     19  C   UNL d   1      29.035 -12.708  -1.824  0.00  0.00    -0.045 A 
ATOM     20  C   UNL d   1      30.241 -11.808  -1.786  0.00  0.00     0.049 C 
ATOM     21  C   UNL d   1      27.731 -12.210  -1.935  0.00  0.00     0.017 A 
ATOM     22  C   UNL d   1      26.636 -13.082  -1.959  0.00  0.00     0.036 A 
ATOM     23 BR   UNL d   1      27.381 -10.343  -2.049  0.00  0.00    -0.051 Br
ENDBRANCH   1  16
TORSDOF 3
ENDMDL
MODEL 9
REMARK VINA RESULT:    -6.398      6.444      9.312
REMARK INTER + INTRA:          -7.693
REMARK INTER:                  -7.293
REMARK INTRA:                  -0.400
REMARK CONF_INDEPENDENT:        0.895
REMARK UNBOUND:                -0.400
REMARK  3 active torsions:
REMARK  status: ('A' for Active; 'I' for Inactive)
REMARK    1  A    between atoms: C_5  and  C_6 
REMARK       I    between atoms: C_6  and  N_8 
REMARK    2  A    between atoms: N_8  and  C_9 
REMARK    3  A    between atoms: C_12  and  C_13 
REMARK       I    between atoms: C_13  and  N_14 
ROOT
ATOM      1  C   UNL d   1      27.413 -13.722   1.770  0.00  0.00     0.256 C 
ATOM      2  O   UNL d   1      27.283 -12.530   2.043  0.00  0.00    -0.267 OA
ATOM      3  N   UNL d   1      27.925 -14.664   2.658  0.00  0.00    -0.323 N 
ATOM      4  H   UNL d   1      28.202 -15.575   2.326  0.00  0.00     0.169 HD
ENDROOT
BRANCH   3   5
ATOM      5  C   UNL d   1      28.250 -14.366   4.004  0.00  0.00     0.035 A 
ATOM      6  C   UNL d   1      27.405 -13.543   4.753  0.00  0.00     0.030 A 
ATOM      7  C   UNL d   1      27.742 -13.182   6.068  0.00  0.00     0.019 A 
ATOM      8  C   UNL d   1      28.908 -13.677   6.669  0.00  0.00     0.032 A 
ATOM      9  C   UNL d   1      29.764 -14.479   5.903  0.00  0.00     0.019 A 
ATOM     10  C   UNL d   1      29.433 -14.825   4.586  0.00  0.00     0.030 A 
BRANCH   8  11
ATOM     11  C   UNL d   1      29.247 -13.432   8.104  0.00  0.00     0.249 C 
ATOM     12  N   UNL d   1      29.798 -14.449   8.832  0.00  0.00    -0.366 N 
ATOM     13  H   UNL d   1      30.029 -15.363   8.476  0.00  0.00     0.159 HD
ATOM     14  H   UNL d   1      30.071 -14.239   9.785  0.00  0.00     0.159 HD
ATOM     15  O   UNL d   1      29.069 -12.333   8.629  0.00  0.00    -0.268 OA
ENDBRANCH   8  11
ENDBRANCH   3   5
BRANCH   1  16
ATOM     16  C   UNL d   1      27.060 -14.160   0.376  0.00  0.00     0.033 A 
ATOM     17  C   UNL d   1      27.464 -13.487  -0.780  0.00  0.00     0.017 A 
ATOM     18  C   UNL d   1      27.082 -13.960  -2.045  0.00  0.00     0.009 A 
ATOM     19  C   UNL d   1      26.296 -15.112  -2.188  0.00  0.00    -0.045 A 
ATOM     20  C   UNL d   1      25.906 -15.575  -3.566  0.00  0.00     0.049 C 
ATOM     21  C   UNL d   1      25.899 -15.790  -1.029  0.00  0.00     0.017 A 
ATOM     22  C   UNL d   1      26.277 -15.320   0.234  0.00  0.00     0.036 A 
ATOM     23 BR   UNL d   1      24.830 -17.362  -1.108  0.00  0.00    -0.051 Br
ENDBRANCH   1  16
TORSDOF 3
ENDMDL
