MODEL 1
REMARK VINA RESULT:   -31.630      0.000      0.000
REMARK INTER + INTRA:         -35.124
REMARK INTER:                 -34.016
REMARK INTRA:                  -1.108
REMARK CONF_INDEPENDENT:        2.386
REMARK UNBOUND:                -1.108
REMARK  8 active torsions:
REMARK  status: ('A' for Active; 'I' for Inactive)
REMARK    1  A    between atoms: C_2  and  O_3 
REMARK    2  A    between atoms: O_3  and  C_4 
REMARK    3  A    between atoms: C_9  and  N_10 
REMARK    4  A    between atoms: C_14  and  O_15 
REMARK    5  A    between atoms: C_16  and  C_17 
REMARK    6  A    between atoms: N_18  and  C_19 
REMARK    7  A    between atoms: C_19  and  C_20 
REMARK    8  A    between atoms: C_20  and  C_21 
ROOT
ATOM      1  N   UNL d   1      28.746 -14.442   0.681  0.00  0.00    -0.228 N 
ATOM      2  C   UNL d   1      29.967 -15.020   1.099  0.00  0.00     0.357 A 
ATOM      3  O   UNL d   1      30.679 -14.522   1.933  0.00  0.00    -0.244 OA
ATOM      4  N   UNL d   1      30.293 -16.251   0.550  0.00  0.00    -0.172 NA
ATOM      5  C   UNL d   1      29.465 -16.874  -0.185  0.00  0.00     0.161 A 
ATOM      6  C   UNL d   1      28.086 -16.464  -0.612  0.00  0.00     0.195 A 
ATOM      7  C   UNL d   1      27.804 -15.054  -0.150  0.00  0.00     0.249 A 
ATOM      8  O   UNL d   1      26.755 -14.505  -0.501  0.00  0.00    -0.271 OA
ENDROOT
BRANCH   6   9
ATOM      9  C   UNL d   1      26.971 -17.501  -0.188  0.00  0.00     0.105 C 
ATOM     10  N   UNL d   1      25.719 -17.471  -0.573  0.00  0.00    -0.304 NA
BRANCH  10  11
ATOM     11  C   UNL d   1      24.650 -18.544  -0.116  0.00  0.00     0.149 C 
BRANCH  11  12
ATOM     12  C   UNL d   1      23.006 -18.085  -0.669  0.00  0.00     0.039 C 
BRANCH  12  13
ATOM     13  C   UNL d   1      21.366 -18.570  -0.060  0.00  0.00     0.021 C 
ATOM     14  C   UNL d   1      21.165 -19.649  -0.900  0.00  0.00     0.093 C 
ATOM     15  N   UNL d   1      19.865 -19.325  -1.187  0.00  0.00    -0.285 NA
ATOM     16  C   UNL d   1      19.231 -19.819  -0.089  0.00  0.00     0.015 A 
ATOM     17  H   UNL d   1      19.559 -18.409  -1.475  0.00  0.00     0.128 HD
ATOM     18  C   UNL d   1      18.100 -20.655  -0.140  0.00  0.00     0.024 A 
ATOM     19  C   UNL d   1      20.139 -19.433   0.930  0.00  0.00    -0.025 A 
ATOM     20  C   UNL d   1      17.655 -21.350   0.950  0.00  0.00     0.002 A 
ATOM     21  C   UNL d   1      18.423 -21.182   2.087  0.00  0.00     0.001 A 
ATOM     22  C   UNL d   1      19.643 -20.238   2.137  0.00  0.00     0.010 A 
ENDBRANCH  12  13
ENDBRANCH  11  12
ENDBRANCH  10  11
ENDBRANCH   6   9
BRANCH   5  23
ATOM     23  O   UNL d   1      29.848 -18.063  -0.682  0.00  0.00    -0.347 OA
ATOM     24  H   UNL d   1      29.824 -18.739   0.022  0.00  0.00     0.219 HD
ENDBRANCH   5  23
BRANCH   1  25
ATOM     25  C   UNL d   1      28.349 -13.242   1.355  0.00  0.00     0.080 A 
ATOM     26  C   UNL d   1      28.349 -12.040   0.625  0.00  0.00     0.033 A 
ATOM     27  C   UNL d   1      27.839 -10.867   1.181  0.00  0.00     0.002 A 
ATOM     28  C   UNL d   1      27.332 -10.880   2.477  0.00  0.00     0.003 A 
ATOM     29  C   UNL d   1      27.392 -12.051   3.238  0.00  0.00     0.039 A 
ATOM     30  C   UNL d   1      27.886 -13.242   2.688  0.00  0.00     0.096 A 
BRANCH  30  31
ATOM     31  O   UNL d   1      27.778 -14.329   3.518  0.00  0.00    -0.349 OA
BRANCH  31  32
ATOM     32  C   UNL d   1      27.875 -14.118   4.922  0.00  0.00     0.171 C 
ATOM     33  C   UNL d   1      29.154 -14.753   5.427  0.00  0.00     0.034 C 
ENDBRANCH  31  32
ENDBRANCH  30  31
ENDBRANCH   1  25
TORSDOF 8
ENDMDL
MODEL 2
REMARK VINA RESULT:   -31.368      3.886      6.135
REMARK INTER + INTRA:         -35.474
REMARK INTER:                 -33.754
REMARK INTRA:                  -1.720
REMARK CONF_INDEPENDENT:        2.386
REMARK UNBOUND:                -1.720
REMARK  8 active torsions:
REMARK  status: ('A' for Active; 'I' for Inactive)
REMARK    1  A    between atoms: C_2  and  O_3 
REMARK    2  A    between atoms: O_3  and  C_4 
REMARK    3  A    between atoms: C_9  and  N_10 
REMARK    4  A    between atoms: C_14  and  O_15 
REMARK    5  A    between atoms: C_16  and  C_17 
REMARK    6  A    between atoms: N_18  and  C_19 
REMARK    7  A    between atoms: C_19  and  C_20 
REMARK    8  A    between atoms: C_20  and  C_21 
ROOT
ATOM      1  N   UNL d   1      28.624 -15.204  -4.025  0.00  0.00    -0.228 N 
ATOM      2  C   UNL d   1      27.776 -15.175  -5.156  0.00  0.00     0.357 A 
ATOM      3  O   UNL d   1      28.147 -15.469  -6.263  0.00  0.00    -0.244 OA
ATOM      4  N   UNL d   1      26.447 -14.852  -4.929  0.00  0.00    -0.172 NA
ATOM      5  C   UNL d   1      26.003 -14.723  -3.745  0.00  0.00     0.161 A 
ATOM      6  C   UNL d   1      26.735 -14.854  -2.442  0.00  0.00     0.195 A 
ATOM      7  C   UNL d   1      28.211 -15.040  -2.699  0.00  0.00     0.249 A 
ATOM      8  O   UNL d   1      28.991 -15.060  -1.742  0.00  0.00    -0.271 OA
ENDROOT
BRANCH   6   9
ATOM      9  C   UNL d   1      26.118 -15.956  -1.491  0.00  0.00     0.105 C 
ATOM     10  N   UNL d   1      24.839 -16.143  -1.274  0.00  0.00    -0.304 NA
BRANCH  10  11
ATOM     11  C   UNL d   1      24.284 -17.270  -0.313  0.00  0.00     0.149 C 
BRANCH  11  12
ATOM     12  C   UNL d   1      22.841 -18.064  -1.026  0.00  0.00     0.039 C 
BRANCH  12  13
ATOM     13  C   UNL d   1      21.265 -18.563  -0.276  0.00  0.00     0.021 C 
ATOM     14  C   UNL d   1      20.998 -19.641  -1.099  0.00  0.00     0.093 C 
ATOM     15  N   UNL d   1      19.675 -19.325  -1.270  0.00  0.00    -0.285 NA
ATOM     16  C   UNL d   1      19.144 -19.827  -0.122  0.00  0.00     0.015 A 
ATOM     17  H   UNL d   1      19.339 -18.411  -1.526  0.00  0.00     0.128 HD
ATOM     18  C   UNL d   1      18.018 -20.672  -0.077  0.00  0.00     0.024 A 
ATOM     19  C   UNL d   1      20.136 -19.438   0.815  0.00  0.00    -0.025 A 
ATOM     20  C   UNL d   1      17.676 -21.373   1.046  0.00  0.00     0.002 A 
ATOM     21  C   UNL d   1      18.541 -21.203   2.112  0.00  0.00     0.001 A 
ATOM     22  C   UNL d   1      19.753 -20.251   2.058  0.00  0.00     0.010 A 
ENDBRANCH  12  13
ENDBRANCH  11  12
ENDBRANCH  10  11
ENDBRANCH   6   9
BRANCH   5  23
ATOM     23  O   UNL d   1      24.703 -14.410  -3.601  0.00  0.00    -0.347 OA
ATOM     24  H   UNL d   1      24.289 -15.008  -2.950  0.00  0.00     0.219 HD
ENDBRANCH   5  23
BRANCH   1  25
ATOM     25  C   UNL d   1      29.959 -15.674  -4.245  0.00  0.00     0.080 A 
ATOM     26  C   UNL d   1      30.280 -16.979  -3.833  0.00  0.00     0.033 A 
ATOM     27  C   UNL d   1      31.517 -17.543  -4.147  0.00  0.00     0.002 A 
ATOM     28  C   UNL d   1      32.451 -16.803  -4.866  0.00  0.00     0.003 A 
ATOM     29  C   UNL d   1      32.172 -15.480  -5.218  0.00  0.00     0.039 A 
ATOM     30  C   UNL d   1      30.927 -14.905  -4.926  0.00  0.00     0.096 A 
BRANCH  30  31
ATOM     31  O   UNL d   1      30.762 -13.640  -5.432  0.00  0.00    -0.349 OA
BRANCH  31  32
ATOM     32  C   UNL d   1      30.854 -13.461  -6.841  0.00  0.00     0.171 C 
ATOM     33  C   UNL d   1      29.468 -13.206  -7.396  0.00  0.00     0.034 C 
ENDBRANCH  31  32
ENDBRANCH  30  31
ENDBRANCH   1  25
TORSDOF 8
ENDMDL
MODEL 3
REMARK VINA RESULT:   -31.197      3.697      5.374
REMARK INTER + INTRA:         -35.153
REMARK INTER:                 -33.584
REMARK INTRA:                  -1.569
REMARK CONF_INDEPENDENT:        2.386
REMARK UNBOUND:                -1.569
REMARK  8 active torsions:
REMARK  status: ('A' for Active; 'I' for Inactive)
REMARK    1  A    between atoms: C_2  and  O_3 
REMARK    2  A    between atoms: O_3  and  C_4 
REMARK    3  A    between atoms: C_9  and  N_10 
REMARK    4  A    between atoms: C_14  and  O_15 
REMARK    5  A    between atoms: C_16  and  C_17 
REMARK    6  A    between atoms: N_18  and  C_19 
REMARK    7  A    between atoms: C_19  and  C_20 
REMARK    8  A    between atoms: C_20  and  C_21 
ROOT
ATOM      1  N   UNL d   1      28.624 -15.204  -4.025  0.00  0.00    -0.228 N 
ATOM      2  C   UNL d   1      27.776 -15.175  -5.156  0.00  0.00     0.357 A 
ATOM      3  O   UNL d   1      28.147 -15.469  -6.263  0.00  0.00    -0.244 OA
ATOM      4  N   UNL d   1      26.447 -14.852  -4.929  0.00  0.00    -0.172 NA
ATOM      5  C   UNL d   1      26.003 -14.723  -3.745  0.00  0.00     0.161 A 
ATOM      6  C   UNL d   1      26.735 -14.854  -2.442  0.00  0.00     0.195 A 
ATOM      7  C   UNL d   1      28.211 -15.040  -2.699  0.00  0.00     0.249 A 
ATOM      8  O   UNL d   1      28.991 -15.060  -1.742  0.00  0.00    -0.271 OA
ENDROOT
BRANCH   6   9
ATOM      9  C   UNL d   1      26.118 -15.956  -1.491  0.00  0.00     0.105 C 
ATOM     10  N   UNL d   1      24.839 -16.143  -1.274  0.00  0.00    -0.304 NA
BRANCH  10  11
ATOM     11  C   UNL d   1      24.284 -17.270  -0.313  0.00  0.00     0.149 C 
BRANCH  11  12
ATOM     12  C   UNL d   1      22.841 -18.064  -1.026  0.00  0.00     0.039 C 
BRANCH  12  13
ATOM     13  C   UNL d   1      21.265 -18.563  -0.276  0.00  0.00     0.021 C 
ATOM     14  C   UNL d   1      20.998 -19.641  -1.099  0.00  0.00     0.093 C 
ATOM     15  N   UNL d   1      19.675 -19.325  -1.270  0.00  0.00    -0.285 NA
ATOM     16  C   UNL d   1      19.144 -19.827  -0.122  0.00  0.00     0.015 A 
ATOM     17  H   UNL d   1      19.339 -18.411  -1.526  0.00  0.00     0.128 HD
ATOM     18  C   UNL d   1      18.018 -20.672  -0.077  0.00  0.00     0.024 A 
ATOM     19  C   UNL d   1      20.136 -19.438   0.815  0.00  0.00    -0.025 A 
ATOM     20  C   UNL d   1      17.676 -21.373   1.046  0.00  0.00     0.002 A 
ATOM     21  C   UNL d   1      18.541 -21.203   2.112  0.00  0.00     0.001 A 
ATOM     22  C   UNL d   1      19.753 -20.251   2.058  0.00  0.00     0.010 A 
ENDBRANCH  12  13
ENDBRANCH  11  12
ENDBRANCH  10  11
ENDBRANCH   6   9
BRANCH   5  23
ATOM     23  O   UNL d   1      24.703 -14.410  -3.601  0.00  0.00    -0.347 OA
ATOM     24  H   UNL d   1      24.289 -15.008  -2.950  0.00  0.00     0.219 HD
ENDBRANCH   5  23
BRANCH   1  25
ATOM     25  C   UNL d   1      29.959 -15.674  -4.245  0.00  0.00     0.080 A 
ATOM     26  C   UNL d   1      30.848 -14.841  -4.946  0.00  0.00     0.033 A 
ATOM     27  C   UNL d   1      32.197 -15.178  -5.067  0.00  0.00     0.002 A 
ATOM     28  C   UNL d   1      32.668 -16.357  -4.499  0.00  0.00     0.003 A 
ATOM     29  C   UNL d   1      31.781 -17.229  -3.862  0.00  0.00     0.039 A 
ATOM     30  C   UNL d   1      30.427 -16.896  -3.716  0.00  0.00     0.096 A 
BRANCH  30  31
ATOM     31  O   UNL d   1      29.706 -17.797  -2.973  0.00  0.00    -0.349 OA
BRANCH  31  32
ATOM     32  C   UNL d   1      29.650 -17.614  -1.562  0.00  0.00     0.171 C 
ATOM     33  C   UNL d   1      30.589 -18.601  -0.900  0.00  0.00     0.034 C 
ENDBRANCH  31  32
ENDBRANCH  30  31
ENDBRANCH   1  25
TORSDOF 8
ENDMDL
MODEL 4
REMARK VINA RESULT:   -31.194      2.804      4.495
REMARK INTER + INTRA:         -34.732
REMARK INTER:                 -33.581
REMARK INTRA:                  -1.151
REMARK CONF_INDEPENDENT:        2.386
REMARK UNBOUND:                -1.151
REMARK  8 active torsions:
REMARK  status: ('A' for Active; 'I' for Inactive)
REMARK    1  A    between atoms: C_2  and  O_3 
REMARK    2  A    between atoms: O_3  and  C_4 
REMARK    3  A    between atoms: C_9  and  N_10 
REMARK    4  A    between atoms: C_14  and  O_15 
REMARK    5  A    between atoms: C_16  and  C_17 
REMARK    6  A    between atoms: N_18  and  C_19 
REMARK    7  A    between atoms: C_19  and  C_20 
REMARK    8  A    between atoms: C_20  and  C_21 
ROOT
ATOM      1  N   UNL d   1      27.481 -14.043  -1.714  0.00  0.00    -0.228 N 
ATOM      2  C   UNL d   1      27.381 -13.084  -0.680  0.00  0.00     0.357 A 
ATOM      3  O   UNL d   1      27.085 -11.933  -0.877  0.00  0.00    -0.244 OA
ATOM      4  N   UNL d   1      27.576 -13.542   0.613  0.00  0.00    -0.172 NA
ATOM      5  C   UNL d   1      27.703 -14.784   0.851  0.00  0.00     0.161 A 
ATOM      6  C   UNL d   1      27.696 -15.935  -0.112  0.00  0.00     0.195 A 
ATOM      7  C   UNL d   1      27.652 -15.418  -1.530  0.00  0.00     0.249 A 
ATOM      8  O   UNL d   1      27.747 -16.219  -2.465  0.00  0.00    -0.271 OA
ENDROOT
BRANCH   6   9
ATOM      9  C   UNL d   1      26.574 -17.002   0.205  0.00  0.00     0.105 C 
ATOM     10  N   UNL d   1      25.760 -17.533  -0.674  0.00  0.00    -0.304 NA
BRANCH  10  11
ATOM     11  C   UNL d   1      24.659 -18.603  -0.293  0.00  0.00     0.149 C 
BRANCH  11  12
ATOM     12  C   UNL d   1      23.014 -17.982  -0.653  0.00  0.00     0.039 C 
BRANCH  12  13
ATOM     13  C   UNL d   1      21.384 -18.509  -0.050  0.00  0.00     0.021 C 
ATOM     14  C   UNL d   1      21.211 -19.589  -0.895  0.00  0.00     0.093 C 
ATOM     15  N   UNL d   1      19.905 -19.295  -1.185  0.00  0.00    -0.285 NA
ATOM     16  C   UNL d   1      19.280 -19.809  -0.091  0.00  0.00     0.015 A 
ATOM     17  H   UNL d   1      19.578 -18.386  -1.471  0.00  0.00     0.128 HD
ATOM     18  C   UNL d   1      18.169 -20.672  -0.149  0.00  0.00     0.024 A 
ATOM     19  C   UNL d   1      20.176 -19.405   0.933  0.00  0.00    -0.025 A 
ATOM     20  C   UNL d   1      17.738 -21.382   0.938  0.00  0.00     0.002 A 
ATOM     21  C   UNL d   1      18.499 -21.200   2.078  0.00  0.00     0.001 A 
ATOM     22  C   UNL d   1      19.695 -20.226   2.135  0.00  0.00     0.010 A 
ENDBRANCH  12  13
ENDBRANCH  11  12
ENDBRANCH  10  11
ENDBRANCH   6   9
BRANCH   5  23
ATOM     23  O   UNL d   1      27.888 -15.156   2.130  0.00  0.00    -0.347 OA
ATOM     24  H   UNL d   1      28.690 -15.707   2.202  0.00  0.00     0.219 HD
ENDBRANCH   5  23
BRANCH   1  25
ATOM     25  C   UNL d   1      27.141 -13.593  -3.032  0.00  0.00     0.080 A 
ATOM     26  C   UNL d   1      25.782 -13.551  -3.389  0.00  0.00     0.033 A 
ATOM     27  C   UNL d   1      25.380 -12.990  -4.601  0.00  0.00     0.002 A 
ATOM     28  C   UNL d   1      26.333 -12.476  -5.475  0.00  0.00     0.003 A 
ATOM     29  C   UNL d   1      27.691 -12.577  -5.164  0.00  0.00     0.039 A 
ATOM     30  C   UNL d   1      28.111 -13.122  -3.942  0.00  0.00     0.096 A 
BRANCH  30  31
ATOM     31  O   UNL d   1      29.466 -13.051  -3.733  0.00  0.00    -0.349 OA
BRANCH  31  32
ATOM     32  C   UNL d   1      30.258 -14.188  -4.057  0.00  0.00     0.171 C 
ATOM     33  C   UNL d   1      29.456 -15.105  -4.957  0.00  0.00     0.034 C 
ENDBRANCH  31  32
ENDBRANCH  30  31
ENDBRANCH   1  25
TORSDOF 8
ENDMDL
MODEL 5
REMARK VINA RESULT:   -31.082      2.918      4.916
REMARK INTER + INTRA:         -35.473
REMARK INTER:                 -33.469
REMARK INTRA:                  -2.004
REMARK CONF_INDEPENDENT:        2.386
REMARK UNBOUND:                -2.004
REMARK  8 active torsions:
REMARK  status: ('A' for Active; 'I' for Inactive)
REMARK    1  A    between atoms: C_2  and  O_3 
REMARK    2  A    between atoms: O_3  and  C_4 
REMARK    3  A    between atoms: C_9  and  N_10 
REMARK    4  A    between atoms: C_14  and  O_15 
REMARK    5  A    between atoms: C_16  and  C_17 
REMARK    6  A    between atoms: N_18  and  C_19 
REMARK    7  A    between atoms: C_19  and  C_20 
REMARK    8  A    between atoms: C_20  and  C_21 
ROOT
ATOM      1  N   UNL d   1      28.431 -14.856  -2.493  0.00  0.00    -0.228 N 
ATOM      2  C   UNL d   1      27.849 -13.772  -1.796  0.00  0.00     0.357 A 
ATOM      3  O   UNL d   1      27.621 -12.707  -2.309  0.00  0.00    -0.244 OA
ATOM      4  N   UNL d   1      27.476 -14.007  -0.482  0.00  0.00    -0.172 NA
ATOM      5  C   UNL d   1      27.538 -15.176   0.013  0.00  0.00     0.161 A 
ATOM      6  C   UNL d   1      28.000 -16.450  -0.631  0.00  0.00     0.195 A 
ATOM      7  C   UNL d   1      28.560 -16.158  -2.002  0.00  0.00     0.249 A 
ATOM      8  O   UNL d   1      29.088 -17.072  -2.643  0.00  0.00    -0.271 OA
ENDROOT
BRANCH   6   9
ATOM      9  C   UNL d   1      26.898 -17.583  -0.628  0.00  0.00     0.105 C 
ATOM     10  N   UNL d   1      25.687 -17.463  -0.143  0.00  0.00    -0.304 NA
BRANCH  10  11
ATOM     11  C   UNL d   1      24.625 -18.636  -0.176  0.00  0.00     0.149 C 
BRANCH  11  12
ATOM     12  C   UNL d   1      22.985 -18.003  -0.533  0.00  0.00     0.039 C 
BRANCH  12  13
ATOM     13  C   UNL d   1      21.346 -18.572   0.004  0.00  0.00     0.021 C 
ATOM     14  C   UNL d   1      21.207 -19.616  -0.892  0.00  0.00     0.093 C 
ATOM     15  N   UNL d   1      19.905 -19.323  -1.202  0.00  0.00    -0.285 NA
ATOM     16  C   UNL d   1      19.258 -19.890  -0.148  0.00  0.00     0.015 A 
ATOM     17  H   UNL d   1      19.575 -18.406  -1.456  0.00  0.00     0.128 HD
ATOM     18  C   UNL d   1      18.159 -20.761  -0.272  0.00  0.00     0.024 A 
ATOM     19  C   UNL d   1      20.123 -19.522   0.915  0.00  0.00    -0.025 A 
ATOM     20  C   UNL d   1      17.709 -21.522   0.771  0.00  0.00     0.002 A 
ATOM     21  C   UNL d   1      18.438 -21.382   1.937  0.00  0.00     0.001 A 
ATOM     22  C   UNL d   1      19.622 -20.401   2.068  0.00  0.00     0.010 A 
ENDBRANCH  12  13
ENDBRANCH  11  12
ENDBRANCH  10  11
ENDBRANCH   6   9
BRANCH   5  23
ATOM     23  O   UNL d   1      27.158 -15.329   1.294  0.00  0.00    -0.347 OA
ATOM     24  H   UNL d   1      26.391 -15.929   1.342  0.00  0.00     0.219 HD
ENDBRANCH   5  23
BRANCH   1  25
ATOM     25  C   UNL d   1      28.684 -14.650  -3.888  0.00  0.00     0.080 A 
ATOM     26  C   UNL d   1      29.969 -14.231  -4.274  0.00  0.00     0.033 A 
ATOM     27  C   UNL d   1      30.319 -14.152  -5.622  0.00  0.00     0.002 A 
ATOM     28  C   UNL d   1      29.384 -14.480  -6.600  0.00  0.00     0.003 A 
ATOM     29  C   UNL d   1      28.082 -14.828  -6.231  0.00  0.00     0.039 A 
ATOM     30  C   UNL d   1      27.720 -14.930  -4.880  0.00  0.00     0.096 A 
BRANCH  30  31
ATOM     31  O   UNL d   1      26.443 -15.389  -4.676  0.00  0.00    -0.349 OA
BRANCH  31  32
ATOM     32  C   UNL d   1      25.430 -14.443  -4.356  0.00  0.00     0.171 C 
ATOM     33  C   UNL d   1      24.939 -14.705  -2.947  0.00  0.00     0.034 C 
ENDBRANCH  31  32
ENDBRANCH  30  31
ENDBRANCH   1  25
TORSDOF 8
ENDMDL
MODEL 6
REMARK VINA RESULT:   -30.843      3.572      4.976
REMARK INTER + INTRA:         -34.761
REMARK INTER:                 -33.229
REMARK INTRA:                  -1.532
REMARK CONF_INDEPENDENT:        2.386
REMARK UNBOUND:                -1.532
REMARK  8 active torsions:
REMARK  status: ('A' for Active; 'I' for Inactive)
REMARK    1  A    between atoms: C_2  and  O_3 
REMARK    2  A    between atoms: O_3  and  C_4 
REMARK    3  A    between atoms: C_9  and  N_10 
REMARK    4  A    between atoms: C_14  and  O_15 
REMARK    5  A    between atoms: C_16  and  C_17 
REMARK    6  A    between atoms: N_18  and  C_19 
REMARK    7  A    between atoms: C_19  and  C_20 
REMARK    8  A    between atoms: C_20  and  C_21 
ROOT
ATOM      1  N   UNL d   1      27.267 -13.246  -3.093  0.00  0.00    -0.228 N 
ATOM      2  C   UNL d   1      28.445 -13.144  -2.318  0.00  0.00     0.357 A 
ATOM      3  O   UNL d   1      29.024 -12.104  -2.136  0.00  0.00    -0.244 OA
ATOM      4  N   UNL d   1      28.884 -14.304  -1.699  0.00  0.00    -0.172 NA
ATOM      5  C   UNL d   1      28.181 -15.363  -1.728  0.00  0.00     0.161 A 
ATOM      6  C   UNL d   1      26.854 -15.597  -2.387  0.00  0.00     0.195 A 
ATOM      7  C   UNL d   1      26.462 -14.384  -3.197  0.00  0.00     0.249 A 
ATOM      8  O   UNL d   1      25.447 -14.432  -3.899  0.00  0.00    -0.271 OA
ENDROOT
BRANCH   6   9
ATOM      9  C   UNL d   1      25.734 -16.069  -1.377  0.00  0.00     0.105 C 
ATOM     10  N   UNL d   1      25.692 -17.233  -0.777  0.00  0.00    -0.304 NA
BRANCH  10  11
ATOM     11  C   UNL d   1      24.544 -17.643   0.230  0.00  0.00     0.149 C 
BRANCH  11  12
ATOM     12  C   UNL d   1      23.053 -18.107  -0.656  0.00  0.00     0.039 C 
BRANCH  12  13
ATOM     13  C   UNL d   1      21.409 -18.585  -0.051  0.00  0.00     0.021 C 
ATOM     14  C   UNL d   1      21.202 -19.659  -0.897  0.00  0.00     0.093 C 
ATOM     15  N   UNL d   1      19.905 -19.325  -1.184  0.00  0.00    -0.285 NA
ATOM     16  C   UNL d   1      19.267 -19.821  -0.090  0.00  0.00     0.015 A 
ATOM     17  H   UNL d   1      19.605 -18.407  -1.468  0.00  0.00     0.128 HD
ATOM     18  C   UNL d   1      18.130 -20.650  -0.147  0.00  0.00     0.024 A 
ATOM     19  C   UNL d   1      20.176 -19.445   0.933  0.00  0.00    -0.025 A 
ATOM     20  C   UNL d   1      17.680 -21.348   0.939  0.00  0.00     0.002 A 
ATOM     21  C   UNL d   1      18.447 -21.190   2.079  0.00  0.00     0.001 A 
ATOM     22  C   UNL d   1      19.673 -20.254   2.135  0.00  0.00     0.010 A 
ENDBRANCH  12  13
ENDBRANCH  11  12
ENDBRANCH  10  11
ENDBRANCH   6   9
BRANCH   5  23
ATOM     23  O   UNL d   1      28.670 -16.450  -1.105  0.00  0.00    -0.347 OA
ATOM     24  H   UNL d   1      27.962 -16.885  -0.594  0.00  0.00     0.219 HD
ENDBRANCH   5  23
BRANCH   1  25
ATOM     25  C   UNL d   1      26.741 -12.019  -3.613  0.00  0.00     0.080 A 
ATOM     26  C   UNL d   1      26.462 -10.980  -2.708  0.00  0.00     0.033 A 
ATOM     27  C   UNL d   1      26.086  -9.717  -3.166  0.00  0.00     0.002 A 
ATOM     28  C   UNL d   1      25.973  -9.483  -4.533  0.00  0.00     0.003 A 
ATOM     29  C   UNL d   1      26.177 -10.526  -5.439  0.00  0.00     0.039 A 
ATOM     30  C   UNL d   1      26.573 -11.796  -4.997  0.00  0.00     0.096 A 
BRANCH  30  31
ATOM     31  O   UNL d   1      26.843 -12.683  -6.009  0.00  0.00    -0.349 OA
BRANCH  31  32
ATOM     32  C   UNL d   1      28.147 -13.247  -6.081  0.00  0.00     0.171 C 
ATOM     33  C   UNL d   1      28.578 -13.307  -7.532  0.00  0.00     0.034 C 
ENDBRANCH  31  32
ENDBRANCH  30  31
ENDBRANCH   1  25
TORSDOF 8
ENDMDL
MODEL 7
REMARK VINA RESULT:   -30.709      1.334      2.439
REMARK INTER + INTRA:         -34.756
REMARK INTER:                 -33.095
REMARK INTRA:                  -1.661
REMARK CONF_INDEPENDENT:        2.386
REMARK UNBOUND:                -1.661
REMARK  8 active torsions:
REMARK  status: ('A' for Active; 'I' for Inactive)
REMARK    1  A    between atoms: C_2  and  O_3 
REMARK    2  A    between atoms: O_3  and  C_4 
REMARK    3  A    between atoms: C_9  and  N_10 
REMARK    4  A    between atoms: C_14  and  O_15 
REMARK    5  A    between atoms: C_16  and  C_17 
REMARK    6  A    between atoms: N_18  and  C_19 
REMARK    7  A    between atoms: C_19  and  C_20 
REMARK    8  A    between atoms: C_20  and  C_21 
ROOT
ATOM      1  N   UNL d   1      28.208 -14.008   1.446  0.00  0.00    -0.228 N 
ATOM      2  C   UNL d   1      29.361 -14.596   0.875  0.00  0.00     0.357 A 
ATOM      3  O   UNL d   1      30.424 -14.640   1.439  0.00  0.00    -0.244 OA
ATOM      4  N   UNL d   1      29.204 -15.197  -0.364  0.00  0.00    -0.172 NA
ATOM      5  C   UNL d   1      28.051 -15.322  -0.884  0.00  0.00     0.161 A 
ATOM      6  C   UNL d   1      26.720 -14.878  -0.350  0.00  0.00     0.195 A 
ATOM      7  C   UNL d   1      26.917 -14.078   0.915  0.00  0.00     0.249 A 
ATOM      8  O   UNL d   1      25.940 -13.537   1.443  0.00  0.00    -0.271 OA
ENDROOT
BRANCH   6   9
ATOM      9  C   UNL d   1      25.687 -16.064  -0.192  0.00  0.00     0.105 C 
ATOM     10  N   UNL d   1      25.776 -17.232  -0.778  0.00  0.00    -0.304 NA
BRANCH  10  11
ATOM     11  C   UNL d   1      24.709 -18.382  -0.574  0.00  0.00     0.149 C 
BRANCH  11  12
ATOM     12  C   UNL d   1      23.044 -17.758  -0.814  0.00  0.00     0.039 C 
BRANCH  12  13
ATOM     13  C   UNL d   1      21.451 -18.336  -0.162  0.00  0.00     0.021 C 
ATOM     14  C   UNL d   1      21.225 -19.342  -1.083  0.00  0.00     0.093 C 
ATOM     15  N   UNL d   1      19.905 -19.027  -1.270  0.00  0.00    -0.285 NA
ATOM     16  C   UNL d   1      19.344 -19.632  -0.188  0.00  0.00     0.015 A 
ATOM     17  H   UNL d   1      19.565 -18.098  -1.458  0.00  0.00     0.128 HD
ATOM     18  C   UNL d   1      18.229 -20.489  -0.252  0.00  0.00     0.024 A 
ATOM     19  C   UNL d   1      20.299 -19.314   0.811  0.00  0.00    -0.025 A 
ATOM     20  C   UNL d   1      17.860 -21.288   0.794  0.00  0.00     0.002 A 
ATOM     21  C   UNL d   1      18.687 -21.201   1.899  0.00  0.00     0.001 A 
ATOM     22  C   UNL d   1      19.888 -20.234   1.967  0.00  0.00     0.010 A 
ENDBRANCH  12  13
ENDBRANCH  11  12
ENDBRANCH  10  11
ENDBRANCH   6   9
BRANCH   5  23
ATOM     23  O   UNL d   1      27.974 -15.917  -2.088  0.00  0.00    -0.347 OA
ATOM     24  H   UNL d   1      27.419 -16.717  -2.026  0.00  0.00     0.219 HD
ENDBRANCH   5  23
BRANCH   1  25
ATOM     25  C   UNL d   1      28.344 -13.514   2.784  0.00  0.00     0.080 A 
ATOM     26  C   UNL d   1      28.677 -14.428   3.798  0.00  0.00     0.033 A 
ATOM     27  C   UNL d   1      28.963 -13.987   5.091  0.00  0.00     0.002 A 
ATOM     28  C   UNL d   1      28.908 -12.627   5.385  0.00  0.00     0.003 A 
ATOM     29  C   UNL d   1      28.509 -11.717   4.404  0.00  0.00     0.039 A 
ATOM     30  C   UNL d   1      28.235 -12.142   3.096  0.00  0.00     0.096 A 
BRANCH  30  31
ATOM     31  O   UNL d   1      27.965 -11.120   2.220  0.00  0.00    -0.349 OA
BRANCH  31  32
ATOM     32  C   UNL d   1      26.647 -10.585   2.195  0.00  0.00     0.171 C 
ATOM     33  C   UNL d   1      26.718  -9.121   1.814  0.00  0.00     0.034 C 
ENDBRANCH  31  32
ENDBRANCH  30  31
ENDBRANCH   1  25
TORSDOF 8
ENDMDL
MODEL 8
REMARK VINA RESULT:   -30.618      3.652      4.587
REMARK INTER + INTRA:         -34.782
REMARK INTER:                 -33.004
REMARK INTRA:                  -1.777
REMARK CONF_INDEPENDENT:        2.386
REMARK UNBOUND:                -1.777
REMARK  8 active torsions:
REMARK  status: ('A' for Active; 'I' for Inactive)
REMARK    1  A    between atoms: C_2  and  O_3 
REMARK    2  A    between atoms: O_3  and  C_4 
REMARK    3  A    between atoms: C_9  and  N_10 
REMARK    4  A    between atoms: C_14  and  O_15 
REMARK    5  A    between atoms: C_16  and  C_17 
REMARK    6  A    between atoms: N_18  and  C_19 
REMARK    7  A    between atoms: C_19  and  C_20 
REMARK    8  A    between atoms: C_20  and  C_21 
ROOT
ATOM      1  N   UNL d   1      26.964 -13.063  -4.054  0.00  0.00    -0.228 N 
ATOM      2  C   UNL d   1      28.228 -13.281  -3.460  0.00  0.00     0.357 A 
ATOM      3  O   UNL d   1      29.039 -12.405  -3.297  0.00  0.00    -0.244 OA
ATOM      4  N   UNL d   1      28.484 -14.562  -2.995  0.00  0.00    -0.172 NA
ATOM      5  C   UNL d   1      27.571 -15.446  -2.990  0.00  0.00     0.161 A 
ATOM      6  C   UNL d   1      26.149 -15.337  -3.456  0.00  0.00     0.195 A 
ATOM      7  C   UNL d   1      25.926 -13.996  -4.113  0.00  0.00     0.249 A 
ATOM      8  O   UNL d   1      24.840 -13.766  -4.654  0.00  0.00    -0.271 OA
ENDROOT
BRANCH   6   9
ATOM      9  C   UNL d   1      25.098 -15.667  -2.322  0.00  0.00     0.105 C 
ATOM     10  N   UNL d   1      25.305 -16.462  -1.302  0.00  0.00    -0.304 NA
BRANCH  10  11
ATOM     11  C   UNL d   1      24.210 -16.747  -0.196  0.00  0.00     0.149 C 
BRANCH  11  12
ATOM     12  C   UNL d   1      23.125 -18.085  -0.701  0.00  0.00     0.039 C 
BRANCH  12  13
ATOM     13  C   UNL d   1      21.482 -18.573  -0.104  0.00  0.00     0.021 C 
ATOM     14  C   UNL d   1      21.193 -19.502  -1.087  0.00  0.00     0.093 C 
ATOM     15  N   UNL d   1      19.905 -19.074  -1.270  0.00  0.00    -0.285 NA
ATOM     16  C   UNL d   1      19.281 -19.695  -0.233  0.00  0.00     0.015 A 
ATOM     17  H   UNL d   1      19.641 -18.111  -1.406  0.00  0.00     0.128 HD
ATOM     18  C   UNL d   1      18.103 -20.456  -0.363  0.00  0.00     0.024 A 
ATOM     19  C   UNL d   1      20.241 -19.513   0.795  0.00  0.00    -0.025 A 
ATOM     20  C   UNL d   1      17.656 -21.285   0.629  0.00  0.00     0.002 A 
ATOM     21  C   UNL d   1      18.469 -21.329   1.747  0.00  0.00     0.001 A 
ATOM     22  C   UNL d   1      19.740 -20.465   1.888  0.00  0.00     0.010 A 
ENDBRANCH  12  13
ENDBRANCH  11  12
ENDBRANCH  10  11
ENDBRANCH   6   9
BRANCH   5  23
ATOM     23  O   UNL d   1      27.891 -16.666  -2.523  0.00  0.00    -0.347 OA
ATOM     24  H   UNL d   1      27.430 -16.828  -1.678  0.00  0.00     0.219 HD
ENDBRANCH   5  23
BRANCH   1  25
ATOM     25  C   UNL d   1      26.653 -11.709  -4.404  0.00  0.00     0.080 A 
ATOM     26  C   UNL d   1      26.571 -11.378  -5.768  0.00  0.00     0.033 A 
ATOM     27  C   UNL d   1      26.133 -10.117  -6.171  0.00  0.00     0.002 A 
ATOM     28  C   UNL d   1      25.783  -9.168  -5.215  0.00  0.00     0.003 A 
ATOM     29  C   UNL d   1      25.928  -9.460  -3.857  0.00  0.00     0.039 A 
ATOM     30  C   UNL d   1      26.350 -10.728  -3.435  0.00  0.00     0.096 A 
BRANCH  30  31
ATOM     31  O   UNL d   1      26.337 -10.899  -2.073  0.00  0.00    -0.349 OA
BRANCH  31  32
ATOM     32  C   UNL d   1      27.572 -10.816  -1.371  0.00  0.00     0.171 C 
ATOM     33  C   UNL d   1      27.372 -11.332   0.039  0.00  0.00     0.034 C 
ENDBRANCH  31  32
ENDBRANCH  30  31
ENDBRANCH   1  25
TORSDOF 8
ENDMDL
MODEL 9
REMARK VINA RESULT:   -30.544      3.956      5.295
REMARK INTER + INTRA:         -34.700
REMARK INTER:                 -32.931
REMARK INTRA:                  -1.769
REMARK CONF_INDEPENDENT:        2.386
REMARK UNBOUND:                -1.769
REMARK  8 active torsions:
REMARK  status: ('A' for Active; 'I' for Inactive)
REMARK    1  A    between atoms: C_2  and  O_3 
REMARK    2  A    between atoms: O_3  and  C_4 
REMARK    3  A    between atoms: C_9  and  N_10 
REMARK    4  A    between atoms: C_14  and  O_15 
REMARK    5  A    between atoms: C_16  and  C_17 
REMARK    6  A    between atoms: N_18  and  C_19 
REMARK    7  A    between atoms: C_19  and  C_20 
REMARK    8  A    between atoms: C_20  and  C_21 
ROOT
ATOM      1  N   UNL d   1      28.531 -14.206  -4.083  0.00  0.00    -0.228 N 
ATOM      2  C   UNL d   1      29.252 -13.771  -2.948  0.00  0.00     0.357 A 
ATOM      3  O   UNL d   1      29.938 -12.781  -2.943  0.00  0.00    -0.244 OA
ATOM      4  N   UNL d   1      29.084 -14.508  -1.785  0.00  0.00    -0.172 NA
ATOM      5  C   UNL d   1      28.222 -15.440  -1.725  0.00  0.00     0.161 A 
ATOM      6  C   UNL d   1      27.289 -15.933  -2.791  0.00  0.00     0.195 A 
ATOM      7  C   UNL d   1      27.593 -15.242  -4.099  0.00  0.00     0.249 A 
ATOM      8  O   UNL d   1      26.995 -15.597  -5.120  0.00  0.00    -0.271 OA
ENDROOT
BRANCH   6   9
ATOM      9  C   UNL d   1      25.767 -15.848  -2.372  0.00  0.00     0.105 C 
ATOM     10  N   UNL d   1      25.226 -16.457  -1.346  0.00  0.00    -0.304 NA
BRANCH  10  11
ATOM     11  C   UNL d   1      23.694 -16.326  -0.976  0.00  0.00     0.149 C 
BRANCH  11  12
ATOM     12  C   UNL d   1      22.897 -17.934  -0.978  0.00  0.00     0.039 C 
BRANCH  12  13
ATOM     13  C   UNL d   1      21.326 -18.485  -0.253  0.00  0.00     0.021 C 
ATOM     14  C   UNL d   1      21.114 -19.579  -1.072  0.00  0.00     0.093 C 
ATOM     15  N   UNL d   1      19.785 -19.313  -1.269  0.00  0.00    -0.285 NA
ATOM     16  C   UNL d   1      19.251 -19.825  -0.128  0.00  0.00     0.015 A 
ATOM     17  H   UNL d   1      19.420 -18.414  -1.540  0.00  0.00     0.128 HD
ATOM     18  C   UNL d   1      18.156 -20.710  -0.095  0.00  0.00     0.024 A 
ATOM     19  C   UNL d   1      20.210 -19.392   0.824  0.00  0.00    -0.025 A 
ATOM     20  C   UNL d   1      17.819 -21.415   1.027  0.00  0.00     0.002 A 
ATOM     21  C   UNL d   1      18.656 -21.205   2.107  0.00  0.00     0.001 A 
ATOM     22  C   UNL d   1      19.834 -20.208   2.067  0.00  0.00     0.010 A 
ENDBRANCH  12  13
ENDBRANCH  11  12
ENDBRANCH  10  11
ENDBRANCH   6   9
BRANCH   5  23
ATOM     23  O   UNL d   1      28.113 -16.110  -0.564  0.00  0.00    -0.347 OA
ATOM     24  H   UNL d   1      27.225 -16.508  -0.494  0.00  0.00     0.219 HD
ENDBRANCH   5  23
BRANCH   1  25
ATOM     25  C   UNL d   1      28.599 -13.362  -5.239  0.00  0.00     0.080 A 
ATOM     26  C   UNL d   1      29.820 -13.282  -5.931  0.00  0.00     0.033 A 
ATOM     27  C   UNL d   1      29.911 -12.593  -7.141  0.00  0.00     0.002 A 
ATOM     28  C   UNL d   1      28.784 -11.967  -7.666  0.00  0.00     0.003 A 
ATOM     29  C   UNL d   1      27.583 -11.979  -6.953  0.00  0.00     0.039 A 
ATOM     30  C   UNL d   1      27.471 -12.682  -5.745  0.00  0.00     0.096 A 
BRANCH  30  31
ATOM     31  O   UNL d   1      26.203 -12.694  -5.220  0.00  0.00    -0.349 OA
BRANCH  31  32
ATOM     32  C   UNL d   1      26.054 -12.536  -3.814  0.00  0.00     0.171 C 
ATOM     33  C   UNL d   1      25.909 -11.062  -3.497  0.00  0.00     0.034 C 
ENDBRANCH  31  32
ENDBRANCH  30  31
ENDBRANCH   1  25
TORSDOF 8
ENDMDL
