MODEL 1
REMARK VINA RESULT:    -7.613      0.000      0.000
REMARK INTER + INTRA:         -11.955
REMARK INTER:                 -10.297
REMARK INTRA:                  -1.658
REMARK CONF_INDEPENDENT:        2.685
REMARK UNBOUND:                -1.658
REMARK  9 active torsions:
REMARK  status: ('A' for Active; 'I' for Inactive)
REMARK    1  A    between atoms: C_2  and  C_3 
REMARK    2  A    between atoms: C_3  and  C_4 
REMARK    3  A    between atoms: C_4  and  N_5 
REMARK    4  A    between atoms: N_5  and  C_6 
REMARK       I    between atoms: N_5  and  C_9 
REMARK    5  A    between atoms: C_6  and  C_7 
REMARK    6  A    between atoms: C_7  and  O_8 
REMARK       I    between atoms: C_9  and  N_11 
REMARK    7  A    between atoms: N_11  and  C_12 
REMARK    8  A    between atoms: C_15  and  N_16 
REMARK       I    between atoms: N_16  and  C_17 
REMARK    9  A    between atoms: C_17  and  C_19 
ROOT
ATOM      1  N   UNL d   1      26.938 -14.064  -1.535  0.00  0.00    -0.332 N 
ATOM      2  C   UNL d   1      26.119 -15.031  -0.900  0.00  0.00     0.322 C 
ATOM      3  O   UNL d   1      26.221 -15.226   0.307  0.00  0.00    -0.247 OA
ATOM      4  N   UNL d   1      25.247 -15.759  -1.713  0.00  0.00    -0.309 N 
ATOM      5  H   UNL d   1      25.328 -15.708  -2.713  0.00  0.00     0.170 HD
ENDROOT
BRANCH   4   6
ATOM      6  C   UNL d   1      24.313 -16.707  -1.199  0.00  0.00     0.036 A 
ATOM      7  C   UNL d   1      24.639 -18.057  -0.981  0.00  0.00     0.032 A 
ATOM      8  C   UNL d   1      23.662 -18.985  -0.511  0.00  0.00     0.032 A 
ATOM      9  C   UNL d   1      22.350 -18.567  -0.239  0.00  0.00     0.034 A 
ATOM     10  C   UNL d   1      22.051 -17.235  -0.523  0.00  0.00     0.032 A 
ATOM     11  C   UNL d   1      23.004 -16.322  -0.970  0.00  0.00     0.032 A 
BRANCH   9  12
ATOM     12  N   UNL d   1      21.376 -19.451   0.333  0.00  0.00    -0.327 N 
ATOM     13  C   UNL d   1      20.270 -19.937  -0.370  0.00  0.00     0.221 C 
ATOM     14  O   UNL d   1      20.028 -19.706  -1.548  0.00  0.00    -0.273 OA
ATOM     15  H   UNL d   1      21.459 -19.664   1.319  0.00  0.00     0.169 HD
BRANCH  13  16
ATOM     16  C   UNL d   1      19.293 -20.816   0.398  0.00  0.00     0.098 C 
ATOM     17  C   UNL d   1      19.039 -20.172   1.770  0.00  0.00     0.014 C 
ENDBRANCH  13  16
ENDBRANCH   9  12
ENDBRANCH   4   6
BRANCH   1  18
ATOM     18  C   UNL d   1      27.892 -13.374  -0.592  0.00  0.00     0.127 C 
BRANCH  18  19
ATOM     19  C   UNL d   1      27.302 -12.427   0.434  0.00  0.00     0.020 C 
BRANCH  19  20
ATOM     20  C   UNL d   1      27.255 -12.726   1.915  0.00  0.00    -0.003 C 
ATOM     21  C   UNL d   1      28.176 -13.935   2.158  0.00  0.00     0.005 C 
ENDBRANCH  19  20
ENDBRANCH  18  19
ENDBRANCH   1  18
BRANCH   1  22
ATOM     22  C   UNL d   1      26.818 -13.762  -2.986  0.00  0.00     0.153 C 
BRANCH  22  23
ATOM     23  C   UNL d   1      25.506 -13.262  -3.600  0.00  0.00     0.184 C 
BRANCH  23  24
ATOM     24  O   UNL d   1      24.764 -14.283  -4.248  0.00  0.00    -0.399 OA
ATOM     25  H   UNL d   1      24.338 -13.861  -5.013  0.00  0.00     0.209 HD
ENDBRANCH  23  24
ENDBRANCH  22  23
ENDBRANCH   1  22
TORSDOF 9
ENDMDL
MODEL 2
REMARK VINA RESULT:    -7.501      1.766      3.620
REMARK INTER + INTRA:         -11.794
REMARK INTER:                 -10.186
REMARK INTRA:                  -1.608
REMARK CONF_INDEPENDENT:        2.685
REMARK UNBOUND:                -1.608
REMARK  9 active torsions:
REMARK  status: ('A' for Active; 'I' for Inactive)
REMARK    1  A    between atoms: C_2  and  C_3 
REMARK    2  A    between atoms: C_3  and  C_4 
REMARK    3  A    between atoms: C_4  and  N_5 
REMARK    4  A    between atoms: N_5  and  C_6 
REMARK       I    between atoms: N_5  and  C_9 
REMARK    5  A    between atoms: C_6  and  C_7 
REMARK    6  A    between atoms: C_7  and  O_8 
REMARK       I    between atoms: C_9  and  N_11 
REMARK    7  A    between atoms: N_11  and  C_12 
REMARK    8  A    between atoms: C_15  and  N_16 
REMARK       I    between atoms: N_16  and  C_17 
REMARK    9  A    between atoms: C_17  and  C_19 
ROOT
ATOM      1  N   UNL d   1      27.155 -14.716  -2.609  0.00  0.00    -0.332 N 
ATOM      2  C   UNL d   1      25.996 -15.503  -2.392  0.00  0.00     0.322 C 
ATOM      3  O   UNL d   1      25.212 -15.711  -3.313  0.00  0.00    -0.247 OA
ATOM      4  N   UNL d   1      25.782 -15.976  -1.095  0.00  0.00    -0.309 N 
ATOM      5  H   UNL d   1      26.336 -15.628  -0.333  0.00  0.00     0.170 HD
ENDROOT
BRANCH   4   6
ATOM      6  C   UNL d   1      24.701 -16.841  -0.751  0.00  0.00     0.036 A 
ATOM      7  C   UNL d   1      24.880 -18.199  -0.437  0.00  0.00     0.032 A 
ATOM      8  C   UNL d   1      23.767 -19.042  -0.145  0.00  0.00     0.032 A 
ATOM      9  C   UNL d   1      22.460 -18.530  -0.148  0.00  0.00     0.034 A 
ATOM     10  C   UNL d   1      22.318 -17.193  -0.520  0.00  0.00     0.032 A 
ATOM     11  C   UNL d   1      23.403 -16.362  -0.794  0.00  0.00     0.032 A 
BRANCH   9  12
ATOM     12  N   UNL d   1      21.333 -19.325   0.244  0.00  0.00    -0.327 N 
ATOM     13  C   UNL d   1      20.312 -19.700  -0.635  0.00  0.00     0.221 C 
ATOM     14  O   UNL d   1      20.281 -19.437  -1.830  0.00  0.00    -0.273 OA
ATOM     15  H   UNL d   1      21.240 -19.555   1.225  0.00  0.00     0.169 HD
BRANCH  13  16
ATOM     16  C   UNL d   1      19.151 -20.492  -0.050  0.00  0.00     0.098 C 
ATOM     17  C   UNL d   1      18.961 -20.062   1.413  0.00  0.00     0.014 C 
ENDBRANCH  13  16
ENDBRANCH   9  12
ENDBRANCH   4   6
BRANCH   1  18
ATOM     18  C   UNL d   1      27.270 -14.196  -4.020  0.00  0.00     0.127 C 
BRANCH  18  19
ATOM     19  C   UNL d   1      27.647 -15.186  -5.105  0.00  0.00     0.020 C 
BRANCH  19  20
ATOM     20  C   UNL d   1      29.075 -15.495  -5.492  0.00  0.00    -0.003 C 
ATOM     21  C   UNL d   1      29.298 -14.902  -6.895  0.00  0.00     0.005 C 
ENDBRANCH  19  20
ENDBRANCH  18  19
ENDBRANCH   1  18
BRANCH   1  22
ATOM     22  C   UNL d   1      28.154 -14.474  -1.535  0.00  0.00     0.153 C 
BRANCH  22  23
ATOM     23  C   UNL d   1      28.853 -15.629  -0.810  0.00  0.00     0.184 C 
BRANCH  23  24
ATOM     24  O   UNL d   1      28.255 -15.956   0.434  0.00  0.00    -0.399 OA
ATOM     25  H   UNL d   1      28.963 -16.339   0.980  0.00  0.00     0.209 HD
ENDBRANCH  23  24
ENDBRANCH  22  23
ENDBRANCH   1  22
TORSDOF 9
ENDMDL
MODEL 3
REMARK VINA RESULT:    -7.484      2.083      3.356
REMARK INTER + INTRA:         -11.885
REMARK INTER:                 -10.169
REMARK INTRA:                  -1.716
REMARK CONF_INDEPENDENT:        2.685
REMARK UNBOUND:                -1.716
REMARK  9 active torsions:
REMARK  status: ('A' for Active; 'I' for Inactive)
REMARK    1  A    between atoms: C_2  and  C_3 
REMARK    2  A    between atoms: C_3  and  C_4 
REMARK    3  A    between atoms: C_4  and  N_5 
REMARK    4  A    between atoms: N_5  and  C_6 
REMARK       I    between atoms: N_5  and  C_9 
REMARK    5  A    between atoms: C_6  and  C_7 
REMARK    6  A    between atoms: C_7  and  O_8 
REMARK       I    between atoms: C_9  and  N_11 
REMARK    7  A    between atoms: N_11  and  C_12 
REMARK    8  A    between atoms: C_15  and  N_16 
REMARK       I    between atoms: N_16  and  C_17 
REMARK    9  A    between atoms: C_17  and  C_19 
ROOT
ATOM      1  N   UNL d   1      27.344 -15.476  -2.973  0.00  0.00    -0.332 N 
ATOM      2  C   UNL d   1      26.041 -15.960  -2.696  0.00  0.00     0.322 C 
ATOM      3  O   UNL d   1      25.167 -15.902  -3.556  0.00  0.00    -0.247 OA
ATOM      4  N   UNL d   1      25.805 -16.450  -1.409  0.00  0.00    -0.309 N 
ATOM      5  H   UNL d   1      26.482 -16.304  -0.681  0.00  0.00     0.170 HD
ENDROOT
BRANCH   4   6
ATOM      6  C   UNL d   1      24.565 -17.037  -1.016  0.00  0.00     0.036 A 
ATOM      7  C   UNL d   1      23.363 -16.312  -0.956  0.00  0.00     0.032 A 
ATOM      8  C   UNL d   1      22.154 -16.924  -0.511  0.00  0.00     0.032 A 
ATOM      9  C   UNL d   1      22.132 -18.277  -0.135  0.00  0.00     0.034 A 
ATOM     10  C   UNL d   1      23.355 -18.946  -0.153  0.00  0.00     0.032 A 
ATOM     11  C   UNL d   1      24.537 -18.356  -0.598  0.00  0.00     0.032 A 
BRANCH   9  12
ATOM     12  N   UNL d   1      20.913 -18.946   0.215  0.00  0.00    -0.327 N 
ATOM     13  C   UNL d   1      20.094 -19.593  -0.715  0.00  0.00     0.221 C 
ATOM     14  O   UNL d   1      20.337 -19.701  -1.910  0.00  0.00    -0.273 OA
ATOM     15  H   UNL d   1      20.597 -18.873   1.174  0.00  0.00     0.169 HD
BRANCH  13  16
ATOM     16  C   UNL d   1      18.800 -20.202  -0.194  0.00  0.00     0.098 C 
ATOM     17  C   UNL d   1      19.024 -20.640   1.262  0.00  0.00     0.014 C 
ENDBRANCH  13  16
ENDBRANCH   9  12
ENDBRANCH   4   6
BRANCH   1  18
ATOM     18  C   UNL d   1      27.489 -14.908  -4.362  0.00  0.00     0.127 C 
BRANCH  18  19
ATOM     19  C   UNL d   1      27.140 -13.446  -4.563  0.00  0.00     0.020 C 
BRANCH  19  20
ATOM     20  C   UNL d   1      25.775 -12.867  -4.271  0.00  0.00    -0.003 C 
ATOM     21  C   UNL d   1      25.977 -11.735  -3.248  0.00  0.00     0.005 C 
ENDBRANCH  19  20
ENDBRANCH  18  19
ENDBRANCH   1  18
BRANCH   1  22
ATOM     22  C   UNL d   1      28.445 -15.566  -1.978  0.00  0.00     0.153 C 
BRANCH  22  23
ATOM     23  C   UNL d   1      28.942 -16.914  -1.445  0.00  0.00     0.184 C 
BRANCH  23  24
ATOM     24  O   UNL d   1      28.312 -17.306  -0.235  0.00  0.00    -0.399 OA
ATOM     25  H   UNL d   1      28.955 -17.865   0.233  0.00  0.00     0.209 HD
ENDBRANCH  23  24
ENDBRANCH  22  23
ENDBRANCH   1  22
TORSDOF 9
ENDMDL
MODEL 4
REMARK VINA RESULT:    -7.343      1.932      2.959
REMARK INTER + INTRA:         -11.648
REMARK INTER:                 -10.028
REMARK INTRA:                  -1.621
REMARK CONF_INDEPENDENT:        2.685
REMARK UNBOUND:                -1.621
REMARK  9 active torsions:
REMARK  status: ('A' for Active; 'I' for Inactive)
REMARK    1  A    between atoms: C_2  and  C_3 
REMARK    2  A    between atoms: C_3  and  C_4 
REMARK    3  A    between atoms: C_4  and  N_5 
REMARK    4  A    between atoms: N_5  and  C_6 
REMARK       I    between atoms: N_5  and  C_9 
REMARK    5  A    between atoms: C_6  and  C_7 
REMARK    6  A    between atoms: C_7  and  O_8 
REMARK       I    between atoms: C_9  and  N_11 
REMARK    7  A    between atoms: N_11  and  C_12 
REMARK    8  A    between atoms: C_15  and  N_16 
REMARK       I    between atoms: N_16  and  C_17 
REMARK    9  A    between atoms: C_17  and  C_19 
ROOT
ATOM      1  N   UNL d   1      27.497 -14.883  -2.587  0.00  0.00    -0.332 N 
ATOM      2  C   UNL d   1      26.654 -15.813  -1.927  0.00  0.00     0.322 C 
ATOM      3  O   UNL d   1      27.132 -16.631  -1.147  0.00  0.00    -0.247 OA
ATOM      4  N   UNL d   1      25.294 -15.773  -2.242  0.00  0.00    -0.309 N 
ATOM      5  H   UNL d   1      24.972 -15.225  -3.021  0.00  0.00     0.170 HD
ENDROOT
BRANCH   4   6
ATOM      6  C   UNL d   1      24.322 -16.595  -1.599  0.00  0.00     0.036 A 
ATOM      7  C   UNL d   1      23.060 -16.119  -1.205  0.00  0.00     0.032 A 
ATOM      8  C   UNL d   1      22.134 -16.961  -0.520  0.00  0.00     0.032 A 
ATOM      9  C   UNL d   1      22.456 -18.298  -0.237  0.00  0.00     0.034 A 
ATOM     10  C   UNL d   1      23.738 -18.716  -0.592  0.00  0.00     0.032 A 
ATOM     11  C   UNL d   1      24.642 -17.901  -1.271  0.00  0.00     0.032 A 
BRANCH   9  12
ATOM     12  N   UNL d   1      21.508 -19.197   0.354  0.00  0.00    -0.327 N 
ATOM     13  C   UNL d   1      20.472 -19.804  -0.362  0.00  0.00     0.221 C 
ATOM     14  O   UNL d   1      20.280 -19.678  -1.564  0.00  0.00    -0.273 OA
ATOM     15  H   UNL d   1      21.551 -19.330   1.356  0.00  0.00     0.169 HD
BRANCH  13  16
ATOM     16  C   UNL d   1      19.510 -20.684   0.424  0.00  0.00     0.098 C 
ATOM     17  C   UNL d   1      19.314 -20.063   1.816  0.00  0.00     0.014 C 
ENDBRANCH  13  16
ENDBRANCH   9  12
ENDBRANCH   4   6
BRANCH   1  18
ATOM     18  C   UNL d   1      28.955 -15.042  -2.235  0.00  0.00     0.127 C 
BRANCH  18  19
ATOM     19  C   UNL d   1      29.744 -16.106  -2.973  0.00  0.00     0.020 C 
BRANCH  19  20
ATOM     20  C   UNL d   1      30.284 -15.924  -4.372  0.00  0.00    -0.003 C 
ATOM     21  C   UNL d   1      29.069 -15.794  -5.309  0.00  0.00     0.005 C 
ENDBRANCH  19  20
ENDBRANCH  18  19
ENDBRANCH   1  18
BRANCH   1  22
ATOM     22  C   UNL d   1      26.958 -13.846  -3.505  0.00  0.00     0.153 C 
BRANCH  22  23
ATOM     23  C   UNL d   1      26.161 -14.217  -4.761  0.00  0.00     0.184 C 
BRANCH  23  24
ATOM     24  O   UNL d   1      24.770 -14.363  -4.521  0.00  0.00    -0.399 OA
ATOM     25  H   UNL d   1      24.333 -13.674  -5.049  0.00  0.00     0.209 HD
ENDBRANCH  23  24
ENDBRANCH  22  23
ENDBRANCH   1  22
TORSDOF 9
ENDMDL
MODEL 5
REMARK VINA RESULT:    -7.009      1.310      3.137
REMARK INTER + INTRA:         -11.402
REMARK INTER:                  -9.694
REMARK INTRA:                  -1.708
REMARK CONF_INDEPENDENT:        2.685
REMARK UNBOUND:                -1.708
REMARK  9 active torsions:
REMARK  status: ('A' for Active; 'I' for Inactive)
REMARK    1  A    between atoms: C_2  and  C_3 
REMARK    2  A    between atoms: C_3  and  C_4 
REMARK    3  A    between atoms: C_4  and  N_5 
REMARK    4  A    between atoms: N_5  and  C_6 
REMARK       I    between atoms: N_5  and  C_9 
REMARK    5  A    between atoms: C_6  and  C_7 
REMARK    6  A    between atoms: C_7  and  O_8 
REMARK       I    between atoms: C_9  and  N_11 
REMARK    7  A    between atoms: N_11  and  C_12 
REMARK    8  A    between atoms: C_15  and  N_16 
REMARK       I    between atoms: N_16  and  C_17 
REMARK    9  A    between atoms: C_17  and  C_19 
ROOT
ATOM      1  N   UNL d   1      27.416 -14.825  -2.733  0.00  0.00    -0.332 N 
ATOM      2  C   UNL d   1      26.229 -15.577  -2.542  0.00  0.00     0.322 C 
ATOM      3  O   UNL d   1      25.488 -15.808  -3.493  0.00  0.00    -0.247 OA
ATOM      4  N   UNL d   1      25.938 -15.987  -1.239  0.00  0.00    -0.309 N 
ATOM      5  H   UNL d   1      26.461 -15.618  -0.465  0.00  0.00     0.170 HD
ENDROOT
BRANCH   4   6
ATOM      6  C   UNL d   1      24.820 -16.813  -0.915  0.00  0.00     0.036 A 
ATOM      7  C   UNL d   1      23.499 -16.334  -0.896  0.00  0.00     0.032 A 
ATOM      8  C   UNL d   1      22.414 -17.180  -0.519  0.00  0.00     0.032 A 
ATOM      9  C   UNL d   1      22.638 -18.521  -0.171  0.00  0.00     0.034 A 
ATOM     10  C   UNL d   1      23.968 -18.942  -0.145  0.00  0.00     0.032 A 
ATOM     11  C   UNL d   1      25.030 -18.123  -0.524  0.00  0.00     0.032 A 
BRANCH   9  12
ATOM     12  N   UNL d   1      21.558 -19.423   0.110  0.00  0.00    -0.327 N 
ATOM     13  C   UNL d   1      20.233 -19.177  -0.262  0.00  0.00     0.221 C 
ATOM     14  O   UNL d   1      19.850 -18.204  -0.897  0.00  0.00    -0.273 OA
ATOM     15  H   UNL d   1      21.763 -20.236   0.676  0.00  0.00     0.169 HD
BRANCH  13  16
ATOM     16  C   UNL d   1      19.193 -20.202   0.166  0.00  0.00     0.098 C 
ATOM     17  C   UNL d   1      19.259 -20.350   1.694  0.00  0.00     0.014 C 
ENDBRANCH  13  16
ENDBRANCH   9  12
ENDBRANCH   4   6
BRANCH   1  18
ATOM     18  C   UNL d   1      27.615 -14.371  -4.156  0.00  0.00     0.127 C 
BRANCH  18  19
ATOM     19  C   UNL d   1      26.712 -13.268  -4.674  0.00  0.00     0.020 C 
BRANCH  19  20
ATOM     20  C   UNL d   1      25.540 -12.715  -3.896  0.00  0.00    -0.003 C 
ATOM     21  C   UNL d   1      25.740 -11.192  -3.805  0.00  0.00     0.005 C 
ENDBRANCH  19  20
ENDBRANCH  18  19
ENDBRANCH   1  18
BRANCH   1  22
ATOM     22  C   UNL d   1      28.365 -14.558  -1.620  0.00  0.00     0.153 C 
BRANCH  22  23
ATOM     23  C   UNL d   1      27.989 -13.658  -0.438  0.00  0.00     0.184 C 
BRANCH  23  24
ATOM     24  O   UNL d   1      26.590 -13.469  -0.298  0.00  0.00    -0.399 OA
ATOM     25  H   UNL d   1      26.398 -12.590  -0.666  0.00  0.00     0.209 HD
ENDBRANCH  23  24
ENDBRANCH  22  23
ENDBRANCH   1  22
TORSDOF 9
ENDMDL
MODEL 6
REMARK VINA RESULT:    -6.909      1.329      2.214
REMARK INTER + INTRA:         -11.211
REMARK INTER:                  -9.594
REMARK INTRA:                  -1.617
REMARK CONF_INDEPENDENT:        2.685
REMARK UNBOUND:                -1.617
REMARK  9 active torsions:
REMARK  status: ('A' for Active; 'I' for Inactive)
REMARK    1  A    between atoms: C_2  and  C_3 
REMARK    2  A    between atoms: C_3  and  C_4 
REMARK    3  A    between atoms: C_4  and  N_5 
REMARK    4  A    between atoms: N_5  and  C_6 
REMARK       I    between atoms: N_5  and  C_9 
REMARK    5  A    between atoms: C_6  and  C_7 
REMARK    6  A    between atoms: C_7  and  O_8 
REMARK       I    between atoms: C_9  and  N_11 
REMARK    7  A    between atoms: N_11  and  C_12 
REMARK    8  A    between atoms: C_15  and  N_16 
REMARK       I    between atoms: N_16  and  C_17 
REMARK    9  A    between atoms: C_17  and  C_19 
ROOT
ATOM      1  N   UNL d   1      27.223 -14.390  -2.183  0.00  0.00    -0.332 N 
ATOM      2  C   UNL d   1      26.235 -15.080  -1.436  0.00  0.00     0.322 C 
ATOM      3  O   UNL d   1      26.006 -14.758  -0.274  0.00  0.00    -0.247 OA
ATOM      4  N   UNL d   1      25.589 -16.145  -2.067  0.00  0.00    -0.309 N 
ATOM      5  H   UNL d   1      25.935 -16.499  -2.942  0.00  0.00     0.170 HD
ENDROOT
BRANCH   4   6
ATOM      6  C   UNL d   1      24.523 -16.877  -1.464  0.00  0.00     0.036 A 
ATOM      7  C   UNL d   1      23.240 -16.338  -1.273  0.00  0.00     0.032 A 
ATOM      8  C   UNL d   1      22.215 -17.086  -0.621  0.00  0.00     0.032 A 
ATOM      9  C   UNL d   1      22.460 -18.391  -0.166  0.00  0.00     0.034 A 
ATOM     10  C   UNL d   1      23.761 -18.869  -0.322  0.00  0.00     0.032 A 
ATOM     11  C   UNL d   1      24.762 -18.147  -0.969  0.00  0.00     0.032 A 
BRANCH   9  12
ATOM     12  N   UNL d   1      21.422 -19.205   0.397  0.00  0.00    -0.327 N 
ATOM     13  C   UNL d   1      20.378 -19.752  -0.356  0.00  0.00     0.221 C 
ATOM     14  O   UNL d   1      20.251 -19.640  -1.568  0.00  0.00    -0.273 OA
ATOM     15  H   UNL d   1      21.408 -19.318   1.402  0.00  0.00     0.169 HD
BRANCH  13  16
ATOM     16  C   UNL d   1      19.318 -20.541   0.400  0.00  0.00     0.098 C 
ATOM     17  C   UNL d   1      19.176 -19.935   1.805  0.00  0.00     0.014 C 
ENDBRANCH  13  16
ENDBRANCH   9  12
ENDBRANCH   4   6
BRANCH   1  18
ATOM     18  C   UNL d   1      27.911 -13.299  -1.401  0.00  0.00     0.127 C 
BRANCH  18  19
ATOM     19  C   UNL d   1      27.893 -11.899  -1.983  0.00  0.00     0.020 C 
BRANCH  19  20
ATOM     20  C   UNL d   1      26.644 -11.232  -2.511  0.00  0.00    -0.003 C 
ATOM     21  C   UNL d   1      26.670 -11.380  -4.043  0.00  0.00     0.005 C 
ENDBRANCH  19  20
ENDBRANCH  18  19
ENDBRANCH   1  18
BRANCH   1  22
ATOM     22  C   UNL d   1      27.503 -14.715  -3.606  0.00  0.00     0.153 C 
BRANCH  22  23
ATOM     23  C   UNL d   1      26.443 -14.538  -4.698  0.00  0.00     0.184 C 
BRANCH  23  24
ATOM     24  O   UNL d   1      25.151 -14.970  -4.302  0.00  0.00    -0.399 OA
ATOM     25  H   UNL d   1      24.532 -14.597  -4.952  0.00  0.00     0.209 HD
ENDBRANCH  23  24
ENDBRANCH  22  23
ENDBRANCH   1  22
TORSDOF 9
ENDMDL
MODEL 7
REMARK VINA RESULT:    -6.545      1.813      2.586
REMARK INTER + INTRA:         -10.938
REMARK INTER:                  -9.230
REMARK INTRA:                  -1.708
REMARK CONF_INDEPENDENT:        2.685
REMARK UNBOUND:                -1.708
REMARK  9 active torsions:
REMARK  status: ('A' for Active; 'I' for Inactive)
REMARK    1  A    between atoms: C_2  and  C_3 
REMARK    2  A    between atoms: C_3  and  C_4 
REMARK    3  A    between atoms: C_4  and  N_5 
REMARK    4  A    between atoms: N_5  and  C_6 
REMARK       I    between atoms: N_5  and  C_9 
REMARK    5  A    between atoms: C_6  and  C_7 
REMARK    6  A    between atoms: C_7  and  O_8 
REMARK       I    between atoms: C_9  and  N_11 
REMARK    7  A    between atoms: N_11  and  C_12 
REMARK    8  A    between atoms: C_15  and  N_16 
REMARK       I    between atoms: N_16  and  C_17 
REMARK    9  A    between atoms: C_17  and  C_19 
ROOT
ATOM      1  N   UNL d   1      28.301 -14.866  -0.924  0.00  0.00    -0.332 N 
ATOM      2  C   UNL d   1      27.022 -15.412  -0.646  0.00  0.00     0.322 C 
ATOM      3  O   UNL d   1      26.168 -14.727  -0.094  0.00  0.00    -0.247 OA
ATOM      4  N   UNL d   1      26.815 -16.751  -0.987  0.00  0.00    -0.309 N 
ATOM      5  H   UNL d   1      27.591 -17.330  -1.257  0.00  0.00     0.170 HD
ENDROOT
BRANCH   4   6
ATOM      6  C   UNL d   1      25.557 -17.407  -0.835  0.00  0.00     0.036 A 
ATOM      7  C   UNL d   1      24.592 -17.451  -1.856  0.00  0.00     0.032 A 
ATOM      8  C   UNL d   1      23.327 -18.076  -1.648  0.00  0.00     0.032 A 
ATOM      9  C   UNL d   1      23.019 -18.678  -0.418  0.00  0.00     0.034 A 
ATOM     10  C   UNL d   1      23.979 -18.563   0.588  0.00  0.00     0.032 A 
ATOM     11  C   UNL d   1      25.221 -17.964   0.385  0.00  0.00     0.032 A 
BRANCH   9  12
ATOM     12  N   UNL d   1      21.799 -19.404  -0.213  0.00  0.00    -0.327 N 
ATOM     13  C   UNL d   1      20.549 -18.945  -0.640  0.00  0.00     0.221 C 
ATOM     14  O   UNL d   1      20.355 -17.911  -1.266  0.00  0.00    -0.273 OA
ATOM     15  H   UNL d   1      21.844 -20.250   0.339  0.00  0.00     0.169 HD
BRANCH  13  16
ATOM     16  C   UNL d   1      19.341 -19.802  -0.291  0.00  0.00     0.098 C 
ATOM     17  C   UNL d   1      19.477 -20.257   1.171  0.00  0.00     0.014 C 
ENDBRANCH  13  16
ENDBRANCH   9  12
ENDBRANCH   4   6
BRANCH   1  18
ATOM     18  C   UNL d   1      28.455 -13.438  -0.464  0.00  0.00     0.127 C 
BRANCH  18  19
ATOM     19  C   UNL d   1      28.681 -13.198   1.016  0.00  0.00     0.020 C 
BRANCH  19  20
ATOM     20  C   UNL d   1      28.133 -14.097   2.100  0.00  0.00    -0.003 C 
ATOM     21  C   UNL d   1      27.064 -13.288   2.857  0.00  0.00     0.005 C 
ENDBRANCH  19  20
ENDBRANCH  18  19
ENDBRANCH   1  18
BRANCH   1  22
ATOM     22  C   UNL d   1      29.352 -15.644  -1.631  0.00  0.00     0.153 C 
BRANCH  22  23
ATOM     23  C   UNL d   1      30.210 -16.685  -0.904  0.00  0.00     0.184 C 
BRANCH  23  24
ATOM     24  O   UNL d   1      29.609 -17.969  -0.849  0.00  0.00    -0.399 OA
ATOM     25  H   UNL d   1      29.563 -18.204   0.093  0.00  0.00     0.209 HD
ENDBRANCH  23  24
ENDBRANCH  22  23
ENDBRANCH   1  22
TORSDOF 9
ENDMDL
MODEL 8
REMARK VINA RESULT:    -6.439      2.744      8.297
REMARK INTER + INTRA:         -10.602
REMARK INTER:                  -9.123
REMARK INTRA:                  -1.478
REMARK CONF_INDEPENDENT:        2.685
REMARK UNBOUND:                -1.478
REMARK  9 active torsions:
REMARK  status: ('A' for Active; 'I' for Inactive)
REMARK    1  A    between atoms: C_2  and  C_3 
REMARK    2  A    between atoms: C_3  and  C_4 
REMARK    3  A    between atoms: C_4  and  N_5 
REMARK    4  A    between atoms: N_5  and  C_6 
REMARK       I    between atoms: N_5  and  C_9 
REMARK    5  A    between atoms: C_6  and  C_7 
REMARK    6  A    between atoms: C_7  and  O_8 
REMARK       I    between atoms: C_9  and  N_11 
REMARK    7  A    between atoms: N_11  and  C_12 
REMARK    8  A    between atoms: C_15  and  N_16 
REMARK       I    between atoms: N_16  and  C_17 
REMARK    9  A    between atoms: C_17  and  C_19 
ROOT
ATOM      1  N   UNL d   1      24.574 -17.849  -0.211  0.00  0.00    -0.332 N 
ATOM      2  C   UNL d   1      24.487 -16.827  -1.189  0.00  0.00     0.322 C 
ATOM      3  O   UNL d   1      23.390 -16.415  -1.552  0.00  0.00    -0.247 OA
ATOM      4  N   UNL d   1      25.688 -16.363  -1.732  0.00  0.00    -0.309 N 
ATOM      5  H   UNL d   1      26.546 -16.854  -1.554  0.00  0.00     0.170 HD
ENDROOT
BRANCH   4   6
ATOM      6  C   UNL d   1      25.755 -15.288  -2.667  0.00  0.00     0.036 A 
ATOM      7  C   UNL d   1      25.962 -15.485  -4.043  0.00  0.00     0.032 A 
ATOM      8  C   UNL d   1      26.071 -14.379  -4.939  0.00  0.00     0.032 A 
ATOM      9  C   UNL d   1      25.956 -13.062  -4.467  0.00  0.00     0.034 A 
ATOM     10  C   UNL d   1      25.809 -12.906  -3.089  0.00  0.00     0.032 A 
ATOM     11  C   UNL d   1      25.690 -13.983  -2.212  0.00  0.00     0.032 A 
BRANCH   9  12
ATOM     12  N   UNL d   1      25.956 -11.936  -5.356  0.00  0.00    -0.327 N 
ATOM     13  C   UNL d   1      27.057 -11.570  -6.136  0.00  0.00     0.221 C 
ATOM     14  O   UNL d   1      28.117 -12.180  -6.187  0.00  0.00    -0.273 OA
ATOM     15  H   UNL d   1      25.141 -11.336  -5.352  0.00  0.00     0.169 HD
BRANCH  13  16
ATOM     16  C   UNL d   1      26.919 -10.311  -6.981  0.00  0.00     0.098 C 
ATOM     17  C   UNL d   1      26.783 -10.730  -8.454  0.00  0.00     0.014 C 
ENDBRANCH  13  16
ENDBRANCH   9  12
ENDBRANCH   4   6
BRANCH   1  18
ATOM     18  C   UNL d   1      23.230 -18.333   0.271  0.00  0.00     0.127 C 
BRANCH  18  19
ATOM     19  C   UNL d   1      22.375 -19.118  -0.704  0.00  0.00     0.020 C 
BRANCH  19  20
ATOM     20  C   UNL d   1      20.874 -18.974  -0.802  0.00  0.00    -0.003 C 
ATOM     21  C   UNL d   1      20.282 -19.554   0.496  0.00  0.00     0.005 C 
ENDBRANCH  19  20
ENDBRANCH  18  19
ENDBRANCH   1  18
BRANCH   1  22
ATOM     22  C   UNL d   1      25.881 -18.349   0.292  0.00  0.00     0.153 C 
BRANCH  22  23
ATOM     23  C   UNL d   1      27.039 -17.397   0.611  0.00  0.00     0.184 C 
BRANCH  23  24
ATOM     24  O   UNL d   1      28.131 -17.519  -0.286  0.00  0.00    -0.399 OA
ATOM     25  H   UNL d   1      28.869 -17.878   0.235  0.00  0.00     0.209 HD
ENDBRANCH  23  24
ENDBRANCH  22  23
ENDBRANCH   1  22
TORSDOF 9
ENDMDL
MODEL 9
REMARK VINA RESULT:    -6.006      3.584      8.803
REMARK INTER + INTRA:         -10.141
REMARK INTER:                  -8.690
REMARK INTRA:                  -1.450
REMARK CONF_INDEPENDENT:        2.685
REMARK UNBOUND:                -1.450
REMARK  9 active torsions:
REMARK  status: ('A' for Active; 'I' for Inactive)
REMARK    1  A    between atoms: C_2  and  C_3 
REMARK    2  A    between atoms: C_3  and  C_4 
REMARK    3  A    between atoms: C_4  and  N_5 
REMARK    4  A    between atoms: N_5  and  C_6 
REMARK       I    between atoms: N_5  and  C_9 
REMARK    5  A    between atoms: C_6  and  C_7 
REMARK    6  A    between atoms: C_7  and  O_8 
REMARK       I    between atoms: C_9  and  N_11 
REMARK    7  A    between atoms: N_11  and  C_12 
REMARK    8  A    between atoms: C_15  and  N_16 
REMARK       I    between atoms: N_16  and  C_17 
REMARK    9  A    between atoms: C_17  and  C_19 
ROOT
ATOM      1  N   UNL d   1      25.443 -16.696  -0.738  0.00  0.00    -0.332 N 
ATOM      2  C   UNL d   1      25.708 -16.195  -2.038  0.00  0.00     0.322 C 
ATOM      3  O   UNL d   1      24.780 -15.915  -2.790  0.00  0.00    -0.247 OA
ATOM      4  N   UNL d   1      27.048 -16.085  -2.416  0.00  0.00    -0.309 N 
ATOM      5  H   UNL d   1      27.768 -16.501  -1.851  0.00  0.00     0.170 HD
ENDROOT
BRANCH   4   6
ATOM      6  C   UNL d   1      27.462 -15.526  -3.661  0.00  0.00     0.036 A 
ATOM      7  C   UNL d   1      26.622 -14.728  -4.456  0.00  0.00     0.032 A 
ATOM      8  C   UNL d   1      27.057 -14.227  -5.719  0.00  0.00     0.032 A 
ATOM      9  C   UNL d   1      28.348 -14.509  -6.194  0.00  0.00     0.034 A 
ATOM     10  C   UNL d   1      29.131 -15.351  -5.405  0.00  0.00     0.032 A 
ATOM     11  C   UNL d   1      28.714 -15.832  -4.164  0.00  0.00     0.032 A 
BRANCH   9  12
ATOM     12  N   UNL d   1      28.851 -13.934  -7.408  0.00  0.00    -0.327 N 
ATOM     13  C   UNL d   1      28.539 -12.640  -7.835  0.00  0.00     0.221 C 
ATOM     14  O   UNL d   1      27.849 -11.842  -7.214  0.00  0.00    -0.273 OA
ATOM     15  H   UNL d   1      29.393 -14.531  -8.020  0.00  0.00     0.169 HD
BRANCH  13  16
ATOM     16  C   UNL d   1      29.101 -12.200  -9.179  0.00  0.00     0.098 C 
ATOM     17  C   UNL d   1      28.002 -12.366 -10.241  0.00  0.00     0.014 C 
ENDBRANCH  13  16
ENDBRANCH   9  12
ENDBRANCH   4   6
BRANCH   1  18
ATOM     18  C   UNL d   1      23.971 -16.841  -0.441  0.00  0.00     0.127 C 
BRANCH  18  19
ATOM     19  C   UNL d   1      23.266 -18.072  -0.976  0.00  0.00     0.020 C 
BRANCH  19  20
ATOM     20  C   UNL d   1      22.325 -18.919  -0.150  0.00  0.00    -0.003 C 
ATOM     21  C   UNL d   1      20.978 -18.950  -0.895  0.00  0.00     0.005 C 
ENDBRANCH  19  20
ENDBRANCH  18  19
ENDBRANCH   1  18
BRANCH   1  22
ATOM     22  C   UNL d   1      26.533 -17.006   0.223  0.00  0.00     0.153 C 
BRANCH  22  23
ATOM     23  C   UNL d   1      27.476 -18.196   0.016  0.00  0.00     0.184 C 
BRANCH  23  24
ATOM     24  O   UNL d   1      28.746 -17.825  -0.495  0.00  0.00    -0.399 OA
ATOM     25  H   UNL d   1      29.352 -17.825   0.265  0.00  0.00     0.209 HD
ENDBRANCH  23  24
ENDBRANCH  22  23
ENDBRANCH   1  22
TORSDOF 9
ENDMDL
