MODEL 1
REMARK VINA RESULT:    -7.745      0.000      0.000
REMARK INTER + INTRA:         -11.245
REMARK INTER:                  -9.833
REMARK INTRA:                  -1.412
REMARK CONF_INDEPENDENT:        2.088
REMARK UNBOUND:                -1.412
REMARK  7 active torsions:
REMARK  status: ('A' for Active; 'I' for Inactive)
REMARK    1  A    between atoms: C_2  and  C_4 
REMARK    2  A    between atoms: C_4  and  C_5 
REMARK    3  A    between atoms: C_5  and  C_6 
REMARK       I    between atoms: C_6  and  N_8 
REMARK    4  A    between atoms: N_8  and  N_9 
REMARK       I    between atoms: N_9  and  C_10 
REMARK    5  A    between atoms: C_10  and  C_12 
REMARK    6  A    between atoms: C_13  and  C_14 
REMARK    7  A    between atoms: C_17  and  N_18 
ROOT
ATOM      1  N   UNL d   1      23.551 -17.882  -0.935  0.00  0.00    -0.264 N 
ATOM      2  C   UNL d   1      24.903 -17.780  -0.660  0.00  0.00     0.259 C 
ATOM      3  O   UNL d   1      25.480 -18.529   0.130  0.00  0.00    -0.267 OA
ATOM      4  H   UNL d   1      23.043 -17.278  -1.580  0.00  0.00     0.190 HD
ENDROOT
BRANCH   2   5
ATOM      5  C   UNL d   1      25.623 -16.678  -1.386  0.00  0.00     0.076 C 
ATOM      6  C   UNL d   1      25.031 -15.997  -2.389  0.00  0.00     0.017 C 
BRANCH   6   7
ATOM      7  C   UNL d   1      25.666 -14.961  -3.240  0.00  0.00    -0.036 A 
ATOM      8  C   UNL d   1      25.071 -13.693  -3.381  0.00  0.00     0.014 A 
ATOM      9  C   UNL d   1      25.532 -12.774  -4.341  0.00  0.00     0.037 A 
ATOM     10  C   UNL d   1      26.651 -13.090  -5.118  0.00  0.00     0.102 A 
ATOM     11  C   UNL d   1      27.271 -14.336  -4.977  0.00  0.00     0.037 A 
ATOM     12  C   UNL d   1      26.774 -15.262  -4.047  0.00  0.00     0.014 A 
BRANCH  10  13
ATOM     13  N   UNL d   1      27.209 -12.095  -6.046  0.00  0.00    -0.116 N 
ATOM     14  O   UNL d   1      26.477 -11.160  -6.400  0.00  0.00    -0.532 OA
ATOM     15  O   UNL d   1      28.388 -12.238  -6.404  0.00  0.00    -0.532 OA
ENDBRANCH  10  13
ENDBRANCH   6   7
ENDBRANCH   2   5
BRANCH   1  16
ATOM     16  N   UNL d   1      22.773 -18.893  -0.301  0.00  0.00    -0.267 N 
ATOM     17  C   UNL d   1      21.405 -18.931  -0.531  0.00  0.00     0.236 C 
ATOM     18  O   UNL d   1      20.849 -18.110  -1.263  0.00  0.00    -0.272 OA
ATOM     19  H   UNL d   1      23.276 -19.559   0.282  0.00  0.00     0.190 HD
BRANCH  17  20
ATOM     20  C   UNL d   1      20.655 -20.063   0.172  0.00  0.00     0.105 C 
BRANCH  20  21
ATOM     21  C   UNL d   1      19.130 -19.836   0.186  0.00  0.00     0.013 C 
BRANCH  21  22
ATOM     22  C   UNL d   1      18.401 -20.480   1.386  0.00  0.00    -0.022 C 
ATOM     23  C   UNL d   1      18.029 -21.935   1.068  0.00  0.00     0.009 C 
ATOM     24  C   UNL d   1      19.260 -20.450   2.648  0.00  0.00     0.009 C 
ENDBRANCH  21  22
ENDBRANCH  20  21
ENDBRANCH  17  20
ENDBRANCH   1  16
TORSDOF 7
ENDMDL
MODEL 2
REMARK VINA RESULT:    -7.472      1.095      1.332
REMARK INTER + INTRA:         -11.001
REMARK INTER:                  -9.560
REMARK INTRA:                  -1.441
REMARK CONF_INDEPENDENT:        2.088
REMARK UNBOUND:                -1.441
REMARK  7 active torsions:
REMARK  status: ('A' for Active; 'I' for Inactive)
REMARK    1  A    between atoms: C_2  and  C_4 
REMARK    2  A    between atoms: C_4  and  C_5 
REMARK    3  A    between atoms: C_5  and  C_6 
REMARK       I    between atoms: C_6  and  N_8 
REMARK    4  A    between atoms: N_8  and  N_9 
REMARK       I    between atoms: N_9  and  C_10 
REMARK    5  A    between atoms: C_10  and  C_12 
REMARK    6  A    between atoms: C_13  and  C_14 
REMARK    7  A    between atoms: C_17  and  N_18 
ROOT
ATOM      1  N   UNL d   1      23.235 -17.783  -0.766  0.00  0.00    -0.264 N 
ATOM      2  C   UNL d   1      24.580 -17.706  -0.449  0.00  0.00     0.259 C 
ATOM      3  O   UNL d   1      25.155 -18.564   0.224  0.00  0.00    -0.267 OA
ATOM      4  H   UNL d   1      22.729 -17.091  -1.317  0.00  0.00     0.190 HD
ENDROOT
BRANCH   2   5
ATOM      5  C   UNL d   1      25.294 -16.493  -0.975  0.00  0.00     0.076 C 
ATOM      6  C   UNL d   1      24.796 -15.781  -2.008  0.00  0.00     0.017 C 
BRANCH   6   7
ATOM      7  C   UNL d   1      25.451 -14.628  -2.675  0.00  0.00    -0.036 A 
ATOM      8  C   UNL d   1      26.245 -13.735  -1.933  0.00  0.00     0.014 A 
ATOM      9  C   UNL d   1      26.698 -12.526  -2.491  0.00  0.00     0.037 A 
ATOM     10  C   UNL d   1      26.422 -12.238  -3.832  0.00  0.00     0.102 A 
ATOM     11  C   UNL d   1      25.653 -13.125  -4.593  0.00  0.00     0.037 A 
ATOM     12  C   UNL d   1      25.170 -14.306  -4.012  0.00  0.00     0.014 A 
BRANCH  10  13
ATOM     13  N   UNL d   1      26.983 -11.031  -4.458  0.00  0.00    -0.116 N 
ATOM     14  O   UNL d   1      27.732 -10.320  -3.774  0.00  0.00    -0.532 OA
ATOM     15  O   UNL d   1      26.690 -10.806  -5.642  0.00  0.00    -0.532 OA
ENDBRANCH  10  13
ENDBRANCH   6   7
ENDBRANCH   2   5
BRANCH   1  16
ATOM     16  N   UNL d   1      22.463 -18.894  -0.318  0.00  0.00    -0.267 N 
ATOM     17  C   UNL d   1      21.111 -18.939  -0.626  0.00  0.00     0.236 C 
ATOM     18  O   UNL d   1      20.563 -18.043  -1.270  0.00  0.00    -0.272 OA
ATOM     19  H   UNL d   1      22.960 -19.618   0.197  0.00  0.00     0.190 HD
BRANCH  17  20
ATOM     20  C   UNL d   1      20.367 -20.179  -0.124  0.00  0.00     0.105 C 
BRANCH  20  21
ATOM     21  C   UNL d   1      18.896 -19.878   0.225  0.00  0.00     0.013 C 
BRANCH  21  22
ATOM     22  C   UNL d   1      18.419 -20.494   1.558  0.00  0.00    -0.022 C 
ATOM     23  C   UNL d   1      17.983 -21.950   1.351  0.00  0.00     0.009 C 
ATOM     24  C   UNL d   1      19.515 -20.449   2.622  0.00  0.00     0.009 C 
ENDBRANCH  21  22
ENDBRANCH  20  21
ENDBRANCH  17  20
ENDBRANCH   1  16
TORSDOF 7
ENDMDL
MODEL 3
REMARK VINA RESULT:    -7.303      1.679      2.143
REMARK INTER + INTRA:         -10.456
REMARK INTER:                  -9.391
REMARK INTRA:                  -1.065
REMARK CONF_INDEPENDENT:        2.088
REMARK UNBOUND:                -1.065
REMARK  7 active torsions:
REMARK  status: ('A' for Active; 'I' for Inactive)
REMARK    1  A    between atoms: C_2  and  C_4 
REMARK    2  A    between atoms: C_4  and  C_5 
REMARK    3  A    between atoms: C_5  and  C_6 
REMARK       I    between atoms: C_6  and  N_8 
REMARK    4  A    between atoms: N_8  and  N_9 
REMARK       I    between atoms: N_9  and  C_10 
REMARK    5  A    between atoms: C_10  and  C_12 
REMARK    6  A    between atoms: C_13  and  C_14 
REMARK    7  A    between atoms: C_17  and  N_18 
ROOT
ATOM      1  N   UNL d   1      23.020 -17.664  -0.981  0.00  0.00    -0.264 N 
ATOM      2  C   UNL d   1      24.255 -17.650  -0.359  0.00  0.00     0.259 C 
ATOM      3  O   UNL d   1      24.410 -17.973   0.820  0.00  0.00    -0.267 OA
ATOM      4  H   UNL d   1      22.856 -17.401  -1.952  0.00  0.00     0.190 HD
ENDROOT
BRANCH   2   5
ATOM      5  C   UNL d   1      25.401 -17.200  -1.220  0.00  0.00     0.076 C 
ATOM      6  C   UNL d   1      25.249 -16.216  -2.131  0.00  0.00     0.017 C 
BRANCH   6   7
ATOM      7  C   UNL d   1      26.272 -15.752  -3.101  0.00  0.00    -0.036 A 
ATOM      8  C   UNL d   1      25.894 -15.355  -4.397  0.00  0.00     0.014 A 
ATOM      9  C   UNL d   1      26.856 -15.117  -5.396  0.00  0.00     0.037 A 
ATOM     10  C   UNL d   1      28.216 -15.200  -5.078  0.00  0.00     0.102 A 
ATOM     11  C   UNL d   1      28.612 -15.571  -3.789  0.00  0.00     0.037 A 
ATOM     12  C   UNL d   1      27.642 -15.849  -2.814  0.00  0.00     0.014 A 
BRANCH  10  13
ATOM     13  N   UNL d   1      29.230 -14.847  -6.082  0.00  0.00    -0.116 N 
ATOM     14  O   UNL d   1      30.406 -15.167  -5.855  0.00  0.00    -0.532 OA
ATOM     15  O   UNL d   1      28.847 -14.268  -7.110  0.00  0.00    -0.532 OA
ENDBRANCH  10  13
ENDBRANCH   6   7
ENDBRANCH   2   5
BRANCH   1  16
ATOM     16  N   UNL d   1      21.864 -18.075  -0.255  0.00  0.00    -0.267 N 
ATOM     17  C   UNL d   1      20.954 -18.925  -0.867  0.00  0.00     0.236 C 
ATOM     18  O   UNL d   1      21.117 -19.326  -2.020  0.00  0.00    -0.272 OA
ATOM     19  H   UNL d   1      21.778 -17.731   0.700  0.00  0.00     0.190 HD
BRANCH  17  20
ATOM     20  C   UNL d   1      19.757 -19.331  -0.004  0.00  0.00     0.105 C 
BRANCH  20  21
ATOM     21  C   UNL d   1      19.974 -20.686   0.697  0.00  0.00     0.013 C 
BRANCH  21  22
ATOM     22  C   UNL d   1      18.760 -21.182   1.513  0.00  0.00    -0.022 C 
ATOM     23  C   UNL d   1      18.272 -20.085   2.468  0.00  0.00     0.009 C 
ATOM     24  C   UNL d   1      17.606 -21.603   0.605  0.00  0.00     0.009 C 
ENDBRANCH  21  22
ENDBRANCH  20  21
ENDBRANCH  17  20
ENDBRANCH   1  16
TORSDOF 7
ENDMDL
MODEL 4
REMARK VINA RESULT:    -6.983      2.627      9.954
REMARK INTER + INTRA:         -10.453
REMARK INTER:                  -9.071
REMARK INTRA:                  -1.382
REMARK CONF_INDEPENDENT:        2.088
REMARK UNBOUND:                -1.382
REMARK  7 active torsions:
REMARK  status: ('A' for Active; 'I' for Inactive)
REMARK    1  A    between atoms: C_2  and  C_4 
REMARK    2  A    between atoms: C_4  and  C_5 
REMARK    3  A    between atoms: C_5  and  C_6 
REMARK       I    between atoms: C_6  and  N_8 
REMARK    4  A    between atoms: N_8  and  N_9 
REMARK       I    between atoms: N_9  and  C_10 
REMARK    5  A    between atoms: C_10  and  C_12 
REMARK    6  A    between atoms: C_13  and  C_14 
REMARK    7  A    between atoms: C_17  and  N_18 
ROOT
ATOM      1  N   UNL d   1      24.686 -15.917  -1.642  0.00  0.00    -0.264 N 
ATOM      2  C   UNL d   1      25.067 -16.872  -0.716  0.00  0.00     0.259 C 
ATOM      3  O   UNL d   1      26.192 -16.902  -0.215  0.00  0.00    -0.267 OA
ATOM      4  H   UNL d   1      23.766 -15.866  -2.077  0.00  0.00     0.190 HD
ENDROOT
BRANCH   2   5
ATOM      5  C   UNL d   1      24.012 -17.885  -0.369  0.00  0.00     0.076 C 
ATOM      6  C   UNL d   1      22.749 -17.768  -0.832  0.00  0.00     0.017 C 
BRANCH   6   7
ATOM      7  C   UNL d   1      21.603 -18.643  -0.486  0.00  0.00    -0.036 A 
ATOM      8  C   UNL d   1      20.695 -19.053  -1.480  0.00  0.00     0.014 A 
ATOM      9  C   UNL d   1      19.491 -19.700  -1.146  0.00  0.00     0.037 A 
ATOM     10  C   UNL d   1      19.224 -20.013   0.192  0.00  0.00     0.102 A 
ATOM     11  C   UNL d   1      20.125 -19.634   1.192  0.00  0.00     0.037 A 
ATOM     12  C   UNL d   1      21.301 -18.950   0.850  0.00  0.00     0.014 A 
BRANCH  10  13
ATOM     13  N   UNL d   1      18.023 -20.786   0.541  0.00  0.00    -0.116 N 
ATOM     14  O   UNL d   1      17.282 -21.154  -0.382  0.00  0.00    -0.532 OA
ATOM     15  O   UNL d   1      17.831 -21.043   1.739  0.00  0.00    -0.532 OA
ENDBRANCH  10  13
ENDBRANCH   6   7
ENDBRANCH   2   5
BRANCH   1  16
ATOM     16  N   UNL d   1      25.610 -14.909  -2.042  0.00  0.00    -0.267 N 
ATOM     17  C   UNL d   1      25.308 -14.120  -3.143  0.00  0.00     0.236 C 
ATOM     18  O   UNL d   1      24.268 -14.275  -3.784  0.00  0.00    -0.272 OA
ATOM     19  H   UNL d   1      26.448 -14.806  -1.473  0.00  0.00     0.190 HD
BRANCH  17  20
ATOM     20  C   UNL d   1      26.346 -13.049  -3.484  0.00  0.00     0.105 C 
BRANCH  20  21
ATOM     21  C   UNL d   1      26.421 -12.767  -4.997  0.00  0.00     0.013 C 
BRANCH  21  22
ATOM     22  C   UNL d   1      25.855 -11.393  -5.418  0.00  0.00    -0.022 C 
ATOM     23  C   UNL d   1      26.191 -10.330  -4.363  0.00  0.00     0.009 C 
ATOM     24  C   UNL d   1      26.409 -10.946  -6.770  0.00  0.00     0.009 C 
ENDBRANCH  21  22
ENDBRANCH  20  21
ENDBRANCH  17  20
ENDBRANCH   1  16
TORSDOF 7
ENDMDL
MODEL 5
REMARK VINA RESULT:    -6.870      4.866      9.034
REMARK INTER + INTRA:         -10.458
REMARK INTER:                  -8.958
REMARK INTRA:                  -1.500
REMARK CONF_INDEPENDENT:        2.088
REMARK UNBOUND:                -1.500
REMARK  7 active torsions:
REMARK  status: ('A' for Active; 'I' for Inactive)
REMARK    1  A    between atoms: C_2  and  C_4 
REMARK    2  A    between atoms: C_4  and  C_5 
REMARK    3  A    between atoms: C_5  and  C_6 
REMARK       I    between atoms: C_6  and  N_8 
REMARK    4  A    between atoms: N_8  and  N_9 
REMARK       I    between atoms: N_9  and  C_10 
REMARK    5  A    between atoms: C_10  and  C_12 
REMARK    6  A    between atoms: C_13  and  C_14 
REMARK    7  A    between atoms: C_17  and  N_18 
ROOT
ATOM      1  N   UNL d   1      27.925 -15.561   0.952  0.00  0.00    -0.264 N 
ATOM      2  C   UNL d   1      28.068 -16.709   0.192  0.00  0.00     0.259 C 
ATOM      3  O   UNL d   1      29.156 -17.260   0.018  0.00  0.00    -0.267 OA
ATOM      4  H   UNL d   1      27.041 -15.079   1.113  0.00  0.00     0.190 HD
ENDROOT
BRANCH   2   5
ATOM      5  C   UNL d   1      26.800 -17.234  -0.421  0.00  0.00     0.076 C 
ATOM      6  C   UNL d   1      25.592 -16.926   0.097  0.00  0.00     0.017 C 
BRANCH   6   7
ATOM      7  C   UNL d   1      24.282 -17.456  -0.357  0.00  0.00    -0.036 A 
ATOM      8  C   UNL d   1      23.230 -16.576  -0.671  0.00  0.00     0.014 A 
ATOM      9  C   UNL d   1      21.925 -17.051  -0.895  0.00  0.00     0.037 A 
ATOM     10  C   UNL d   1      21.680 -18.429  -0.883  0.00  0.00     0.102 A 
ATOM     11  C   UNL d   1      22.718 -19.321  -0.595  0.00  0.00     0.037 A 
ATOM     12  C   UNL d   1      24.006 -18.831  -0.330  0.00  0.00     0.014 A 
BRANCH  10  13
ATOM     13  N   UNL d   1      20.345 -18.943  -1.224  0.00  0.00    -0.116 N 
ATOM     14  O   UNL d   1      19.362 -18.265  -0.894  0.00  0.00    -0.532 OA
ATOM     15  O   UNL d   1      20.282 -20.016  -1.842  0.00  0.00    -0.532 OA
ENDBRANCH  10  13
ENDBRANCH   6   7
ENDBRANCH   2   5
BRANCH   1  16
ATOM     16  N   UNL d   1      29.064 -14.979   1.579  0.00  0.00    -0.267 N 
ATOM     17  C   UNL d   1      28.953 -13.708   2.125  0.00  0.00     0.236 C 
ATOM     18  O   UNL d   1      27.900 -13.071   2.074  0.00  0.00    -0.272 OA
ATOM     19  H   UNL d   1      29.908 -15.548   1.612  0.00  0.00     0.190 HD
BRANCH  17  20
ATOM     20  C   UNL d   1      30.219 -13.174   2.798  0.00  0.00     0.105 C 
BRANCH  20  21
ATOM     21  C   UNL d   1      30.271 -13.512   4.301  0.00  0.00     0.013 C 
BRANCH  21  22
ATOM     22  C   UNL d   1      28.888 -13.599   4.982  0.00  0.00    -0.022 C 
ATOM     23  C   UNL d   1      28.818 -14.825   5.901  0.00  0.00     0.009 C 
ATOM     24  C   UNL d   1      28.584 -12.345   5.800  0.00  0.00     0.009 C 
ENDBRANCH  21  22
ENDBRANCH  20  21
ENDBRANCH  17  20
ENDBRANCH   1  16
TORSDOF 7
ENDMDL
MODEL 6
REMARK VINA RESULT:    -6.488      2.584      9.650
REMARK INTER + INTRA:         -10.218
REMARK INTER:                  -8.576
REMARK INTRA:                  -1.642
REMARK CONF_INDEPENDENT:        2.088
REMARK UNBOUND:                -1.642
REMARK  7 active torsions:
REMARK  status: ('A' for Active; 'I' for Inactive)
REMARK    1  A    between atoms: C_2  and  C_4 
REMARK    2  A    between atoms: C_4  and  C_5 
REMARK    3  A    between atoms: C_5  and  C_6 
REMARK       I    between atoms: C_6  and  N_8 
REMARK    4  A    between atoms: N_8  and  N_9 
REMARK       I    between atoms: N_9  and  C_10 
REMARK    5  A    between atoms: C_10  and  C_12 
REMARK    6  A    between atoms: C_13  and  C_14 
REMARK    7  A    between atoms: C_17  and  N_18 
ROOT
ATOM      1  N   UNL d   1      24.734 -15.970  -2.299  0.00  0.00    -0.264 N 
ATOM      2  C   UNL d   1      25.194 -16.917  -1.402  0.00  0.00     0.259 C 
ATOM      3  O   UNL d   1      26.394 -17.116  -1.200  0.00  0.00    -0.267 OA
ATOM      4  H   UNL d   1      23.751 -15.782  -2.491  0.00  0.00     0.190 HD
ENDROOT
BRANCH   2   5
ATOM      5  C   UNL d   1      24.125 -17.701  -0.693  0.00  0.00     0.076 C 
ATOM      6  C   UNL d   1      23.032 -18.145  -1.348  0.00  0.00     0.017 C 
BRANCH   6   7
ATOM      7  C   UNL d   1      21.870 -18.842  -0.744  0.00  0.00    -0.036 A 
ATOM      8  C   UNL d   1      20.780 -19.233  -1.544  0.00  0.00     0.014 A 
ATOM      9  C   UNL d   1      19.583 -19.698  -0.969  0.00  0.00     0.037 A 
ATOM     10  C   UNL d   1      19.498 -19.850   0.419  0.00  0.00     0.102 A 
ATOM     11  C   UNL d   1      20.578 -19.487   1.230  0.00  0.00     0.037 A 
ATOM     12  C   UNL d   1      21.750 -18.983   0.647  0.00  0.00     0.014 A 
BRANCH  10  13
ATOM     13  N   UNL d   1      18.293 -20.438   1.023  0.00  0.00    -0.116 N 
ATOM     14  O   UNL d   1      18.065 -20.193   2.216  0.00  0.00    -0.532 OA
ATOM     15  O   UNL d   1      17.562 -21.128   0.296  0.00  0.00    -0.532 OA
ENDBRANCH  10  13
ENDBRANCH   6   7
ENDBRANCH   2   5
BRANCH   1  16
ATOM     16  N   UNL d   1      25.663 -15.170  -3.024  0.00  0.00    -0.267 N 
ATOM     17  C   UNL d   1      25.182 -14.241  -3.936  0.00  0.00     0.236 C 
ATOM     18  O   UNL d   1      23.975 -14.097  -4.136  0.00  0.00    -0.272 OA
ATOM     19  H   UNL d   1      26.650 -15.311  -2.815  0.00  0.00     0.190 HD
BRANCH  17  20
ATOM     20  C   UNL d   1      26.250 -13.412  -4.650  0.00  0.00     0.105 C 
BRANCH  20  21
ATOM     21  C   UNL d   1      27.601 -13.433  -3.908  0.00  0.00     0.013 C 
BRANCH  21  22
ATOM     22  C   UNL d   1      28.629 -14.431  -4.485  0.00  0.00    -0.022 C 
ATOM     23  C   UNL d   1      29.067 -15.432  -3.408  0.00  0.00     0.009 C 
ATOM     24  C   UNL d   1      28.059 -15.199  -5.677  0.00  0.00     0.009 C 
ENDBRANCH  21  22
ENDBRANCH  20  21
ENDBRANCH  17  20
ENDBRANCH   1  16
TORSDOF 7
ENDMDL
MODEL 7
REMARK VINA RESULT:    -6.095      2.829      4.113
REMARK INTER + INTRA:          -9.585
REMARK INTER:                  -8.183
REMARK INTRA:                  -1.402
REMARK CONF_INDEPENDENT:        2.088
REMARK UNBOUND:                -1.402
REMARK  7 active torsions:
REMARK  status: ('A' for Active; 'I' for Inactive)
REMARK    1  A    between atoms: C_2  and  C_4 
REMARK    2  A    between atoms: C_4  and  C_5 
REMARK    3  A    between atoms: C_5  and  C_6 
REMARK       I    between atoms: C_6  and  N_8 
REMARK    4  A    between atoms: N_8  and  N_9 
REMARK       I    between atoms: N_9  and  C_10 
REMARK    5  A    between atoms: C_10  and  C_12 
REMARK    6  A    between atoms: C_13  and  C_14 
REMARK    7  A    between atoms: C_17  and  N_18 
ROOT
ATOM      1  N   UNL d   1      25.232 -16.419  -2.120  0.00  0.00    -0.264 N 
ATOM      2  C   UNL d   1      25.346 -15.331  -2.967  0.00  0.00     0.259 C 
ATOM      3  O   UNL d   1      24.409 -14.563  -3.192  0.00  0.00    -0.267 OA
ATOM      4  H   UNL d   1      25.985 -17.075  -1.914  0.00  0.00     0.190 HD
ENDROOT
BRANCH   2   5
ATOM      5  C   UNL d   1      26.695 -15.155  -3.605  0.00  0.00     0.076 C 
ATOM      6  C   UNL d   1      26.835 -15.114  -4.947  0.00  0.00     0.017 C 
BRANCH   6   7
ATOM      7  C   UNL d   1      28.115 -15.041  -5.694  0.00  0.00    -0.036 A 
ATOM      8  C   UNL d   1      29.154 -15.947  -5.414  0.00  0.00     0.014 A 
ATOM      9  C   UNL d   1      30.442 -15.768  -5.950  0.00  0.00     0.037 A 
ATOM     10  C   UNL d   1      30.679 -14.714  -6.840  0.00  0.00     0.102 A 
ATOM     11  C   UNL d   1      29.652 -13.815  -7.148  0.00  0.00     0.037 A 
ATOM     12  C   UNL d   1      28.384 -13.980  -6.572  0.00  0.00     0.014 A 
BRANCH  10  13
ATOM     13  N   UNL d   1      31.990 -14.581  -7.492  0.00  0.00    -0.116 N 
ATOM     14  O   UNL d   1      32.334 -15.466  -8.288  0.00  0.00    -0.532 OA
ATOM     15  O   UNL d   1      32.668 -13.578  -7.223  0.00  0.00    -0.532 OA
ENDBRANCH  10  13
ENDBRANCH   6   7
ENDBRANCH   2   5
BRANCH   1  16
ATOM     16  N   UNL d   1      23.995 -16.679  -1.461  0.00  0.00    -0.267 N 
ATOM     17  C   UNL d   1      23.901 -17.779  -0.619  0.00  0.00     0.236 C 
ATOM     18  O   UNL d   1      24.855 -18.536  -0.435  0.00  0.00    -0.272 OA
ATOM     19  H   UNL d   1      23.239 -16.018  -1.631  0.00  0.00     0.190 HD
BRANCH  17  20
ATOM     20  C   UNL d   1      22.544 -17.965   0.062  0.00  0.00     0.105 C 
BRANCH  20  21
ATOM     21  C   UNL d   1      21.482 -18.541  -0.896  0.00  0.00     0.013 C 
BRANCH  21  22
ATOM     22  C   UNL d   1      20.557 -19.600  -0.258  0.00  0.00    -0.022 C 
ATOM     23  C   UNL d   1      20.422 -19.356   1.250  0.00  0.00     0.009 C 
ATOM     24  C   UNL d   1      19.167 -19.588  -0.892  0.00  0.00     0.009 C 
ENDBRANCH  21  22
ENDBRANCH  20  21
ENDBRANCH  17  20
ENDBRANCH   1  16
TORSDOF 7
ENDMDL
MODEL 8
REMARK VINA RESULT:    -6.009      2.769      3.031
REMARK INTER + INTRA:          -9.498
REMARK INTER:                  -8.097
REMARK INTRA:                  -1.400
REMARK CONF_INDEPENDENT:        2.088
REMARK UNBOUND:                -1.400
REMARK  7 active torsions:
REMARK  status: ('A' for Active; 'I' for Inactive)
REMARK    1  A    between atoms: C_2  and  C_4 
REMARK    2  A    between atoms: C_4  and  C_5 
REMARK    3  A    between atoms: C_5  and  C_6 
REMARK       I    between atoms: C_6  and  N_8 
REMARK    4  A    between atoms: N_8  and  N_9 
REMARK       I    between atoms: N_9  and  C_10 
REMARK    5  A    between atoms: C_10  and  C_12 
REMARK    6  A    between atoms: C_13  and  C_14 
REMARK    7  A    between atoms: C_17  and  N_18 
ROOT
ATOM      1  N   UNL d   1      23.654 -17.798  -0.429  0.00  0.00    -0.264 N 
ATOM      2  C   UNL d   1      25.016 -17.894  -0.209  0.00  0.00     0.259 C 
ATOM      3  O   UNL d   1      25.549 -18.915   0.230  0.00  0.00    -0.267 OA
ATOM      4  H   UNL d   1      23.181 -16.969  -0.788  0.00  0.00     0.190 HD
ENDROOT
BRANCH   2   5
ATOM      5  C   UNL d   1      25.806 -16.658  -0.532  0.00  0.00     0.076 C 
ATOM      6  C   UNL d   1      27.127 -16.721  -0.803  0.00  0.00     0.017 C 
BRANCH   6   7
ATOM      7  C   UNL d   1      28.030 -15.568  -1.041  0.00  0.00    -0.036 A 
ATOM      8  C   UNL d   1      28.233 -14.605  -0.036  0.00  0.00     0.014 A 
ATOM      9  C   UNL d   1      28.908 -13.400  -0.306  0.00  0.00     0.037 A 
ATOM     10  C   UNL d   1      29.456 -13.186  -1.575  0.00  0.00     0.102 A 
ATOM     11  C   UNL d   1      29.284 -14.142  -2.582  0.00  0.00     0.037 A 
ATOM     12  C   UNL d   1      28.571 -15.319  -2.312  0.00  0.00     0.014 A 
BRANCH  10  13
ATOM     13  N   UNL d   1      30.257 -11.981  -1.838  0.00  0.00    -0.116 N 
ATOM     14  O   UNL d   1      31.287 -12.107  -2.515  0.00  0.00    -0.532 OA
ATOM     15  O   UNL d   1      29.844 -10.903  -1.384  0.00  0.00    -0.532 OA
ENDBRANCH  10  13
ENDBRANCH   6   7
ENDBRANCH   2   5
BRANCH   1  16
ATOM     16  N   UNL d   1      22.810 -18.914  -0.156  0.00  0.00    -0.267 N 
ATOM     17  C   UNL d   1      21.458 -18.822  -0.452  0.00  0.00     0.236 C 
ATOM     18  O   UNL d   1      20.970 -17.800  -0.936  0.00  0.00    -0.272 OA
ATOM     19  H   UNL d   1      23.259 -19.743   0.230  0.00  0.00     0.190 HD
BRANCH  17  20
ATOM     20  C   UNL d   1      20.635 -20.075  -0.147  0.00  0.00     0.105 C 
BRANCH  20  21
ATOM     21  C   UNL d   1      19.131 -19.769  -0.010  0.00  0.00     0.013 C 
BRANCH  21  22
ATOM     22  C   UNL d   1      18.475 -20.348   1.263  0.00  0.00    -0.022 C 
ATOM     23  C   UNL d   1      17.894 -21.740   0.980  0.00  0.00     0.009 C 
ATOM     24  C   UNL d   1      19.475 -20.450   2.413  0.00  0.00     0.009 C 
ENDBRANCH  21  22
ENDBRANCH  20  21
ENDBRANCH  17  20
ENDBRANCH   1  16
TORSDOF 7
ENDMDL
MODEL 9
REMARK VINA RESULT:    -5.992      3.080      9.872
REMARK INTER + INTRA:          -9.624
REMARK INTER:                  -8.081
REMARK INTRA:                  -1.543
REMARK CONF_INDEPENDENT:        2.088
REMARK UNBOUND:                -1.543
REMARK  7 active torsions:
REMARK  status: ('A' for Active; 'I' for Inactive)
REMARK    1  A    between atoms: C_2  and  C_4 
REMARK    2  A    between atoms: C_4  and  C_5 
REMARK    3  A    between atoms: C_5  and  C_6 
REMARK       I    between atoms: C_6  and  N_8 
REMARK    4  A    between atoms: N_8  and  N_9 
REMARK       I    between atoms: N_9  and  C_10 
REMARK    5  A    between atoms: C_10  and  C_12 
REMARK    6  A    between atoms: C_13  and  C_14 
REMARK    7  A    between atoms: C_17  and  N_18 
ROOT
ATOM      1  N   UNL d   1      25.420 -16.734  -1.321  0.00  0.00    -0.264 N 
ATOM      2  C   UNL d   1      24.163 -16.191  -1.520  0.00  0.00     0.259 C 
ATOM      3  O   UNL d   1      23.965 -15.226  -2.260  0.00  0.00    -0.267 OA
ATOM      4  H   UNL d   1      25.619 -17.529  -0.714  0.00  0.00     0.190 HD
ENDROOT
BRANCH   2   5
ATOM      5  C   UNL d   1      23.051 -16.855  -0.759  0.00  0.00     0.076 C 
ATOM      6  C   UNL d   1      22.677 -18.124  -1.028  0.00  0.00     0.017 C 
BRANCH   6   7
ATOM      7  C   UNL d   1      21.539 -18.853  -0.416  0.00  0.00    -0.036 A 
ATOM      8  C   UNL d   1      20.481 -19.320  -1.218  0.00  0.00     0.014 A 
ATOM      9  C   UNL d   1      19.298 -19.820  -0.644  0.00  0.00     0.037 A 
ATOM     10  C   UNL d   1      19.197 -19.928   0.748  0.00  0.00     0.102 A 
ATOM     11  C   UNL d   1      20.247 -19.489   1.561  0.00  0.00     0.037 A 
ATOM     12  C   UNL d   1      21.405 -18.952   0.977  0.00  0.00     0.014 A 
BRANCH  10  13
ATOM     13  N   UNL d   1      18.011 -20.550   1.355  0.00  0.00    -0.116 N 
ATOM     14  O   UNL d   1      17.679 -20.178   2.489  0.00  0.00    -0.532 OA
ATOM     15  O   UNL d   1      17.397 -21.395   0.686  0.00  0.00    -0.532 OA
ENDBRANCH  10  13
ENDBRANCH   6   7
ENDBRANCH   2   5
BRANCH   1  16
ATOM     16  N   UNL d   1      26.547 -16.181  -1.995  0.00  0.00    -0.267 N 
ATOM     17  C   UNL d   1      27.818 -16.616  -1.647  0.00  0.00     0.236 C 
ATOM     18  O   UNL d   1      27.995 -17.460  -0.768  0.00  0.00    -0.272 OA
ATOM     19  H   UNL d   1      26.353 -15.498  -2.725  0.00  0.00     0.190 HD
BRANCH  17  20
ATOM     20  C   UNL d   1      28.964 -15.984  -2.439  0.00  0.00     0.105 C 
BRANCH  20  21
ATOM     21  C   UNL d   1      28.497 -14.788  -3.292  0.00  0.00     0.013 C 
BRANCH  21  22
ATOM     22  C   UNL d   1      28.223 -15.131  -4.773  0.00  0.00    -0.022 C 
ATOM     23  C   UNL d   1      26.732 -14.963  -5.094  0.00  0.00     0.009 C 
ATOM     24  C   UNL d   1      29.038 -14.247  -5.715  0.00  0.00     0.009 C 
ENDBRANCH  21  22
ENDBRANCH  20  21
ENDBRANCH  17  20
ENDBRANCH   1  16
TORSDOF 7
ENDMDL
