MODEL 1
REMARK VINA RESULT:   -10.351      0.000      0.000
REMARK INTER + INTRA:         -14.386
REMARK INTER:                 -12.738
REMARK INTRA:                  -1.648
REMARK CONF_INDEPENDENT:        2.386
REMARK UNBOUND:                -1.648
REMARK  8 active torsions:
REMARK  status: ('A' for Active; 'I' for Inactive)
REMARK    1  A    between atoms: O_2  and  C_3 
REMARK    2  A    between atoms: C_6  and  N_7 
REMARK       I    between atoms: N_7  and  C_8 
REMARK       I    between atoms: C_8  and  N_22 
REMARK       I    between atoms: N_9  and  C_10 
REMARK    3  A    between atoms: C_10  and  C_12 
REMARK    4  A    between atoms: C_15  and  N_16 
REMARK       I    between atoms: N_16  and  C_17 
REMARK    5  A    between atoms: N_22  and  C_23 
REMARK    6  A    between atoms: C_23  and  C_24 
REMARK    7  A    between atoms: C_24  and  C_25 
REMARK    8  A    between atoms: C_35  and  O_36 
ROOT
ATOM      1  N   UNL d   1      29.499 -15.540   0.608  0.00  0.00    -0.190 N 
ATOM      2  C   UNL d   1      29.353 -16.785  -0.046  0.00  0.00     0.704 C 
ATOM      3  N   UNL d   1      28.287 -17.400  -0.470  0.00  0.00    -0.023 NA
ATOM      4  C   UNL d   1      27.118 -17.125   0.177  0.00  0.00     0.293 C 
ATOM      5  O   UNL d   1      27.030 -17.125   1.389  0.00  0.00    -0.265 OA
ATOM      6  N   UNL d   1      30.523 -17.516  -0.309  0.00  0.00    -0.224 N 
ATOM      7  H   UNL d   1      30.374 -15.388   1.092  0.00  0.00     0.184 HD
ATOM      8  H   UNL d   1      31.377 -17.314   0.197  0.00  0.00     0.177 HD
ENDROOT
BRANCH   1   9
ATOM      9  C   UNL d   1      28.484 -14.580   0.980  0.00  0.00     0.052 C 
ATOM     10  C   UNL d   1      27.875 -13.679   0.118  0.00  0.00     0.033 C 
ATOM     11  C   UNL d   1      27.112 -12.564   0.628  0.00  0.00     0.042 C 
ATOM     12  C   UNL d   1      27.015 -12.243   2.000  0.00  0.00     0.101 C 
ATOM     13  C   UNL d   1      27.613 -13.151   2.831  0.00  0.00     0.103 C 
ATOM     14  C   UNL d   1      28.042 -14.398   2.280  0.00  0.00     0.069 C 
BRANCH  12  15
ATOM     15  O   UNL d   1      26.077 -11.307   2.355  0.00  0.00    -0.353 OA
ATOM     16  C   UNL d   1      26.406  -9.965   2.708  0.00  0.00     0.210 C 
ENDBRANCH  12  15
BRANCH  13  17
ATOM     17  O   UNL d   1      28.001 -13.024   4.127  0.00  0.00    -0.353 OA
ATOM     18  C   UNL d   1      27.934 -14.062   5.053  0.00  0.00     0.210 C 
ENDBRANCH  13  17
ENDBRANCH   1   9
BRANCH   6  19
ATOM     19  C   UNL d   1      30.399 -18.881  -0.895  0.00  0.00     0.142 C 
BRANCH  19  20
ATOM     20  C   UNL d   1      31.588 -19.324  -1.736  0.00  0.00     0.057 C 
BRANCH  20  21
ATOM     21  C   UNL d   1      31.306 -20.130  -2.985  0.00  0.00    -0.048 A 
ATOM     22  C   UNL d   1      31.117 -19.511  -4.152  0.00  0.00    -0.006 A 
ATOM     23  C   UNL d   1      31.129 -18.131  -4.475  0.00  0.00     0.014 A 
ATOM     24  C   UNL d   1      30.806 -20.545  -5.146  0.00  0.00     0.038 A 
ATOM     25  C   UNL d   1      30.719 -17.761  -5.691  0.00  0.00     0.001 A 
ATOM     26  C   UNL d   1      30.422 -18.746  -6.718  0.00  0.00     0.002 A 
ATOM     27  C   UNL d   1      30.456 -20.081  -6.509  0.00  0.00     0.030 A 
ATOM     28  N   UNL d   1      30.881 -21.717  -4.637  0.00  0.00    -0.385 N 
ATOM     29  C   UNL d   1      31.152 -21.620  -3.161  0.00  0.00     0.155 A 
ATOM     30  H   UNL d   1      30.771 -22.561  -5.199  0.00  0.00     0.160 HD
ENDBRANCH  20  21
ENDBRANCH  19  20
ENDBRANCH   6  19
BRANCH   4  31
ATOM     31  C   UNL d   1      25.866 -17.272  -0.641  0.00  0.00     0.035 C 
ATOM     32  C   UNL d   1      24.873 -16.357  -1.100  0.00  0.00     0.019 C 
ATOM     33  C   UNL d   1      23.531 -16.784  -1.270  0.00  0.00     0.030 C 
ATOM     34  C   UNL d   1      23.226 -18.124  -1.066  0.00  0.00     0.034 C 
ATOM     35  C   UNL d   1      24.211 -18.923  -0.520  0.00  0.00     0.030 C 
ATOM     36  C   UNL d   1      25.526 -18.575  -0.446  0.00  0.00     0.019 C 
BRANCH  34  37
ATOM     37  N   UNL d   1      21.978 -18.658  -1.416  0.00  0.00    -0.328 N 
ATOM     38  C   UNL d   1      20.993 -19.155  -0.597  0.00  0.00     0.218 C 
ATOM     39  C   UNL d   1      21.044 -19.084   0.918  0.00  0.00     0.117 C 
ATOM     40  O   UNL d   1      20.019 -19.700  -1.125  0.00  0.00    -0.274 OA
ATOM     41  H   UNL d   1      21.815 -18.893  -2.391  0.00  0.00     0.169 HD
ENDBRANCH  34  37
ENDBRANCH   4  31
TORSDOF 8
ENDMDL
MODEL 2
REMARK VINA RESULT:   -10.257      4.015      9.020
REMARK INTER + INTRA:         -14.173
REMARK INTER:                 -12.644
REMARK INTRA:                  -1.529
REMARK CONF_INDEPENDENT:        2.386
REMARK UNBOUND:                -1.529
REMARK  8 active torsions:
REMARK  status: ('A' for Active; 'I' for Inactive)
REMARK    1  A    between atoms: O_2  and  C_3 
REMARK    2  A    between atoms: C_6  and  N_7 
REMARK       I    between atoms: N_7  and  C_8 
REMARK       I    between atoms: C_8  and  N_22 
REMARK       I    between atoms: N_9  and  C_10 
REMARK    3  A    between atoms: C_10  and  C_12 
REMARK    4  A    between atoms: C_15  and  N_16 
REMARK       I    between atoms: N_16  and  C_17 
REMARK    5  A    between atoms: N_22  and  C_23 
REMARK    6  A    between atoms: C_23  and  C_24 
REMARK    7  A    between atoms: C_24  and  C_25 
REMARK    8  A    between atoms: C_35  and  O_36 
ROOT
ATOM      1  N   UNL d   1      25.155 -16.209  -3.077  0.00  0.00    -0.190 N 
ATOM      2  C   UNL d   1      25.077 -16.650  -1.736  0.00  0.00     0.704 C 
ATOM      3  N   UNL d   1      25.650 -16.195  -0.660  0.00  0.00    -0.023 NA
ATOM      4  C   UNL d   1      26.841 -15.547  -0.822  0.00  0.00     0.293 C 
ATOM      5  O   UNL d   1      27.741 -16.002  -1.500  0.00  0.00    -0.265 OA
ATOM      6  N   UNL d   1      24.253 -17.755  -1.468  0.00  0.00    -0.224 N 
ATOM      7  H   UNL d   1      24.856 -16.868  -3.783  0.00  0.00     0.184 HD
ATOM      8  H   UNL d   1      23.972 -18.378  -2.215  0.00  0.00     0.177 HD
ENDROOT
BRANCH   1   9
ATOM      9  C   UNL d   1      25.897 -15.099  -3.632  0.00  0.00     0.052 C 
ATOM     10  C   UNL d   1      25.450 -13.788  -3.702  0.00  0.00     0.033 C 
ATOM     11  C   UNL d   1      26.117 -12.819  -4.540  0.00  0.00     0.042 C 
ATOM     12  C   UNL d   1      27.178 -13.140  -5.415  0.00  0.00     0.101 C 
ATOM     13  C   UNL d   1      27.610 -14.436  -5.320  0.00  0.00     0.103 C 
ATOM     14  C   UNL d   1      27.138 -15.232  -4.232  0.00  0.00     0.069 C 
BRANCH  12  15
ATOM     15  O   UNL d   1      27.865 -12.091  -5.972  0.00  0.00    -0.353 OA
ATOM     16  C   UNL d   1      27.224 -10.958  -6.555  0.00  0.00     0.210 C 
ENDBRANCH  12  15
BRANCH  13  17
ATOM     17  O   UNL d   1      28.349 -15.174  -6.189  0.00  0.00    -0.353 OA
ATOM     18  C   UNL d   1      29.035 -14.627  -7.270  0.00  0.00     0.210 C 
ENDBRANCH  13  17
ENDBRANCH   1   9
BRANCH   6  19
ATOM     19  C   UNL d   1      24.234 -18.315  -0.086  0.00  0.00     0.142 C 
BRANCH  19  20
ATOM     20  C   UNL d   1      22.879 -18.261   0.605  0.00  0.00     0.057 C 
BRANCH  20  21
ATOM     21  C   UNL d   1      21.685 -18.818  -0.139  0.00  0.00    -0.048 A 
ATOM     22  C   UNL d   1      20.652 -19.325   0.537  0.00  0.00    -0.006 A 
ATOM     23  C   UNL d   1      20.439 -19.453   1.932  0.00  0.00     0.014 A 
ATOM     24  C   UNL d   1      19.695 -19.836  -0.451  0.00  0.00     0.038 A 
ATOM     25  C   UNL d   1      19.396 -20.176   2.350  0.00  0.00     0.001 A 
ATOM     26  C   UNL d   1      18.407 -20.683   1.413  0.00  0.00     0.002 A 
ATOM     27  C   UNL d   1      18.502 -20.541   0.072  0.00  0.00     0.030 A 
ATOM     28  N   UNL d   1      20.081 -19.585  -1.645  0.00  0.00    -0.385 N 
ATOM     29  C   UNL d   1      21.445 -18.950  -1.622  0.00  0.00     0.155 A 
ATOM     30  H   UNL d   1      19.505 -19.799  -2.460  0.00  0.00     0.160 HD
ENDBRANCH  20  21
ENDBRANCH  19  20
ENDBRANCH   6  19
BRANCH   4  31
ATOM     31  C   UNL d   1      27.166 -14.505   0.211  0.00  0.00     0.035 C 
ATOM     32  C   UNL d   1      27.030 -14.445   1.629  0.00  0.00     0.019 C 
ATOM     33  C   UNL d   1      26.794 -13.202   2.273  0.00  0.00     0.030 C 
ATOM     34  C   UNL d   1      26.787 -12.045   1.506  0.00  0.00     0.034 C 
ATOM     35  C   UNL d   1      26.816 -12.193   0.133  0.00  0.00     0.030 C 
ATOM     36  C   UNL d   1      27.146 -13.349  -0.506  0.00  0.00     0.019 C 
BRANCH  34  37
ATOM     37  N   UNL d   1      26.771 -10.772   2.092  0.00  0.00    -0.328 N 
ATOM     38  C   UNL d   1      27.255 -10.381   3.318  0.00  0.00     0.218 C 
ATOM     39  C   UNL d   1      28.049 -11.291   4.238  0.00  0.00     0.117 C 
ATOM     40  O   UNL d   1      27.019  -9.229   3.695  0.00  0.00    -0.274 OA
ATOM     41  H   UNL d   1      26.178 -10.061   1.675  0.00  0.00     0.169 HD
ENDBRANCH  34  37
ENDBRANCH   4  31
TORSDOF 8
ENDMDL
MODEL 3
REMARK VINA RESULT:   -10.002      3.253      4.846
REMARK INTER + INTRA:         -14.415
REMARK INTER:                 -12.388
REMARK INTRA:                  -2.027
REMARK CONF_INDEPENDENT:        2.386
REMARK UNBOUND:                -2.027
REMARK  8 active torsions:
REMARK  status: ('A' for Active; 'I' for Inactive)
REMARK    1  A    between atoms: O_2  and  C_3 
REMARK    2  A    between atoms: C_6  and  N_7 
REMARK       I    between atoms: N_7  and  C_8 
REMARK       I    between atoms: C_8  and  N_22 
REMARK       I    between atoms: N_9  and  C_10 
REMARK    3  A    between atoms: C_10  and  C_12 
REMARK    4  A    between atoms: C_15  and  N_16 
REMARK       I    between atoms: N_16  and  C_17 
REMARK    5  A    between atoms: N_22  and  C_23 
REMARK    6  A    between atoms: C_23  and  C_24 
REMARK    7  A    between atoms: C_24  and  C_25 
REMARK    8  A    between atoms: C_35  and  O_36 
ROOT
ATOM      1  N   UNL d   1      28.745 -13.992  -0.459  0.00  0.00    -0.190 N 
ATOM      2  C   UNL d   1      28.348 -14.839  -1.518  0.00  0.00     0.704 C 
ATOM      3  N   UNL d   1      27.474 -15.803  -1.550  0.00  0.00    -0.023 NA
ATOM      4  C   UNL d   1      27.231 -16.455  -0.376  0.00  0.00     0.293 C 
ATOM      5  O   UNL d   1      28.126 -16.853   0.344  0.00  0.00    -0.265 OA
ATOM      6  N   UNL d   1      28.965 -14.646  -2.765  0.00  0.00    -0.224 N 
ATOM      7  H   UNL d   1      29.625 -13.508  -0.578  0.00  0.00     0.184 HD
ATOM      8  H   UNL d   1      29.842 -14.143  -2.829  0.00  0.00     0.177 HD
ENDROOT
BRANCH   1   9
ATOM      9  C   UNL d   1      28.268 -13.951   0.906  0.00  0.00     0.052 C 
ATOM     10  C   UNL d   1      27.114 -13.314   1.335  0.00  0.00     0.033 C 
ATOM     11  C   UNL d   1      26.882 -13.062   2.739  0.00  0.00     0.042 C 
ATOM     12  C   UNL d   1      27.831 -13.335   3.749  0.00  0.00     0.101 C 
ATOM     13  C   UNL d   1      28.956 -13.974   3.304  0.00  0.00     0.103 C 
ATOM     14  C   UNL d   1      28.960 -14.497   1.974  0.00  0.00     0.069 C 
BRANCH  12  15
ATOM     15  O   UNL d   1      27.393 -13.265   5.048  0.00  0.00    -0.353 OA
ATOM     16  C   UNL d   1      28.125 -12.615   6.086  0.00  0.00     0.210 C 
ENDBRANCH  12  15
BRANCH  13  17
ATOM     17  O   UNL d   1      30.177 -14.099   3.887  0.00  0.00    -0.353 OA
ATOM     18  C   UNL d   1      31.235 -14.798   3.310  0.00  0.00     0.210 C 
ENDBRANCH  13  17
ENDBRANCH   1   9
BRANCH   6  19
ATOM     19  C   UNL d   1      28.654 -15.593  -3.874  0.00  0.00     0.142 C 
BRANCH  19  20
ATOM     20  C   UNL d   1      27.205 -15.574  -4.340  0.00  0.00     0.057 C 
BRANCH  20  21
ATOM     21  C   UNL d   1      26.485 -14.244  -4.350  0.00  0.00    -0.048 A 
ATOM     22  C   UNL d   1      26.848 -13.292  -5.212  0.00  0.00    -0.006 A 
ATOM     23  C   UNL d   1      27.863 -13.285  -6.201  0.00  0.00     0.014 A 
ATOM     24  C   UNL d   1      26.018 -12.114  -4.935  0.00  0.00     0.038 A 
ATOM     25  C   UNL d   1      28.151 -12.130  -6.807  0.00  0.00     0.001 A 
ATOM     26  C   UNL d   1      27.342 -10.942  -6.584  0.00  0.00     0.002 A 
ATOM     27  C   UNL d   1      26.314 -10.887  -5.710  0.00  0.00     0.030 A 
ATOM     28  N   UNL d   1      25.153 -12.360  -4.023  0.00  0.00    -0.385 N 
ATOM     29  C   UNL d   1      25.367 -13.742  -3.470  0.00  0.00     0.155 A 
ATOM     30  H   UNL d   1      24.440 -11.682  -3.754  0.00  0.00     0.160 HD
ENDBRANCH  20  21
ENDBRANCH  19  20
ENDBRANCH   6  19
BRANCH   4  31
ATOM     31  C   UNL d   1      25.861 -17.056  -0.232  0.00  0.00     0.035 C 
ATOM     32  C   UNL d   1      25.362 -18.235   0.396  0.00  0.00     0.019 C 
ATOM     33  C   UNL d   1      24.223 -18.898  -0.131  0.00  0.00     0.030 C 
ATOM     34  C   UNL d   1      23.558 -18.328  -1.208  0.00  0.00     0.034 C 
ATOM     35  C   UNL d   1      24.161 -17.251  -1.828  0.00  0.00     0.030 C 
ATOM     36  C   UNL d   1      25.186 -16.533  -1.290  0.00  0.00     0.019 C 
BRANCH  34  37
ATOM     37  N   UNL d   1      22.315 -18.807  -1.645  0.00  0.00    -0.328 N 
ATOM     38  C   UNL d   1      21.223 -19.178  -0.897  0.00  0.00     0.218 C 
ATOM     39  C   UNL d   1      21.133 -18.996   0.607  0.00  0.00     0.117 C 
ATOM     40  O   UNL d   1      20.269 -19.699  -1.483  0.00  0.00    -0.274 OA
ATOM     41  H   UNL d   1      22.231 -19.104  -2.613  0.00  0.00     0.169 HD
ENDBRANCH  34  37
ENDBRANCH   4  31
TORSDOF 8
ENDMDL
MODEL 4
REMARK VINA RESULT:    -9.595      4.176      7.773
REMARK INTER + INTRA:         -14.164
REMARK INTER:                 -11.982
REMARK INTRA:                  -2.183
REMARK CONF_INDEPENDENT:        2.386
REMARK UNBOUND:                -2.183
REMARK  8 active torsions:
REMARK  status: ('A' for Active; 'I' for Inactive)
REMARK    1  A    between atoms: O_2  and  C_3 
REMARK    2  A    between atoms: C_6  and  N_7 
REMARK       I    between atoms: N_7  and  C_8 
REMARK       I    between atoms: C_8  and  N_22 
REMARK       I    between atoms: N_9  and  C_10 
REMARK    3  A    between atoms: C_10  and  C_12 
REMARK    4  A    between atoms: C_15  and  N_16 
REMARK       I    between atoms: N_16  and  C_17 
REMARK    5  A    between atoms: N_22  and  C_23 
REMARK    6  A    between atoms: C_23  and  C_24 
REMARK    7  A    between atoms: C_24  and  C_25 
REMARK    8  A    between atoms: C_35  and  O_36 
ROOT
ATOM      1  N   UNL d   1      29.409 -14.597   3.407  0.00  0.00    -0.190 N 
ATOM      2  C   UNL d   1      28.889 -14.219   2.148  0.00  0.00     0.704 C 
ATOM      3  N   UNL d   1      28.205 -13.170   1.795  0.00  0.00    -0.023 NA
ATOM      4  C   UNL d   1      27.447 -12.573   2.760  0.00  0.00     0.293 C 
ATOM      5  O   UNL d   1      26.712 -13.206   3.493  0.00  0.00    -0.265 OA
ATOM      6  N   UNL d   1      29.127 -15.082   1.067  0.00  0.00    -0.224 N 
ATOM      7  H   UNL d   1      29.661 -15.570   3.514  0.00  0.00     0.184 HD
ATOM      8  H   UNL d   1      29.388 -16.047   1.230  0.00  0.00     0.177 HD
ENDROOT
BRANCH   1   9
ATOM      9  C   UNL d   1      29.336 -13.900   4.672  0.00  0.00     0.052 C 
ATOM     10  C   UNL d   1      28.858 -14.435   5.858  0.00  0.00     0.033 C 
ATOM     11  C   UNL d   1      28.536 -13.585   6.981  0.00  0.00     0.042 C 
ATOM     12  C   UNL d   1      28.575 -12.174   6.929  0.00  0.00     0.101 C 
ATOM     13  C   UNL d   1      29.061 -11.669   5.754  0.00  0.00     0.103 C 
ATOM     14  C   UNL d   1      29.680 -12.568   4.832  0.00  0.00     0.069 C 
BRANCH  12  15
ATOM     15  O   UNL d   1      28.471 -11.504   8.123  0.00  0.00    -0.353 OA
ATOM     16  C   UNL d   1      28.689 -12.124   9.389  0.00  0.00     0.210 C 
ENDBRANCH  12  15
BRANCH  13  17
ATOM     17  O   UNL d   1      28.945 -10.422   5.226  0.00  0.00    -0.353 OA
ATOM     18  C   UNL d   1      28.912  -9.263   5.997  0.00  0.00     0.210 C 
ENDBRANCH  13  17
ENDBRANCH   1   9
BRANCH   6  19
ATOM     19  C   UNL d   1      28.499 -14.772  -0.250  0.00  0.00     0.142 C 
BRANCH  19  20
ATOM     20  C   UNL d   1      27.013 -15.091  -0.338  0.00  0.00     0.057 C 
BRANCH  20  21
ATOM     21  C   UNL d   1      26.593 -16.536  -0.195  0.00  0.00    -0.048 A 
ATOM     22  C   UNL d   1      25.327 -16.891  -0.427  0.00  0.00    -0.006 A 
ATOM     23  C   UNL d   1      24.208 -16.111  -0.812  0.00  0.00     0.014 A 
ATOM     24  C   UNL d   1      25.220 -18.328  -0.145  0.00  0.00     0.038 A 
ATOM     25  C   UNL d   1      23.000 -16.682  -0.792  0.00  0.00     0.001 A 
ATOM     26  C   UNL d   1      22.845 -18.106  -0.542  0.00  0.00     0.002 A 
ATOM     27  C   UNL d   1      23.871 -18.931  -0.237  0.00  0.00     0.030 A 
ATOM     28  N   UNL d   1      26.359 -18.828   0.157  0.00  0.00    -0.385 N 
ATOM     29  C   UNL d   1      27.396 -17.740   0.231  0.00  0.00     0.155 A 
ATOM     30  H   UNL d   1      26.490 -19.828   0.310  0.00  0.00     0.160 HD
ENDBRANCH  20  21
ENDBRANCH  19  20
ENDBRANCH   6  19
BRANCH   4  31
ATOM     31  C   UNL d   1      27.205 -11.100   2.587  0.00  0.00     0.035 C 
ATOM     32  C   UNL d   1      26.331 -10.163   3.211  0.00  0.00     0.019 C 
ATOM     33  C   UNL d   1      25.834  -9.052   2.480  0.00  0.00     0.030 C 
ATOM     34  C   UNL d   1      26.286  -8.851   1.183  0.00  0.00     0.034 C 
ATOM     35  C   UNL d   1      27.043  -9.855   0.612  0.00  0.00     0.030 C 
ATOM     36  C   UNL d   1      27.619 -10.872   1.311  0.00  0.00     0.019 C 
BRANCH  34  37
ATOM     37  N   UNL d   1      26.007  -7.671   0.479  0.00  0.00    -0.328 N 
ATOM     38  C   UNL d   1      26.079  -6.369   0.915  0.00  0.00     0.218 C 
ATOM     39  C   UNL d   1      26.631  -5.966   2.270  0.00  0.00     0.117 C 
ATOM     40  O   UNL d   1      25.660  -5.482   0.166  0.00  0.00    -0.274 OA
ATOM     41  H   UNL d   1      25.512  -7.748  -0.405  0.00  0.00     0.169 HD
ENDBRANCH  34  37
ENDBRANCH   4  31
TORSDOF 8
ENDMDL
MODEL 5
REMARK VINA RESULT:    -9.581      3.700      8.668
REMARK INTER + INTRA:         -14.375
REMARK INTER:                 -11.967
REMARK INTRA:                  -2.408
REMARK CONF_INDEPENDENT:        2.386
REMARK UNBOUND:                -2.408
REMARK  8 active torsions:
REMARK  status: ('A' for Active; 'I' for Inactive)
REMARK    1  A    between atoms: O_2  and  C_3 
REMARK    2  A    between atoms: C_6  and  N_7 
REMARK       I    between atoms: N_7  and  C_8 
REMARK       I    between atoms: C_8  and  N_22 
REMARK       I    between atoms: N_9  and  C_10 
REMARK    3  A    between atoms: C_10  and  C_12 
REMARK    4  A    between atoms: C_15  and  N_16 
REMARK       I    between atoms: N_16  and  C_17 
REMARK    5  A    between atoms: N_22  and  C_23 
REMARK    6  A    between atoms: C_23  and  C_24 
REMARK    7  A    between atoms: C_24  and  C_25 
REMARK    8  A    between atoms: C_35  and  O_36 
ROOT
ATOM      1  N   UNL d   1      27.121 -17.211   0.356  0.00  0.00    -0.190 N 
ATOM      2  C   UNL d   1      25.899 -17.349  -0.342  0.00  0.00     0.704 C 
ATOM      3  N   UNL d   1      25.433 -16.702  -1.371  0.00  0.00    -0.023 NA
ATOM      4  C   UNL d   1      25.878 -15.425  -1.550  0.00  0.00     0.293 C 
ATOM      5  O   UNL d   1      25.909 -14.614  -0.645  0.00  0.00    -0.265 OA
ATOM      6  N   UNL d   1      25.008 -18.337   0.107  0.00  0.00    -0.224 N 
ATOM      7  H   UNL d   1      27.157 -17.617   1.281  0.00  0.00     0.184 HD
ATOM      8  H   UNL d   1      25.095 -18.719   1.041  0.00  0.00     0.177 HD
ENDROOT
BRANCH   1   9
ATOM      9  C   UNL d   1      28.219 -16.305   0.103  0.00  0.00     0.052 C 
ATOM     10  C   UNL d   1      28.591 -15.246   0.918  0.00  0.00     0.033 C 
ATOM     11  C   UNL d   1      29.488 -14.220   0.439  0.00  0.00     0.042 C 
ATOM     12  C   UNL d   1      29.959 -14.151  -0.891  0.00  0.00     0.101 C 
ATOM     13  C   UNL d   1      29.589 -15.212  -1.672  0.00  0.00     0.103 C 
ATOM     14  C   UNL d   1      29.000 -16.350  -1.040  0.00  0.00     0.069 C 
BRANCH  12  15
ATOM     15  O   UNL d   1      30.979 -13.268  -1.145  0.00  0.00    -0.353 OA
ATOM     16  C   UNL d   1      32.357 -13.629  -1.094  0.00  0.00     0.210 C 
ENDBRANCH  12  15
BRANCH  13  17
ATOM     17  O   UNL d   1      29.569 -15.334  -3.025  0.00  0.00    -0.353 OA
ATOM     18  C   UNL d   1      29.682 -16.554  -3.688  0.00  0.00     0.210 C 
ENDBRANCH  13  17
ENDBRANCH   1   9
BRANCH   6  19
ATOM     19  C   UNL d   1      23.665 -18.436  -0.533  0.00  0.00     0.142 C 
BRANCH  19  20
ATOM     20  C   UNL d   1      22.501 -18.544   0.442  0.00  0.00     0.057 C 
BRANCH  20  21
ATOM     21  C   UNL d   1      21.176 -19.039  -0.095  0.00  0.00    -0.048 A 
ATOM     22  C   UNL d   1      20.265 -19.550   0.736  0.00  0.00    -0.006 A 
ATOM     23  C   UNL d   1      20.303 -19.735   2.141  0.00  0.00     0.014 A 
ATOM     24  C   UNL d   1      19.131 -19.995  -0.082  0.00  0.00     0.038 A 
ATOM     25  C   UNL d   1      19.330 -20.450   2.712  0.00  0.00     0.001 A 
ATOM     26  C   UNL d   1      18.173 -20.892   1.950  0.00  0.00     0.002 A 
ATOM     27  C   UNL d   1      18.030 -20.694   0.621  0.00  0.00     0.030 A 
ATOM     28  N   UNL d   1      19.304 -19.700  -1.316  0.00  0.00    -0.385 N 
ATOM     29  C   UNL d   1      20.669 -19.100  -1.515  0.00  0.00     0.155 A 
ATOM     30  H   UNL d   1      18.585 -19.865  -2.020  0.00  0.00     0.160 HD
ENDBRANCH  20  21
ENDBRANCH  19  20
ENDBRANCH   6  19
BRANCH   4  31
ATOM     31  C   UNL d   1      25.895 -14.930  -2.969  0.00  0.00     0.035 C 
ATOM     32  C   UNL d   1      25.965 -15.574  -4.239  0.00  0.00     0.019 C 
ATOM     33  C   UNL d   1      26.598 -14.931  -5.334  0.00  0.00     0.030 C 
ATOM     34  C   UNL d   1      27.066 -13.634  -5.166  0.00  0.00     0.034 C 
ATOM     35  C   UNL d   1      27.061 -13.119  -3.884  0.00  0.00     0.030 C 
ATOM     36  C   UNL d   1      26.372 -13.661  -2.843  0.00  0.00     0.019 C 
BRANCH  34  37
ATOM     37  N   UNL d   1      27.509 -12.864  -6.250  0.00  0.00    -0.328 N 
ATOM     38  C   UNL d   1      28.538 -13.117  -7.124  0.00  0.00     0.218 C 
ATOM     39  C   UNL d   1      29.328 -14.413  -7.140  0.00  0.00     0.117 C 
ATOM     40  O   UNL d   1      28.843 -12.235  -7.933  0.00  0.00    -0.274 OA
ATOM     41  H   UNL d   1      27.175 -11.906  -6.323  0.00  0.00     0.169 HD
ENDBRANCH  34  37
ENDBRANCH   4  31
TORSDOF 8
ENDMDL
MODEL 6
REMARK VINA RESULT:    -9.047      3.896      7.196
REMARK INTER + INTRA:         -14.420
REMARK INTER:                 -11.434
REMARK INTRA:                  -2.986
REMARK CONF_INDEPENDENT:        2.386
REMARK UNBOUND:                -2.986
REMARK  8 active torsions:
REMARK  status: ('A' for Active; 'I' for Inactive)
REMARK    1  A    between atoms: O_2  and  C_3 
REMARK    2  A    between atoms: C_6  and  N_7 
REMARK       I    between atoms: N_7  and  C_8 
REMARK       I    between atoms: C_8  and  N_22 
REMARK       I    between atoms: N_9  and  C_10 
REMARK    3  A    between atoms: C_10  and  C_12 
REMARK    4  A    between atoms: C_15  and  N_16 
REMARK       I    between atoms: N_16  and  C_17 
REMARK    5  A    between atoms: N_22  and  C_23 
REMARK    6  A    between atoms: C_23  and  C_24 
REMARK    7  A    between atoms: C_24  and  C_25 
REMARK    8  A    between atoms: C_35  and  O_36 
ROOT
ATOM      1  N   UNL d   1      30.274 -14.825   3.107  0.00  0.00    -0.190 N 
ATOM      2  C   UNL d   1      29.822 -14.816   1.768  0.00  0.00     0.704 C 
ATOM      3  N   UNL d   1      28.943 -14.062   1.175  0.00  0.00    -0.023 NA
ATOM      4  C   UNL d   1      27.955 -13.535   1.955  0.00  0.00     0.293 C 
ATOM      5  O   UNL d   1      27.323 -14.207   2.746  0.00  0.00    -0.265 OA
ATOM      6  N   UNL d   1      30.390 -15.754   0.890  0.00  0.00    -0.224 N 
ATOM      7  H   UNL d   1      30.746 -15.663   3.416  0.00  0.00     0.184 HD
ATOM      8  H   UNL d   1      30.863 -16.573   1.253  0.00  0.00     0.177 HD
ENDROOT
BRANCH   1   9
ATOM      9  C   UNL d   1      29.886 -13.969   4.207  0.00  0.00     0.052 C 
ATOM     10  C   UNL d   1      29.177 -14.373   5.328  0.00  0.00     0.033 C 
ATOM     11  C   UNL d   1      28.571 -13.405   6.213  0.00  0.00     0.042 C 
ATOM     12  C   UNL d   1      28.557 -12.016   5.960  0.00  0.00     0.101 C 
ATOM     13  C   UNL d   1      29.272 -11.640   4.855  0.00  0.00     0.103 C 
ATOM     14  C   UNL d   1      30.123 -12.605   4.236  0.00  0.00     0.069 C 
BRANCH  12  15
ATOM     15  O   UNL d   1      28.157 -11.200   6.989  0.00  0.00    -0.353 OA
ATOM     16  C   UNL d   1      28.530 -11.415   8.348  0.00  0.00     0.210 C 
ENDBRANCH  12  15
BRANCH  13  17
ATOM     17  O   UNL d   1      29.221 -10.490   4.134  0.00  0.00    -0.353 OA
ATOM     18  C   UNL d   1      29.051  -9.232   4.707  0.00  0.00     0.210 C 
ENDBRANCH  13  17
ENDBRANCH   1   9
BRANCH   6  19
ATOM     19  C   UNL d   1      29.858 -15.849  -0.499  0.00  0.00     0.142 C 
BRANCH  19  20
ATOM     20  C   UNL d   1      28.655 -16.767  -0.661  0.00  0.00     0.057 C 
BRANCH  20  21
ATOM     21  C   UNL d   1      27.340 -16.140  -1.067  0.00  0.00    -0.048 A 
ATOM     22  C   UNL d   1      26.188 -16.700  -0.694  0.00  0.00    -0.006 A 
ATOM     23  C   UNL d   1      25.937 -17.867   0.072  0.00  0.00     0.014 A 
ATOM     24  C   UNL d   1      25.106 -15.907  -1.288  0.00  0.00     0.038 A 
ATOM     25  C   UNL d   1      24.683 -18.321   0.142  0.00  0.00     0.001 A 
ATOM     26  C   UNL d   1      23.574 -17.559  -0.409  0.00  0.00     0.002 A 
ATOM     27  C   UNL d   1      23.724 -16.402  -1.091  0.00  0.00     0.030 A 
ATOM     28  N   UNL d   1      25.565 -14.887  -1.911  0.00  0.00    -0.385 N 
ATOM     29  C   UNL d   1      27.069 -14.921  -1.913  0.00  0.00     0.155 A 
ATOM     30  H   UNL d   1      24.955 -14.180  -2.322  0.00  0.00     0.160 HD
ENDBRANCH  20  21
ENDBRANCH  19  20
ENDBRANCH   6  19
BRANCH   4  31
ATOM     31  C   UNL d   1      27.376 -12.230   1.486  0.00  0.00     0.035 C 
ATOM     32  C   UNL d   1      27.759 -11.278   0.497  0.00  0.00     0.019 C 
ATOM     33  C   UNL d   1      27.465  -9.901   0.677  0.00  0.00     0.030 C 
ATOM     34  C   UNL d   1      26.722  -9.518   1.785  0.00  0.00     0.034 C 
ATOM     35  C   UNL d   1      26.481 -10.476   2.751  0.00  0.00     0.030 C 
ATOM     36  C   UNL d   1      26.655 -11.813   2.563  0.00  0.00     0.019 C 
BRANCH  34  37
ATOM     37  N   UNL d   1      26.216  -8.217   1.920  0.00  0.00    -0.328 N 
ATOM     38  C   UNL d   1      25.569  -7.443   0.986  0.00  0.00     0.218 C 
ATOM     39  C   UNL d   1      25.157  -7.948  -0.385  0.00  0.00     0.117 C 
ATOM     40  O   UNL d   1      25.321  -6.269   1.277  0.00  0.00    -0.274 OA
ATOM     41  H   UNL d   1      26.501  -7.675   2.730  0.00  0.00     0.169 HD
ENDBRANCH  34  37
ENDBRANCH   4  31
TORSDOF 8
ENDMDL
MODEL 7
REMARK VINA RESULT:    -8.907      3.042      4.332
REMARK INTER + INTRA:         -14.360
REMARK INTER:                 -11.293
REMARK INTRA:                  -3.067
REMARK CONF_INDEPENDENT:        2.386
REMARK UNBOUND:                -3.067
REMARK  8 active torsions:
REMARK  status: ('A' for Active; 'I' for Inactive)
REMARK    1  A    between atoms: O_2  and  C_3 
REMARK    2  A    between atoms: C_6  and  N_7 
REMARK       I    between atoms: N_7  and  C_8 
REMARK       I    between atoms: C_8  and  N_22 
REMARK       I    between atoms: N_9  and  C_10 
REMARK    3  A    between atoms: C_10  and  C_12 
REMARK    4  A    between atoms: C_15  and  N_16 
REMARK       I    between atoms: N_16  and  C_17 
REMARK    5  A    between atoms: N_22  and  C_23 
REMARK    6  A    between atoms: C_23  and  C_24 
REMARK    7  A    between atoms: C_24  and  C_25 
REMARK    8  A    between atoms: C_35  and  O_36 
ROOT
ATOM      1  N   UNL d   1      29.202 -15.320   1.037  0.00  0.00    -0.190 N 
ATOM      2  C   UNL d   1      29.122 -16.235  -0.037  0.00  0.00     0.704 C 
ATOM      3  N   UNL d   1      28.240 -16.350  -0.988  0.00  0.00    -0.023 NA
ATOM      4  C   UNL d   1      26.978 -15.909  -0.716  0.00  0.00     0.293 C 
ATOM      5  O   UNL d   1      26.392 -16.206   0.307  0.00  0.00    -0.265 OA
ATOM      6  N   UNL d   1      30.141 -17.195  -0.145  0.00  0.00    -0.224 N 
ATOM      7  H   UNL d   1      29.806 -15.583   1.805  0.00  0.00     0.184 HD
ATOM      8  H   UNL d   1      30.726 -17.412   0.653  0.00  0.00     0.177 HD
ENDROOT
BRANCH   1   9
ATOM      9  C   UNL d   1      28.317 -14.228   1.375  0.00  0.00     0.052 C 
ATOM     10  C   UNL d   1      28.094 -13.103   0.596  0.00  0.00     0.033 C 
ATOM     11  C   UNL d   1      27.445 -11.935   1.144  0.00  0.00     0.042 C 
ATOM     12  C   UNL d   1      27.093 -11.803   2.506  0.00  0.00     0.101 C 
ATOM     13  C   UNL d   1      27.311 -12.930   3.253  0.00  0.00     0.103 C 
ATOM     14  C   UNL d   1      27.626 -14.146   2.573  0.00  0.00     0.069 C 
BRANCH  12  15
ATOM     15  O   UNL d   1      26.280 -10.749   2.839  0.00  0.00    -0.353 OA
ATOM     16  C   UNL d   1      26.757  -9.564   3.474  0.00  0.00     0.210 C 
ENDBRANCH  12  15
BRANCH  13  17
ATOM     17  O   UNL d   1      27.405 -13.078   4.600  0.00  0.00    -0.353 OA
ATOM     18  C   UNL d   1      28.107 -14.115   5.210  0.00  0.00     0.210 C 
ENDBRANCH  13  17
ENDBRANCH   1   9
BRANCH   6  19
ATOM     19  C   UNL d   1      30.030 -18.244  -1.198  0.00  0.00     0.142 C 
BRANCH  19  20
ATOM     20  C   UNL d   1      31.137 -18.219  -2.243  0.00  0.00     0.057 C 
BRANCH  20  21
ATOM     21  C   UNL d   1      30.747 -17.928  -3.675  0.00  0.00    -0.048 A 
ATOM     22  C   UNL d   1      30.270 -16.727  -4.009  0.00  0.00    -0.006 A 
ATOM     23  C   UNL d   1      30.038 -15.576  -3.215  0.00  0.00     0.014 A 
ATOM     24  C   UNL d   1      29.927 -16.777  -5.435  0.00  0.00     0.038 A 
ATOM     25  C   UNL d   1      29.371 -14.555  -3.759  0.00  0.00     0.001 A 
ATOM     26  C   UNL d   1      29.030 -14.546  -5.173  0.00  0.00     0.002 A 
ATOM     27  C   UNL d   1      29.280 -15.575  -6.012  0.00  0.00     0.030 A 
ATOM     28  N   UNL d   1      30.249 -17.903  -5.952  0.00  0.00    -0.385 N 
ATOM     29  C   UNL d   1      30.765 -18.829  -4.885  0.00  0.00     0.155 A 
ATOM     30  H   UNL d   1      30.155 -18.090  -6.950  0.00  0.00     0.160 HD
ENDBRANCH  20  21
ENDBRANCH  19  20
ENDBRANCH   6  19
BRANCH   4  31
ATOM     31  C   UNL d   1      26.180 -15.435  -1.897  0.00  0.00     0.035 C 
ATOM     32  C   UNL d   1      25.955 -15.950  -3.208  0.00  0.00     0.019 C 
ATOM     33  C   UNL d   1      25.732 -15.066  -4.295  0.00  0.00     0.030 C 
ATOM     34  C   UNL d   1      25.648 -13.703  -4.040  0.00  0.00     0.034 C 
ATOM     35  C   UNL d   1      25.983 -13.273  -2.771  0.00  0.00     0.030 C 
ATOM     36  C   UNL d   1      26.097 -14.093  -1.690  0.00  0.00     0.019 C 
BRANCH  34  37
ATOM     37  N   UNL d   1      25.224 -12.795  -5.020  0.00  0.00    -0.328 N 
ATOM     38  C   UNL d   1      25.927 -11.772  -5.610  0.00  0.00     0.218 C 
ATOM     39  C   UNL d   1      27.407 -11.526  -5.379  0.00  0.00     0.117 C 
ATOM     40  O   UNL d   1      25.316 -11.005  -6.360  0.00  0.00    -0.274 OA
ATOM     41  H   UNL d   1      24.228 -12.732  -5.213  0.00  0.00     0.169 HD
ENDBRANCH  34  37
ENDBRANCH   4  31
TORSDOF 8
ENDMDL
MODEL 8
REMARK VINA RESULT:    -8.625      2.750      4.788
REMARK INTER + INTRA:         -14.370
REMARK INTER:                 -11.011
REMARK INTRA:                  -3.359
REMARK CONF_INDEPENDENT:        2.386
REMARK UNBOUND:                -3.359
REMARK  8 active torsions:
REMARK  status: ('A' for Active; 'I' for Inactive)
REMARK    1  A    between atoms: O_2  and  C_3 
REMARK    2  A    between atoms: C_6  and  N_7 
REMARK       I    between atoms: N_7  and  C_8 
REMARK       I    between atoms: C_8  and  N_22 
REMARK       I    between atoms: N_9  and  C_10 
REMARK    3  A    between atoms: C_10  and  C_12 
REMARK    4  A    between atoms: C_15  and  N_16 
REMARK       I    between atoms: N_16  and  C_17 
REMARK    5  A    between atoms: N_22  and  C_23 
REMARK    6  A    between atoms: C_23  and  C_24 
REMARK    7  A    between atoms: C_24  and  C_25 
REMARK    8  A    between atoms: C_35  and  O_36 
ROOT
ATOM      1  N   UNL d   1      30.427 -14.461  -1.139  0.00  0.00    -0.190 N 
ATOM      2  C   UNL d   1      29.673 -15.258  -2.030  0.00  0.00     0.704 C 
ATOM      3  N   UNL d   1      28.585 -15.946  -1.839  0.00  0.00    -0.023 NA
ATOM      4  C   UNL d   1      28.356 -16.400  -0.573  0.00  0.00     0.293 C 
ATOM      5  O   UNL d   1      29.214 -16.962   0.081  0.00  0.00    -0.265 OA
ATOM      6  N   UNL d   1      30.130 -15.352  -3.355  0.00  0.00    -0.224 N 
ATOM      7  H   UNL d   1      31.374 -14.248  -1.420  0.00  0.00     0.184 HD
ATOM      8  H   UNL d   1      31.088 -15.115  -3.584  0.00  0.00     0.177 HD
ENDROOT
BRANCH   1   9
ATOM      9  C   UNL d   1      30.182 -14.171   0.256  0.00  0.00     0.052 C 
ATOM     10  C   UNL d   1      31.029 -14.496   1.305  0.00  0.00     0.033 C 
ATOM     11  C   UNL d   1      30.569 -14.449   2.674  0.00  0.00     0.042 C 
ATOM     12  C   UNL d   1      29.231 -14.185   3.041  0.00  0.00     0.101 C 
ATOM     13  C   UNL d   1      28.416 -13.856   1.991  0.00  0.00     0.103 C 
ATOM     14  C   UNL d   1      29.017 -13.585   0.723  0.00  0.00     0.069 C 
BRANCH  12  15
ATOM     15  O   UNL d   1      28.986 -13.943   4.369  0.00  0.00    -0.353 OA
ATOM     16  C   UNL d   1      27.945 -14.585   5.102  0.00  0.00     0.210 C 
ENDBRANCH  12  15
BRANCH  13  17
ATOM     17  O   UNL d   1      27.061 -13.861   1.904  0.00  0.00    -0.353 OA
ATOM     18  C   UNL d   1      26.299 -12.708   1.734  0.00  0.00     0.210 C 
ENDBRANCH  13  17
ENDBRANCH   1   9
BRANCH   6  19
ATOM     19  C   UNL d   1      29.425 -16.272  -4.293  0.00  0.00     0.142 C 
BRANCH  19  20
ATOM     20  C   UNL d   1      28.637 -15.578  -5.395  0.00  0.00     0.057 C 
BRANCH  20  21
ATOM     21  C   UNL d   1      27.301 -14.972  -5.031  0.00  0.00    -0.048 A 
ATOM     22  C   UNL d   1      27.248 -13.830  -4.341  0.00  0.00    -0.006 A 
ATOM     23  C   UNL d   1      28.290 -13.009  -3.842  0.00  0.00     0.014 A 
ATOM     24  C   UNL d   1      25.833 -13.538  -4.090  0.00  0.00     0.038 A 
ATOM     25  C   UNL d   1      27.969 -12.012  -3.012  0.00  0.00     0.001 A 
ATOM     26  C   UNL d   1      26.581 -11.668  -2.751  0.00  0.00     0.002 A 
ATOM     27  C   UNL d   1      25.530 -12.359  -3.246  0.00  0.00     0.030 A 
ATOM     28  N   UNL d   1      25.073 -14.398  -4.658  0.00  0.00    -0.385 N 
ATOM     29  C   UNL d   1      25.904 -15.479  -5.292  0.00  0.00     0.155 A 
ATOM     30  H   UNL d   1      24.056 -14.310  -4.655  0.00  0.00     0.160 HD
ENDBRANCH  20  21
ENDBRANCH  19  20
ENDBRANCH   6  19
BRANCH   4  31
ATOM     31  C   UNL d   1      26.914 -16.590  -0.195  0.00  0.00     0.035 C 
ATOM     32  C   UNL d   1      26.173 -17.677   0.355  0.00  0.00     0.019 C 
ATOM     33  C   UNL d   1      24.803 -17.847   0.025  0.00  0.00     0.030 C 
ATOM     34  C   UNL d   1      24.184 -16.890  -0.767  0.00  0.00     0.034 C 
ATOM     35  C   UNL d   1      24.989 -15.930  -1.349  0.00  0.00     0.030 C 
ATOM     36  C   UNL d   1      26.273 -15.677  -0.973  0.00  0.00     0.019 C 
BRANCH  34  37
ATOM     37  N   UNL d   1      22.795 -16.878  -0.959  0.00  0.00    -0.328 N 
ATOM     38  C   UNL d   1      21.907 -17.925  -0.895  0.00  0.00     0.218 C 
ATOM     39  C   UNL d   1      22.288 -19.325  -0.451  0.00  0.00     0.117 C 
ATOM     40  O   UNL d   1      20.737 -17.715  -1.229  0.00  0.00    -0.274 OA
ATOM     41  H   UNL d   1      22.378 -16.051  -1.378  0.00  0.00     0.169 HD
ENDBRANCH  34  37
ENDBRANCH   4  31
TORSDOF 8
ENDMDL
MODEL 9
REMARK VINA RESULT:    -8.194      3.669      6.247
REMARK INTER + INTRA:         -14.161
REMARK INTER:                 -10.580
REMARK INTRA:                  -3.581
REMARK CONF_INDEPENDENT:        2.386
REMARK UNBOUND:                -3.581
REMARK  8 active torsions:
REMARK  status: ('A' for Active; 'I' for Inactive)
REMARK    1  A    between atoms: O_2  and  C_3 
REMARK    2  A    between atoms: C_6  and  N_7 
REMARK       I    between atoms: N_7  and  C_8 
REMARK       I    between atoms: C_8  and  N_22 
REMARK       I    between atoms: N_9  and  C_10 
REMARK    3  A    between atoms: C_10  and  C_12 
REMARK    4  A    between atoms: C_15  and  N_16 
REMARK       I    between atoms: N_16  and  C_17 
REMARK    5  A    between atoms: N_22  and  C_23 
REMARK    6  A    between atoms: C_23  and  C_24 
REMARK    7  A    between atoms: C_24  and  C_25 
REMARK    8  A    between atoms: C_35  and  O_36 
ROOT
ATOM      1  N   UNL d   1      28.029 -16.107   0.788  0.00  0.00    -0.190 N 
ATOM      2  C   UNL d   1      29.088 -15.523   0.056  0.00  0.00     0.704 C 
ATOM      3  N   UNL d   1      29.183 -15.230  -1.208  0.00  0.00    -0.023 NA
ATOM      4  C   UNL d   1      28.435 -15.975  -2.073  0.00  0.00     0.293 C 
ATOM      5  O   UNL d   1      28.402 -17.189  -2.024  0.00  0.00    -0.265 OA
ATOM      6  N   UNL d   1      30.250 -15.178   0.766  0.00  0.00    -0.224 N 
ATOM      7  H   UNL d   1      28.269 -16.496   1.690  0.00  0.00     0.184 HD
ATOM      8  H   UNL d   1      30.437 -15.590   1.673  0.00  0.00     0.177 HD
ENDROOT
BRANCH   1   9
ATOM      9  C   UNL d   1      26.727 -16.535   0.327  0.00  0.00     0.052 C 
ATOM     10  C   UNL d   1      26.185 -17.798   0.510  0.00  0.00     0.033 C 
ATOM     11  C   UNL d   1      25.028 -18.226  -0.242  0.00  0.00     0.042 C 
ATOM     12  C   UNL d   1      24.439 -17.462  -1.274  0.00  0.00     0.101 C 
ATOM     13  C   UNL d   1      24.984 -16.216  -1.429  0.00  0.00     0.103 C 
ATOM     14  C   UNL d   1      25.883 -15.737  -0.427  0.00  0.00     0.069 C 
BRANCH  12  15
ATOM     15  O   UNL d   1      23.219 -17.883  -1.740  0.00  0.00    -0.353 OA
ATOM     16  C   UNL d   1      22.190 -18.390  -0.893  0.00  0.00     0.210 C 
ENDBRANCH  12  15
BRANCH  13  17
ATOM     17  O   UNL d   1      24.913 -15.358  -2.480  0.00  0.00    -0.353 OA
ATOM     18  C   UNL d   1      25.258 -14.011  -2.395  0.00  0.00     0.210 C 
ENDBRANCH  13  17
ENDBRANCH   1   9
BRANCH   6  19
ATOM     19  C   UNL d   1      31.426 -14.664   0.009  0.00  0.00     0.142 C 
BRANCH  19  20
ATOM     20  C   UNL d   1      32.389 -15.737  -0.479  0.00  0.00     0.057 C 
BRANCH  20  21
ATOM     21  C   UNL d   1      31.801 -16.964  -1.139  0.00  0.00    -0.048 A 
ATOM     22  C   UNL d   1      31.733 -17.042  -2.470  0.00  0.00    -0.006 A 
ATOM     23  C   UNL d   1      32.139 -16.120  -3.467  0.00  0.00     0.014 A 
ATOM     24  C   UNL d   1      31.063 -18.305  -2.798  0.00  0.00     0.038 A 
ATOM     25  C   UNL d   1      31.783 -16.357  -4.732  0.00  0.00     0.001 A 
ATOM     26  C   UNL d   1      31.139 -17.604  -5.112  0.00  0.00     0.002 A 
ATOM     27  C   UNL d   1      30.784 -18.565  -4.230  0.00  0.00     0.030 A 
ATOM     28  N   UNL d   1      30.815 -18.987  -1.744  0.00  0.00    -0.385 N 
ATOM     29  C   UNL d   1      31.195 -18.199  -0.520  0.00  0.00     0.155 A 
ATOM     30  H   UNL d   1      30.421 -19.928  -1.785  0.00  0.00     0.160 HD
ENDBRANCH  20  21
ENDBRANCH  19  20
ENDBRANCH   6  19
BRANCH   4  31
ATOM     31  C   UNL d   1      28.027 -15.289  -3.346  0.00  0.00     0.035 C 
ATOM     32  C   UNL d   1      27.062 -15.575  -4.356  0.00  0.00     0.019 C 
ATOM     33  C   UNL d   1      27.297 -15.186  -5.700  0.00  0.00     0.030 C 
ATOM     34  C   UNL d   1      28.436 -14.448  -5.991  0.00  0.00     0.034 C 
ATOM     35  C   UNL d   1      29.374 -14.304  -4.987  0.00  0.00     0.030 C 
ATOM     36  C   UNL d   1      29.135 -14.570  -3.673  0.00  0.00     0.019 C 
BRANCH  34  37
ATOM     37  N   UNL d   1      28.628 -13.852  -7.246  0.00  0.00    -0.328 N 
ATOM     38  C   UNL d   1      28.260 -12.598  -7.670  0.00  0.00     0.218 C 
ATOM     39  C   UNL d   1      27.665 -11.542  -6.756  0.00  0.00     0.117 C 
ATOM     40  O   UNL d   1      28.411 -12.321  -8.864  0.00  0.00    -0.274 OA
ATOM     41  H   UNL d   1      28.905 -14.449  -8.020  0.00  0.00     0.169 HD
ENDBRANCH  34  37
ENDBRANCH   4  31
TORSDOF 8
ENDMDL
