MODEL 1
REMARK VINA RESULT:    -7.862      0.000      0.000
REMARK INTER + INTRA:         -15.634
REMARK INTER:                 -11.740
REMARK INTRA:                  -3.894
REMARK CONF_INDEPENDENT:        3.878
REMARK UNBOUND:                -3.894
REMARK  13 active torsions:
REMARK  status: ('A' for Active; 'I' for Inactive)
REMARK    1  A    between atoms: C_2  and  C_3 
REMARK    2  A    between atoms: C_3  and  N_4 
REMARK       I    between atoms: N_4  and  C_5 
REMARK    3  A    between atoms: C_17  and  N_4 
REMARK    4  A    between atoms: C_5  and  C_7 
REMARK    5  A    between atoms: C_7  and  C_8 
REMARK    6  A    between atoms: C_17  and  C_29 
REMARK    7  A    between atoms: C_17  and  C_18 
REMARK       I    between atoms: C_18  and  N_20 
REMARK    8  A    between atoms: N_20  and  C_21 
REMARK    9  A    between atoms: C_21  and  C_24 
REMARK   10  A    between atoms: C_24  and  C_25 
REMARK   11  A    between atoms: C_30  and  O_31 
REMARK   12  A    between atoms: C_33  and  O_34 
REMARK   13  A    between atoms: C_36  and  O_37 
ROOT
ATOM      1  C   UNL d   1      29.350 -13.967   1.391  0.00  0.00     0.218 C 
ENDROOT
BRANCH   1   2
ATOM      2  C   UNL d   1      29.119 -14.086   2.889  0.00  0.00     0.040 C 
ATOM      3  C   UNL d   1      27.872 -14.035   3.494  0.00  0.00     0.080 C 
ATOM      4  C   UNL d   1      27.657 -14.247   4.842  0.00  0.00     0.073 C 
ATOM      5  C   UNL d   1      28.745 -14.440   5.665  0.00  0.00     0.071 C 
ATOM      6  C   UNL d   1      30.029 -14.409   5.154  0.00  0.00     0.073 C 
ATOM      7  C   UNL d   1      30.209 -14.199   3.787  0.00  0.00     0.080 C 
BRANCH   3   8
ATOM      8  O   UNL d   1      26.782 -13.574   2.846  0.00  0.00    -0.360 OA
ATOM      9  H   UNL d   1      26.070 -13.797   3.473  0.00  0.00     0.217 HD
ENDBRANCH   3   8
BRANCH   5  10
ATOM     10  O   UNL d   1      28.575 -14.592   7.004  0.00  0.00    -0.361 OA
ATOM     11  H   UNL d   1      28.847 -15.499   7.227  0.00  0.00     0.217 HD
ENDBRANCH   5  10
BRANCH   7  12
ATOM     12  O   UNL d   1      31.499 -14.020   3.351  0.00  0.00    -0.360 OA
ATOM     13  H   UNL d   1      32.110 -14.449   3.979  0.00  0.00     0.217 HD
ENDBRANCH   7  12
ENDBRANCH   1   2
BRANCH   1  14
ATOM     14  C   UNL d   1      28.730 -15.187   0.645  0.00  0.00     0.246 C 
ATOM     15  O   UNL d   1      29.459 -15.978   0.054  0.00  0.00    -0.271 OA
ATOM     16  N   UNL d   1      27.339 -15.328   0.710  0.00  0.00    -0.351 N 
ATOM     17  H   UNL d   1      26.809 -14.613   1.202  0.00  0.00     0.163 HD
BRANCH  16  18
ATOM     18  C   UNL d   1      26.647 -16.331  -0.104  0.00  0.00     0.026 C 
ATOM     19  C   UNL d   1      27.225 -16.192  -1.523  0.00  0.00     0.038 C 
ATOM     20  C   UNL d   1      26.976 -17.675   0.556  0.00  0.00     0.038 C 
BRANCH  18  21
ATOM     21  C   UNL d   1      25.078 -16.092  -0.145  0.00  0.00     0.038 C 
BRANCH  21  22
ATOM     22  C   UNL d   1      24.163 -17.199  -0.813  0.00  0.00    -0.049 C 
ATOM     23  C   UNL d   1      24.268 -18.568  -0.121  0.00  0.00     0.014 C 
ATOM     24  C   UNL d   1      22.688 -16.780  -0.890  0.00  0.00     0.014 C 
ATOM     25  C   UNL d   1      24.596 -17.450  -2.272  0.00  0.00     0.014 C 
ENDBRANCH  21  22
ENDBRANCH  18  21
ENDBRANCH  16  18
ENDBRANCH   1  14
BRANCH   1  26
ATOM     26  N   UNL d   1      28.955 -12.768   0.497  0.00  0.00    -0.334 N 
ATOM     27  C   UNL d   1      29.640 -12.949  -0.723  0.00  0.00     0.225 C 
ATOM     28  O   UNL d   1      30.622 -13.715  -0.801  0.00  0.00    -0.273 OA
BRANCH  26  29
ATOM     29  C   UNL d   1      27.703 -11.880   0.640  0.00  0.00     0.127 C 
BRANCH  29  30
ATOM     30  C   UNL d   1      27.635 -10.802   1.722  0.00  0.00     0.015 C 
ATOM     31  C   UNL d   1      26.312 -10.511   2.382  0.00  0.00     0.006 C 
ENDBRANCH  29  30
ENDBRANCH  26  29
BRANCH  27  32
ATOM     32  C   UNL d   1      29.148 -12.269  -1.948  0.00  0.00     0.141 C 
BRANCH  32  33
ATOM     33  C   UNL d   1      28.005 -12.935  -2.603  0.00  0.00    -0.047 A 
ATOM     34  C   UNL d   1      26.700 -12.657  -2.158  0.00  0.00     0.010 A 
ATOM     35  C   UNL d   1      25.630 -13.274  -2.775  0.00  0.00     0.040 A 
ATOM     36  C   UNL d   1      25.924 -14.132  -3.814  0.00  0.00     0.105 A 
ATOM     37  C   UNL d   1      27.212 -14.387  -4.236  0.00  0.00     0.105 A 
ATOM     38  O   UNL d   1      25.016 -14.825  -4.547  0.00  0.00    -0.323 OA
ATOM     39  C   UNL d   1      28.285 -13.802  -3.653  0.00  0.00     0.047 A 
ATOM     40  O   UNL d   1      27.284 -15.261  -5.265  0.00  0.00    -0.323 OA
ATOM     41  C   UNL d   1      25.894 -15.596  -5.393  0.00  0.00     0.352 A 
ENDBRANCH  32  33
ENDBRANCH  27  32
ENDBRANCH   1  26
TORSDOF 13
ENDMDL
MODEL 2
REMARK VINA RESULT:    -7.483      2.663      6.237
REMARK INTER + INTRA:         -15.061
REMARK INTER:                 -11.361
REMARK INTRA:                  -3.700
REMARK CONF_INDEPENDENT:        3.878
REMARK UNBOUND:                -3.700
REMARK  13 active torsions:
REMARK  status: ('A' for Active; 'I' for Inactive)
REMARK    1  A    between atoms: C_2  and  C_3 
REMARK    2  A    between atoms: C_3  and  N_4 
REMARK       I    between atoms: N_4  and  C_5 
REMARK    3  A    between atoms: C_17  and  N_4 
REMARK    4  A    between atoms: C_5  and  C_7 
REMARK    5  A    between atoms: C_7  and  C_8 
REMARK    6  A    between atoms: C_17  and  C_29 
REMARK    7  A    between atoms: C_17  and  C_18 
REMARK       I    between atoms: C_18  and  N_20 
REMARK    8  A    between atoms: N_20  and  C_21 
REMARK    9  A    between atoms: C_21  and  C_24 
REMARK   10  A    between atoms: C_24  and  C_25 
REMARK   11  A    between atoms: C_30  and  O_31 
REMARK   12  A    between atoms: C_33  and  O_34 
REMARK   13  A    between atoms: C_36  and  O_37 
ROOT
ATOM      1  C   UNL d   1      26.017 -15.315  -1.360  0.00  0.00     0.218 C 
ENDROOT
BRANCH   1   2
ATOM      2  C   UNL d   1      25.025 -16.407  -0.995  0.00  0.00     0.040 C 
ATOM      3  C   UNL d   1      25.376 -17.631  -0.446  0.00  0.00     0.080 C 
ATOM      4  C   UNL d   1      24.464 -18.578  -0.021  0.00  0.00     0.073 C 
ATOM      5  C   UNL d   1      23.122 -18.345  -0.223  0.00  0.00     0.071 C 
ATOM      6  C   UNL d   1      22.695 -17.190  -0.852  0.00  0.00     0.073 C 
ATOM      7  C   UNL d   1      23.643 -16.253  -1.263  0.00  0.00     0.080 C 
BRANCH   3   8
ATOM      8  O   UNL d   1      26.647 -18.084  -0.465  0.00  0.00    -0.360 OA
ATOM      9  H   UNL d   1      27.085 -17.469   0.152  0.00  0.00     0.217 HD
ENDBRANCH   3   8
BRANCH   5  10
ATOM     10  O   UNL d   1      22.202 -19.280   0.128  0.00  0.00    -0.361 OA
ATOM     11  H   UNL d   1      22.689 -20.089   0.364  0.00  0.00     0.217 HD
ENDBRANCH   5  10
BRANCH   7  12
ATOM     12  O   UNL d   1      23.187 -15.201  -2.020  0.00  0.00    -0.360 OA
ATOM     13  H   UNL d   1      23.827 -15.021  -2.734  0.00  0.00     0.217 HD
ENDBRANCH   7  12
ENDBRANCH   1   2
BRANCH   1  14
ATOM     14  C   UNL d   1      26.872 -14.919  -0.118  0.00  0.00     0.246 C 
ATOM     15  O   UNL d   1      27.372 -15.792   0.584  0.00  0.00    -0.271 OA
ATOM     16  N   UNL d   1      27.044 -13.551   0.121  0.00  0.00    -0.351 N 
ATOM     17  H   UNL d   1      26.575 -12.895  -0.499  0.00  0.00     0.163 HD
BRANCH  16  18
ATOM     18  C   UNL d   1      27.674 -13.078   1.357  0.00  0.00     0.026 C 
ATOM     19  C   UNL d   1      29.184 -13.027   1.065  0.00  0.00     0.038 C 
ATOM     20  C   UNL d   1      27.059 -11.698   1.616  0.00  0.00     0.038 C 
BRANCH  18  21
ATOM     21  C   UNL d   1      27.404 -14.055   2.580  0.00  0.00     0.038 C 
BRANCH  21  22
ATOM     22  C   UNL d   1      28.219 -13.830   3.919  0.00  0.00    -0.049 C 
ATOM     23  C   UNL d   1      29.625 -14.450   3.882  0.00  0.00     0.014 C 
ATOM     24  C   UNL d   1      28.326 -12.348   4.305  0.00  0.00     0.014 C 
ATOM     25  C   UNL d   1      27.507 -14.513   5.105  0.00  0.00     0.014 C 
ENDBRANCH  21  22
ENDBRANCH  18  21
ENDBRANCH  16  18
ENDBRANCH   1  14
BRANCH   1  26
ATOM     26  N   UNL d   1      27.059 -15.371  -2.503  0.00  0.00    -0.334 N 
ATOM     27  C   UNL d   1      26.367 -15.011  -3.679  0.00  0.00     0.225 C 
ATOM     28  O   UNL d   1      25.121 -15.056  -3.730  0.00  0.00    -0.273 OA
BRANCH  26  29
ATOM     29  C   UNL d   1      28.592 -15.282  -2.363  0.00  0.00     0.127 C 
BRANCH  29  30
ATOM     30  C   UNL d   1      29.441 -16.552  -2.309  0.00  0.00     0.015 C 
ATOM     31  C   UNL d   1      29.633 -17.246  -0.985  0.00  0.00     0.006 C 
ENDBRANCH  29  30
ENDBRANCH  26  29
BRANCH  27  32
ATOM     32  C   UNL d   1      27.127 -14.513  -4.853  0.00  0.00     0.141 C 
BRANCH  32  33
ATOM     33  C   UNL d   1      26.889 -13.093  -5.180  0.00  0.00    -0.047 A 
ATOM     34  C   UNL d   1      27.436 -12.558  -6.361  0.00  0.00     0.010 A 
ATOM     35  C   UNL d   1      27.208 -11.232  -6.670  0.00  0.00     0.040 A 
ATOM     36  C   UNL d   1      26.435 -10.512  -5.784  0.00  0.00     0.105 A 
ATOM     37  C   UNL d   1      25.906 -11.058  -4.634  0.00  0.00     0.105 A 
ATOM     38  O   UNL d   1      26.094  -9.205  -5.914  0.00  0.00    -0.323 OA
ATOM     39  C   UNL d   1      26.111 -12.354  -4.296  0.00  0.00     0.047 A 
ATOM     40  O   UNL d   1      25.182 -10.183  -3.899  0.00  0.00    -0.323 OA
ATOM     41  C   UNL d   1      25.384  -8.993  -4.676  0.00  0.00     0.352 A 
ENDBRANCH  32  33
ENDBRANCH  27  32
ENDBRANCH   1  26
TORSDOF 13
ENDMDL
MODEL 3
REMARK VINA RESULT:    -7.456      0.366      1.592
REMARK INTER + INTRA:         -15.362
REMARK INTER:                 -11.334
REMARK INTRA:                  -4.028
REMARK CONF_INDEPENDENT:        3.878
REMARK UNBOUND:                -4.028
REMARK  13 active torsions:
REMARK  status: ('A' for Active; 'I' for Inactive)
REMARK    1  A    between atoms: C_2  and  C_3 
REMARK    2  A    between atoms: C_3  and  N_4 
REMARK       I    between atoms: N_4  and  C_5 
REMARK    3  A    between atoms: C_17  and  N_4 
REMARK    4  A    between atoms: C_5  and  C_7 
REMARK    5  A    between atoms: C_7  and  C_8 
REMARK    6  A    between atoms: C_17  and  C_29 
REMARK    7  A    between atoms: C_17  and  C_18 
REMARK       I    between atoms: C_18  and  N_20 
REMARK    8  A    between atoms: N_20  and  C_21 
REMARK    9  A    between atoms: C_21  and  C_24 
REMARK   10  A    between atoms: C_24  and  C_25 
REMARK   11  A    between atoms: C_30  and  O_31 
REMARK   12  A    between atoms: C_33  and  O_34 
REMARK   13  A    between atoms: C_36  and  O_37 
ROOT
ATOM      1  C   UNL d   1      29.203 -13.921   1.368  0.00  0.00     0.218 C 
ENDROOT
BRANCH   1   2
ATOM      2  C   UNL d   1      29.080 -14.075   2.875  0.00  0.00     0.040 C 
ATOM      3  C   UNL d   1      30.113 -14.479   3.708  0.00  0.00     0.080 C 
ATOM      4  C   UNL d   1      30.025 -14.517   5.086  0.00  0.00     0.073 C 
ATOM      5  C   UNL d   1      28.821 -14.219   5.683  0.00  0.00     0.071 C 
ATOM      6  C   UNL d   1      27.715 -13.900   4.917  0.00  0.00     0.073 C 
ATOM      7  C   UNL d   1      27.840 -13.865   3.528  0.00  0.00     0.080 C 
BRANCH   3   8
ATOM      8  O   UNL d   1      31.230 -15.062   3.227  0.00  0.00    -0.360 OA
ATOM      9  H   UNL d   1      30.860 -15.739   2.632  0.00  0.00     0.217 HD
ENDBRANCH   3   8
BRANCH   5  10
ATOM     10  O   UNL d   1      28.682 -14.305   7.032  0.00  0.00    -0.361 OA
ATOM     11  H   UNL d   1      28.531 -15.242   7.246  0.00  0.00     0.217 HD
ENDBRANCH   5  10
BRANCH   7  12
ATOM     12  O   UNL d   1      26.684 -13.699   2.804  0.00  0.00    -0.360 OA
ATOM     13  H   UNL d   1      25.932 -13.617   3.420  0.00  0.00     0.217 HD
ENDBRANCH   7  12
ENDBRANCH   1   2
BRANCH   1  14
ATOM     14  C   UNL d   1      28.556 -15.139   0.641  0.00  0.00     0.246 C 
ATOM     15  O   UNL d   1      29.269 -15.962   0.074  0.00  0.00    -0.271 OA
ATOM     16  N   UNL d   1      27.161 -15.239   0.694  0.00  0.00    -0.351 N 
ATOM     17  H   UNL d   1      26.647 -14.500   1.166  0.00  0.00     0.163 HD
BRANCH  16  18
ATOM     18  C   UNL d   1      26.450 -16.240  -0.105  0.00  0.00     0.026 C 
ATOM     19  C   UNL d   1      27.026 -16.128  -1.528  0.00  0.00     0.038 C 
ATOM     20  C   UNL d   1      26.756 -17.582   0.569  0.00  0.00     0.038 C 
BRANCH  18  21
ATOM     21  C   UNL d   1      24.884 -15.974  -0.145  0.00  0.00     0.038 C 
BRANCH  21  22
ATOM     22  C   UNL d   1      23.939 -17.113  -0.710  0.00  0.00    -0.049 C 
ATOM     23  C   UNL d   1      22.466 -16.683  -0.806  0.00  0.00     0.014 C 
ATOM     24  C   UNL d   1      24.404 -17.645  -2.073  0.00  0.00     0.014 C 
ATOM     25  C   UNL d   1      23.943 -18.334   0.233  0.00  0.00     0.014 C 
ENDBRANCH  21  22
ENDBRANCH  18  21
ENDBRANCH  16  18
ENDBRANCH   1  14
BRANCH   1  26
ATOM     26  N   UNL d   1      28.723 -12.713   0.530  0.00  0.00    -0.334 N 
ATOM     27  C   UNL d   1      29.432 -12.779  -0.689  0.00  0.00     0.225 C 
ATOM     28  O   UNL d   1      30.471 -13.460  -0.792  0.00  0.00    -0.273 OA
BRANCH  26  29
ATOM     29  C   UNL d   1      27.404 -11.934   0.700  0.00  0.00     0.127 C 
BRANCH  29  30
ATOM     30  C   UNL d   1      27.287 -10.826   1.746  0.00  0.00     0.015 C 
ATOM     31  C   UNL d   1      28.377 -10.674   2.775  0.00  0.00     0.006 C 
ENDBRANCH  29  30
ENDBRANCH  26  29
BRANCH  27  32
ATOM     32  C   UNL d   1      28.899 -12.077  -1.885  0.00  0.00     0.141 C 
BRANCH  32  33
ATOM     33  C   UNL d   1      27.807 -12.789  -2.578  0.00  0.00    -0.047 A 
ATOM     34  C   UNL d   1      26.474 -12.533  -2.207  0.00  0.00     0.010 A 
ATOM     35  C   UNL d   1      25.453 -13.193  -2.860  0.00  0.00     0.040 A 
ATOM     36  C   UNL d   1      25.819 -14.070  -3.858  0.00  0.00     0.105 A 
ATOM     37  C   UNL d   1      27.132 -14.304  -4.208  0.00  0.00     0.105 A 
ATOM     38  O   UNL d   1      24.967 -14.805  -4.617  0.00  0.00    -0.323 OA
ATOM     39  C   UNL d   1      28.161 -13.677  -3.588  0.00  0.00     0.047 A 
ATOM     40  O   UNL d   1      27.278 -15.203  -5.207  0.00  0.00    -0.323 OA
ATOM     41  C   UNL d   1      25.905 -15.577  -5.395  0.00  0.00     0.352 A 
ENDBRANCH  32  33
ENDBRANCH  27  32
ENDBRANCH   1  26
TORSDOF 13
ENDMDL
MODEL 4
REMARK VINA RESULT:    -7.384      2.917      6.365
REMARK INTER + INTRA:         -14.937
REMARK INTER:                 -11.262
REMARK INTRA:                  -3.675
REMARK CONF_INDEPENDENT:        3.878
REMARK UNBOUND:                -3.675
REMARK  13 active torsions:
REMARK  status: ('A' for Active; 'I' for Inactive)
REMARK    1  A    between atoms: C_2  and  C_3 
REMARK    2  A    between atoms: C_3  and  N_4 
REMARK       I    between atoms: N_4  and  C_5 
REMARK    3  A    between atoms: C_17  and  N_4 
REMARK    4  A    between atoms: C_5  and  C_7 
REMARK    5  A    between atoms: C_7  and  C_8 
REMARK    6  A    between atoms: C_17  and  C_29 
REMARK    7  A    between atoms: C_17  and  C_18 
REMARK       I    between atoms: C_18  and  N_20 
REMARK    8  A    between atoms: N_20  and  C_21 
REMARK    9  A    between atoms: C_21  and  C_24 
REMARK   10  A    between atoms: C_24  and  C_25 
REMARK   11  A    between atoms: C_30  and  O_31 
REMARK   12  A    between atoms: C_33  and  O_34 
REMARK   13  A    between atoms: C_36  and  O_37 
ROOT
ATOM      1  C   UNL d   1      25.486 -15.291  -1.279  0.00  0.00     0.218 C 
ENDROOT
BRANCH   1   2
ATOM      2  C   UNL d   1      24.564 -16.449  -0.937  0.00  0.00     0.040 C 
ATOM      3  C   UNL d   1      24.999 -17.709  -0.555  0.00  0.00     0.080 C 
ATOM      4  C   UNL d   1      24.158 -18.727  -0.146  0.00  0.00     0.073 C 
ATOM      5  C   UNL d   1      22.797 -18.522  -0.191  0.00  0.00     0.071 C 
ATOM      6  C   UNL d   1      22.280 -17.325  -0.651  0.00  0.00     0.073 C 
ATOM      7  C   UNL d   1      23.157 -16.317  -1.051  0.00  0.00     0.080 C 
BRANCH   3   8
ATOM      8  O   UNL d   1      26.272 -18.112  -0.745  0.00  0.00    -0.360 OA
ATOM      9  H   UNL d   1      26.628 -18.076   0.162  0.00  0.00     0.217 HD
ENDBRANCH   3   8
BRANCH   5  10
ATOM     10  O   UNL d   1      21.941 -19.520   0.147  0.00  0.00    -0.361 OA
ATOM     11  H   UNL d   1      22.471 -20.231   0.547  0.00  0.00     0.217 HD
ENDBRANCH   5  10
BRANCH   7  12
ATOM     12  O   UNL d   1      22.602 -15.210  -1.646  0.00  0.00    -0.360 OA
ATOM     13  H   UNL d   1      23.286 -14.754  -2.172  0.00  0.00     0.217 HD
ENDBRANCH   7  12
ENDBRANCH   1   2
BRANCH   1  14
ATOM     14  C   UNL d   1      26.516 -15.057  -0.133  0.00  0.00     0.246 C 
ATOM     15  O   UNL d   1      26.836 -15.988   0.601  0.00  0.00    -0.271 OA
ATOM     16  N   UNL d   1      27.049 -13.768  -0.013  0.00  0.00    -0.351 N 
ATOM     17  H   UNL d   1      26.709 -13.051  -0.649  0.00  0.00     0.163 HD
BRANCH  16  18
ATOM     18  C   UNL d   1      27.881 -13.404   1.137  0.00  0.00     0.026 C 
ATOM     19  C   UNL d   1      29.276 -13.983   0.846  0.00  0.00     0.038 C 
ATOM     20  C   UNL d   1      27.857 -11.872   1.177  0.00  0.00     0.038 C 
BRANCH  18  21
ATOM     21  C   UNL d   1      27.327 -14.012   2.495  0.00  0.00     0.038 C 
BRANCH  21  22
ATOM     22  C   UNL d   1      28.098 -13.682   3.839  0.00  0.00    -0.049 C 
ATOM     23  C   UNL d   1      29.568 -14.131   3.819  0.00  0.00     0.014 C 
ATOM     24  C   UNL d   1      28.025 -12.194   4.213  0.00  0.00     0.014 C 
ATOM     25  C   UNL d   1      27.462 -14.436   5.025  0.00  0.00     0.014 C 
ENDBRANCH  21  22
ENDBRANCH  18  21
ENDBRANCH  16  18
ENDBRANCH   1  14
BRANCH   1  26
ATOM     26  N   UNL d   1      26.345 -15.153  -2.559  0.00  0.00    -0.334 N 
ATOM     27  C   UNL d   1      25.575 -14.393  -3.465  0.00  0.00     0.225 C 
ATOM     28  O   UNL d   1      24.343 -14.264  -3.311  0.00  0.00    -0.273 OA
BRANCH  26  29
ATOM     29  C   UNL d   1      27.875 -15.301  -2.667  0.00  0.00     0.127 C 
BRANCH  29  30
ATOM     30  C   UNL d   1      28.548 -16.641  -2.370  0.00  0.00     0.015 C 
ATOM     31  C   UNL d   1      29.483 -16.745  -1.193  0.00  0.00     0.006 C 
ENDBRANCH  29  30
ENDBRANCH  26  29
BRANCH  27  32
ATOM     32  C   UNL d   1      26.247 -13.685  -4.583  0.00  0.00     0.141 C 
BRANCH  32  33
ATOM     33  C   UNL d   1      26.052 -12.221  -4.588  0.00  0.00    -0.047 A 
ATOM     34  C   UNL d   1      26.005 -11.529  -3.364  0.00  0.00     0.010 A 
ATOM     35  C   UNL d   1      25.830 -10.160  -3.368  0.00  0.00     0.040 A 
ATOM     36  C   UNL d   1      25.719  -9.552  -4.601  0.00  0.00     0.105 A 
ATOM     37  C   UNL d   1      25.771 -10.250  -5.790  0.00  0.00     0.105 A 
ATOM     38  O   UNL d   1      25.551  -8.223  -4.815  0.00  0.00    -0.323 OA
ATOM     39  C   UNL d   1      25.939 -11.594  -5.824  0.00  0.00     0.047 A 
ATOM     40  O   UNL d   1      25.637  -9.470  -6.885  0.00  0.00    -0.323 OA
ATOM     41  C   UNL d   1      25.411  -8.203  -6.251  0.00  0.00     0.352 A 
ENDBRANCH  32  33
ENDBRANCH  27  32
ENDBRANCH   1  26
TORSDOF 13
ENDMDL
MODEL 5
REMARK VINA RESULT:    -7.249      2.762      7.193
REMARK INTER + INTRA:         -15.420
REMARK INTER:                 -11.127
REMARK INTRA:                  -4.294
REMARK CONF_INDEPENDENT:        3.878
REMARK UNBOUND:                -4.294
REMARK  13 active torsions:
REMARK  status: ('A' for Active; 'I' for Inactive)
REMARK    1  A    between atoms: C_2  and  C_3 
REMARK    2  A    between atoms: C_3  and  N_4 
REMARK       I    between atoms: N_4  and  C_5 
REMARK    3  A    between atoms: C_17  and  N_4 
REMARK    4  A    between atoms: C_5  and  C_7 
REMARK    5  A    between atoms: C_7  and  C_8 
REMARK    6  A    between atoms: C_17  and  C_29 
REMARK    7  A    between atoms: C_17  and  C_18 
REMARK       I    between atoms: C_18  and  N_20 
REMARK    8  A    between atoms: N_20  and  C_21 
REMARK    9  A    between atoms: C_21  and  C_24 
REMARK   10  A    between atoms: C_24  and  C_25 
REMARK   11  A    between atoms: C_30  and  O_31 
REMARK   12  A    between atoms: C_33  and  O_34 
REMARK   13  A    between atoms: C_36  and  O_37 
ROOT
ATOM      1  C   UNL d   1      28.234 -15.813  -2.576  0.00  0.00     0.218 C 
ENDROOT
BRANCH   1   2
ATOM      2  C   UNL d   1      29.062 -16.249  -3.774  0.00  0.00     0.040 C 
ATOM      3  C   UNL d   1      28.848 -15.812  -5.073  0.00  0.00     0.080 C 
ATOM      4  C   UNL d   1      29.666 -16.130  -6.140  0.00  0.00     0.073 C 
ATOM      5  C   UNL d   1      30.715 -16.999  -5.936  0.00  0.00     0.071 C 
ATOM      6  C   UNL d   1      30.938 -17.554  -4.690  0.00  0.00     0.073 C 
ATOM      7  C   UNL d   1      30.096 -17.206  -3.633  0.00  0.00     0.080 C 
BRANCH   3   8
ATOM      8  O   UNL d   1      27.704 -15.200  -5.441  0.00  0.00    -0.360 OA
ATOM      9  H   UNL d   1      27.668 -14.455  -4.814  0.00  0.00     0.217 HD
ENDBRANCH   3   8
BRANCH   5  10
ATOM     10  O   UNL d   1      31.503 -17.380  -6.975  0.00  0.00    -0.361 OA
ATOM     11  H   UNL d   1      32.427 -17.260  -6.694  0.00  0.00     0.217 HD
ENDBRANCH   5  10
BRANCH   7  12
ATOM     12  O   UNL d   1      30.257 -17.899  -2.457  0.00  0.00    -0.360 OA
ATOM     13  H   UNL d   1      30.769 -18.710  -2.633  0.00  0.00     0.217 HD
ENDBRANCH   7  12
ENDBRANCH   1   2
BRANCH   1  14
ATOM     14  C   UNL d   1      28.490 -14.309  -2.255  0.00  0.00     0.246 C 
ATOM     15  O   UNL d   1      28.665 -13.509  -3.170  0.00  0.00    -0.271 OA
ATOM     16  N   UNL d   1      28.485 -13.940  -0.905  0.00  0.00    -0.351 N 
ATOM     17  H   UNL d   1      28.354 -14.672  -0.211  0.00  0.00     0.163 HD
BRANCH  16  18
ATOM     18  C   UNL d   1      28.892 -12.594  -0.493  0.00  0.00     0.026 C 
ATOM     19  C   UNL d   1      30.311 -12.395  -1.053  0.00  0.00     0.038 C 
ATOM     20  C   UNL d   1      27.856 -11.654  -1.119  0.00  0.00     0.038 C 
BRANCH  18  21
ATOM     21  C   UNL d   1      28.918 -12.433   1.087  0.00  0.00     0.038 C 
BRANCH  21  22
ATOM     22  C   UNL d   1      27.741 -13.073   1.931  0.00  0.00    -0.049 C 
ATOM     23  C   UNL d   1      26.421 -13.173   1.148  0.00  0.00     0.014 C 
ATOM     24  C   UNL d   1      28.102 -14.454   2.496  0.00  0.00     0.014 C 
ATOM     25  C   UNL d   1      27.418 -12.198   3.158  0.00  0.00     0.014 C 
ENDBRANCH  21  22
ENDBRANCH  18  21
ENDBRANCH  16  18
ENDBRANCH   1  14
BRANCH   1  26
ATOM     26  N   UNL d   1      26.700 -15.949  -2.426  0.00  0.00    -0.334 N 
ATOM     27  C   UNL d   1      26.456 -16.104  -1.044  0.00  0.00     0.225 C 
ATOM     28  O   UNL d   1      27.369 -16.443  -0.265  0.00  0.00    -0.273 OA
BRANCH  26  29
ATOM     29  C   UNL d   1      25.626 -15.478  -3.427  0.00  0.00     0.127 C 
BRANCH  29  30
ATOM     30  C   UNL d   1      25.041 -14.070  -3.330  0.00  0.00     0.015 C 
ATOM     31  C   UNL d   1      25.554 -13.000  -4.258  0.00  0.00     0.006 C 
ENDBRANCH  29  30
ENDBRANCH  26  29
BRANCH  27  32
ATOM     32  C   UNL d   1      25.109 -15.798  -0.500  0.00  0.00     0.141 C 
BRANCH  32  33
ATOM     33  C   UNL d   1      24.150 -16.917  -0.571  0.00  0.00    -0.047 A 
ATOM     34  C   UNL d   1      24.604 -18.229  -0.344  0.00  0.00     0.010 A 
ATOM     35  C   UNL d   1      23.706 -19.275  -0.404  0.00  0.00     0.040 A 
ATOM     36  C   UNL d   1      22.394 -18.952  -0.680  0.00  0.00     0.105 A 
ATOM     37  C   UNL d   1      21.969 -17.658  -0.896  0.00  0.00     0.105 A 
ATOM     38  O   UNL d   1      21.366 -19.832  -0.773  0.00  0.00    -0.323 OA
ATOM     39  C   UNL d   1      22.823 -16.607  -0.848  0.00  0.00     0.047 A 
ATOM     40  O   UNL d   1      20.647 -17.555  -1.155  0.00  0.00    -0.323 OA
ATOM     41  C   UNL d   1      20.295 -18.947  -1.161  0.00  0.00     0.352 A 
ENDBRANCH  32  33
ENDBRANCH  27  32
ENDBRANCH   1  26
TORSDOF 13
ENDMDL
MODEL 6
REMARK VINA RESULT:    -7.175      3.226      6.481
REMARK INTER + INTRA:         -14.917
REMARK INTER:                 -11.053
REMARK INTRA:                  -3.864
REMARK CONF_INDEPENDENT:        3.878
REMARK UNBOUND:                -3.864
REMARK  13 active torsions:
REMARK  status: ('A' for Active; 'I' for Inactive)
REMARK    1  A    between atoms: C_2  and  C_3 
REMARK    2  A    between atoms: C_3  and  N_4 
REMARK       I    between atoms: N_4  and  C_5 
REMARK    3  A    between atoms: C_17  and  N_4 
REMARK    4  A    between atoms: C_5  and  C_7 
REMARK    5  A    between atoms: C_7  and  C_8 
REMARK    6  A    between atoms: C_17  and  C_29 
REMARK    7  A    between atoms: C_17  and  C_18 
REMARK       I    between atoms: C_18  and  N_20 
REMARK    8  A    between atoms: N_20  and  C_21 
REMARK    9  A    between atoms: C_21  and  C_24 
REMARK   10  A    between atoms: C_24  and  C_25 
REMARK   11  A    between atoms: C_30  and  O_31 
REMARK   12  A    between atoms: C_33  and  O_34 
REMARK   13  A    between atoms: C_36  and  O_37 
ROOT
ATOM      1  C   UNL d   1      27.015 -15.200  -1.429  0.00  0.00     0.218 C 
ENDROOT
BRANCH   1   2
ATOM      2  C   UNL d   1      25.958 -16.227  -1.057  0.00  0.00     0.040 C 
ATOM      3  C   UNL d   1      26.163 -17.275  -0.173  0.00  0.00     0.080 C 
ATOM      4  C   UNL d   1      25.172 -18.144   0.241  0.00  0.00     0.073 C 
ATOM      5  C   UNL d   1      23.915 -18.027  -0.310  0.00  0.00     0.071 C 
ATOM      6  C   UNL d   1      23.654 -17.068  -1.271  0.00  0.00     0.073 C 
ATOM      7  C   UNL d   1      24.677 -16.204  -1.661  0.00  0.00     0.080 C 
BRANCH   3   8
ATOM      8  O   UNL d   1      27.401 -17.659   0.204  0.00  0.00    -0.360 OA
ATOM      9  H   UNL d   1      27.368 -17.514   1.168  0.00  0.00     0.217 HD
ENDBRANCH   3   8
BRANCH   5  10
ATOM     10  O   UNL d   1      22.932 -18.901   0.029  0.00  0.00    -0.361 OA
ATOM     11  H   UNL d   1      23.336 -19.583   0.593  0.00  0.00     0.217 HD
ENDBRANCH   5  10
BRANCH   7  12
ATOM     12  O   UNL d   1      24.417 -15.375  -2.725  0.00  0.00    -0.360 OA
ATOM     13  H   UNL d   1      25.256 -15.166  -3.179  0.00  0.00     0.217 HD
ENDBRANCH   7  12
ENDBRANCH   1   2
BRANCH   1  14
ATOM     14  C   UNL d   1      27.260 -14.216  -0.245  0.00  0.00     0.246 C 
ATOM     15  O   UNL d   1      27.239 -13.005  -0.443  0.00  0.00    -0.271 OA
ATOM     16  N   UNL d   1      27.477 -14.784   1.015  0.00  0.00    -0.351 N 
ATOM     17  H   UNL d   1      27.501 -15.798   1.084  0.00  0.00     0.163 HD
BRANCH  16  18
ATOM     18  C   UNL d   1      27.894 -13.956   2.150  0.00  0.00     0.026 C 
ATOM     19  C   UNL d   1      29.219 -13.300   1.727  0.00  0.00     0.038 C 
ATOM     20  C   UNL d   1      26.755 -12.950   2.350  0.00  0.00     0.038 C 
BRANCH  18  21
ATOM     21  C   UNL d   1      28.125 -14.815   3.466  0.00  0.00     0.038 C 
BRANCH  21  22
ATOM     22  C   UNL d   1      28.845 -14.128   4.699  0.00  0.00    -0.049 C 
ATOM     23  C   UNL d   1      28.534 -12.627   4.821  0.00  0.00     0.014 C 
ATOM     24  C   UNL d   1      28.529 -14.824   6.031  0.00  0.00     0.014 C 
ATOM     25  C   UNL d   1      30.377 -14.212   4.544  0.00  0.00     0.014 C 
ENDBRANCH  21  22
ENDBRANCH  18  21
ENDBRANCH  16  18
ENDBRANCH   1  14
BRANCH   1  26
ATOM     26  N   UNL d   1      28.445 -15.503  -1.938  0.00  0.00    -0.334 N 
ATOM     27  C   UNL d   1      28.374 -15.456  -3.347  0.00  0.00     0.225 C 
ATOM     28  O   UNL d   1      27.279 -15.544  -3.939  0.00  0.00    -0.273 OA
BRANCH  26  29
ATOM     29  C   UNL d   1      29.761 -15.344  -1.152  0.00  0.00     0.127 C 
BRANCH  29  30
ATOM     30  C   UNL d   1      30.329 -16.511  -0.346  0.00  0.00     0.015 C 
ATOM     31  C   UNL d   1      30.251 -17.902  -0.919  0.00  0.00     0.006 C 
ENDBRANCH  29  30
ENDBRANCH  26  29
BRANCH  27  32
ATOM     32  C   UNL d   1      29.613 -15.236  -4.136  0.00  0.00     0.141 C 
BRANCH  32  33
ATOM     33  C   UNL d   1      30.021 -16.384  -4.970  0.00  0.00    -0.047 A 
ATOM     34  C   UNL d   1      30.394 -16.164  -6.309  0.00  0.00     0.010 A 
ATOM     35  C   UNL d   1      30.782 -17.236  -7.086  0.00  0.00     0.040 A 
ATOM     36  C   UNL d   1      30.786 -18.475  -6.479  0.00  0.00     0.105 A 
ATOM     37  C   UNL d   1      30.421 -18.667  -5.163  0.00  0.00     0.105 A 
ATOM     38  O   UNL d   1      31.142 -19.643  -7.070  0.00  0.00    -0.323 OA
ATOM     39  C   UNL d   1      30.031 -17.639  -4.371  0.00  0.00     0.047 A 
ATOM     40  O   UNL d   1      30.489 -19.956  -4.762  0.00  0.00    -0.323 OA
ATOM     41  C   UNL d   1      30.861 -20.574  -6.003  0.00  0.00     0.352 A 
ENDBRANCH  32  33
ENDBRANCH  27  32
ENDBRANCH   1  26
TORSDOF 13
ENDMDL
MODEL 7
REMARK VINA RESULT:    -7.053      2.509      6.123
REMARK INTER + INTRA:         -14.743
REMARK INTER:                 -10.930
REMARK INTRA:                  -3.813
REMARK CONF_INDEPENDENT:        3.878
REMARK UNBOUND:                -3.813
REMARK  13 active torsions:
REMARK  status: ('A' for Active; 'I' for Inactive)
REMARK    1  A    between atoms: C_2  and  C_3 
REMARK    2  A    between atoms: C_3  and  N_4 
REMARK       I    between atoms: N_4  and  C_5 
REMARK    3  A    between atoms: C_17  and  N_4 
REMARK    4  A    between atoms: C_5  and  C_7 
REMARK    5  A    between atoms: C_7  and  C_8 
REMARK    6  A    between atoms: C_17  and  C_29 
REMARK    7  A    between atoms: C_17  and  C_18 
REMARK       I    between atoms: C_18  and  N_20 
REMARK    8  A    between atoms: N_20  and  C_21 
REMARK    9  A    between atoms: C_21  and  C_24 
REMARK   10  A    between atoms: C_24  and  C_25 
REMARK   11  A    between atoms: C_30  and  O_31 
REMARK   12  A    between atoms: C_33  and  O_34 
REMARK   13  A    between atoms: C_36  and  O_37 
ROOT
ATOM      1  C   UNL d   1      26.053 -14.836  -1.232  0.00  0.00     0.218 C 
ENDROOT
BRANCH   1   2
ATOM      2  C   UNL d   1      25.351 -16.159  -0.976  0.00  0.00     0.040 C 
ATOM      3  C   UNL d   1      25.984 -17.305  -0.517  0.00  0.00     0.080 C 
ATOM      4  C   UNL d   1      25.325 -18.474  -0.188  0.00  0.00     0.073 C 
ATOM      5  C   UNL d   1      23.966 -18.552  -0.401  0.00  0.00     0.071 C 
ATOM      6  C   UNL d   1      23.277 -17.486  -0.946  0.00  0.00     0.073 C 
ATOM      7  C   UNL d   1      23.972 -16.318  -1.261  0.00  0.00     0.080 C 
BRANCH   3   8
ATOM      8  O   UNL d   1      27.326 -17.437  -0.543  0.00  0.00    -0.360 OA
ATOM      9  H   UNL d   1      27.613 -16.633  -0.073  0.00  0.00     0.217 HD
ENDBRANCH   3   8
BRANCH   5  10
ATOM     10  O   UNL d   1      23.296 -19.706  -0.145  0.00  0.00    -0.361 OA
ATOM     11  H   UNL d   1      22.741 -19.548   0.638  0.00  0.00     0.217 HD
ENDBRANCH   5  10
BRANCH   7  12
ATOM     12  O   UNL d   1      23.280 -15.347  -1.943  0.00  0.00    -0.360 OA
ATOM     13  H   UNL d   1      23.710 -15.196  -2.806  0.00  0.00     0.217 HD
ENDBRANCH   7  12
ENDBRANCH   1   2
BRANCH   1  14
ATOM     14  C   UNL d   1      26.807 -14.363   0.048  0.00  0.00     0.246 C 
ATOM     15  O   UNL d   1      27.366 -15.185   0.768  0.00  0.00    -0.271 OA
ATOM     16  N   UNL d   1      26.822 -12.986   0.301  0.00  0.00    -0.351 N 
ATOM     17  H   UNL d   1      26.312 -12.379  -0.335  0.00  0.00     0.163 HD
BRANCH  16  18
ATOM     18  C   UNL d   1      27.344 -12.461   1.566  0.00  0.00     0.026 C 
ATOM     19  C   UNL d   1      28.866 -12.342   1.374  0.00  0.00     0.038 C 
ATOM     20  C   UNL d   1      26.649 -11.109   1.754  0.00  0.00     0.038 C 
BRANCH  18  21
ATOM     21  C   UNL d   1      27.039 -13.428   2.789  0.00  0.00     0.038 C 
BRANCH  21  22
ATOM     22  C   UNL d   1      28.025 -13.411   4.028  0.00  0.00    -0.049 C 
ATOM     23  C   UNL d   1      29.359 -14.123   3.749  0.00  0.00     0.014 C 
ATOM     24  C   UNL d   1      28.304 -11.991   4.543  0.00  0.00     0.014 C 
ATOM     25  C   UNL d   1      27.405 -14.167   5.222  0.00  0.00     0.014 C 
ENDBRANCH  21  22
ENDBRANCH  18  21
ENDBRANCH  16  18
ENDBRANCH   1  14
BRANCH   1  26
ATOM     26  N   UNL d   1      27.064 -14.541  -2.366  0.00  0.00    -0.334 N 
ATOM     27  C   UNL d   1      26.295 -14.376  -3.538  0.00  0.00     0.225 C 
ATOM     28  O   UNL d   1      25.122 -14.795  -3.602  0.00  0.00    -0.273 OA
BRANCH  26  29
ATOM     29  C   UNL d   1      28.496 -13.995  -2.210  0.00  0.00     0.127 C 
BRANCH  29  30
ATOM     30  C   UNL d   1      29.558 -14.804  -1.466  0.00  0.00     0.015 C 
ATOM     31  C   UNL d   1      29.999 -16.128  -2.034  0.00  0.00     0.006 C 
ENDBRANCH  29  30
ENDBRANCH  26  29
BRANCH  27  32
ATOM     32  C   UNL d   1      26.869 -13.638  -4.692  0.00  0.00     0.141 C 
BRANCH  32  33
ATOM     33  C   UNL d   1      27.953 -14.350  -5.397  0.00  0.00    -0.047 A 
ATOM     34  C   UNL d   1      28.535 -13.763  -6.536  0.00  0.00     0.010 A 
ATOM     35  C   UNL d   1      29.554 -14.424  -7.191  0.00  0.00     0.040 A 
ATOM     36  C   UNL d   1      29.945 -15.638  -6.666  0.00  0.00     0.105 A 
ATOM     37  C   UNL d   1      29.363 -16.194  -5.546  0.00  0.00     0.105 A 
ATOM     38  O   UNL d   1      30.927 -16.433  -7.159  0.00  0.00    -0.323 OA
ATOM     39  C   UNL d   1      28.359 -15.575  -4.879  0.00  0.00     0.047 A 
ATOM     40  O   UNL d   1      29.886 -17.390  -5.197  0.00  0.00    -0.323 OA
ATOM     41  C   UNL d   1      30.814 -17.570  -6.277  0.00  0.00     0.352 A 
ENDBRANCH  32  33
ENDBRANCH  27  32
ENDBRANCH   1  26
TORSDOF 13
ENDMDL
MODEL 8
REMARK VINA RESULT:    -6.829      2.346      6.901
REMARK INTER + INTRA:         -14.772
REMARK INTER:                 -10.707
REMARK INTRA:                  -4.065
REMARK CONF_INDEPENDENT:        3.878
REMARK UNBOUND:                -4.065
REMARK  13 active torsions:
REMARK  status: ('A' for Active; 'I' for Inactive)
REMARK    1  A    between atoms: C_2  and  C_3 
REMARK    2  A    between atoms: C_3  and  N_4 
REMARK       I    between atoms: N_4  and  C_5 
REMARK    3  A    between atoms: C_17  and  N_4 
REMARK    4  A    between atoms: C_5  and  C_7 
REMARK    5  A    between atoms: C_7  and  C_8 
REMARK    6  A    between atoms: C_17  and  C_29 
REMARK    7  A    between atoms: C_17  and  C_18 
REMARK       I    between atoms: C_18  and  N_20 
REMARK    8  A    between atoms: N_20  and  C_21 
REMARK    9  A    between atoms: C_21  and  C_24 
REMARK   10  A    between atoms: C_24  and  C_25 
REMARK   11  A    between atoms: C_30  and  O_31 
REMARK   12  A    between atoms: C_33  and  O_34 
REMARK   13  A    between atoms: C_36  and  O_37 
ROOT
ATOM      1  C   UNL d   1      26.511 -16.444  -1.784  0.00  0.00     0.218 C 
ENDROOT
BRANCH   1   2
ATOM      2  C   UNL d   1      25.246 -16.980  -1.135  0.00  0.00     0.040 C 
ATOM      3  C   UNL d   1      23.970 -16.504  -1.397  0.00  0.00     0.080 C 
ATOM      4  C   UNL d   1      22.815 -17.063  -0.884  0.00  0.00     0.073 C 
ATOM      5  C   UNL d   1      22.923 -18.105   0.010  0.00  0.00     0.071 C 
ATOM      6  C   UNL d   1      24.164 -18.575   0.397  0.00  0.00     0.073 C 
ATOM      7  C   UNL d   1      25.309 -17.992  -0.146  0.00  0.00     0.080 C 
BRANCH   3   8
ATOM      8  O   UNL d   1      23.762 -15.326  -2.020  0.00  0.00    -0.360 OA
ATOM      9  H   UNL d   1      24.510 -14.794  -1.693  0.00  0.00     0.217 HD
ENDBRANCH   3   8
BRANCH   5  10
ATOM     10  O   UNL d   1      21.812 -18.639   0.580  0.00  0.00    -0.361 OA
ATOM     11  H   UNL d   1      22.073 -19.486   0.981  0.00  0.00     0.217 HD
ENDBRANCH   5  10
BRANCH   7  12
ATOM     12  O   UNL d   1      26.515 -18.382   0.384  0.00  0.00    -0.360 OA
ATOM     13  H   UNL d   1      27.110 -17.610   0.424  0.00  0.00     0.217 HD
ENDBRANCH   7  12
ENDBRANCH   1   2
BRANCH   1  14
ATOM     14  C   UNL d   1      26.155 -15.478  -2.955  0.00  0.00     0.246 C 
ATOM     15  O   UNL d   1      25.694 -15.928  -4.000  0.00  0.00    -0.271 OA
ATOM     16  N   UNL d   1      26.368 -14.112  -2.736  0.00  0.00    -0.351 N 
ATOM     17  H   UNL d   1      26.775 -13.829  -1.849  0.00  0.00     0.163 HD
BRANCH  16  18
ATOM     18  C   UNL d   1      26.237 -13.147  -3.831  0.00  0.00     0.026 C 
ATOM     19  C   UNL d   1      24.780 -13.254  -4.314  0.00  0.00     0.038 C 
ATOM     20  C   UNL d   1      26.571 -11.788  -3.207  0.00  0.00     0.038 C 
BRANCH  18  21
ATOM     21  C   UNL d   1      27.220 -13.470  -5.037  0.00  0.00     0.038 C 
BRANCH  21  22
ATOM     22  C   UNL d   1      28.660 -14.040  -4.704  0.00  0.00    -0.049 C 
ATOM     23  C   UNL d   1      29.207 -13.548  -3.354  0.00  0.00     0.014 C 
ATOM     24  C   UNL d   1      28.713 -15.574  -4.747  0.00  0.00     0.014 C 
ATOM     25  C   UNL d   1      29.685 -13.563  -5.754  0.00  0.00     0.014 C 
ENDBRANCH  21  22
ENDBRANCH  18  21
ENDBRANCH  16  18
ENDBRANCH   1  14
BRANCH   1  26
ATOM     26  N   UNL d   1      27.669 -15.713  -1.064  0.00  0.00    -0.334 N 
ATOM     27  C   UNL d   1      27.069 -14.942  -0.045  0.00  0.00     0.225 C 
ATOM     28  O   UNL d   1      25.851 -14.675  -0.074  0.00  0.00    -0.273 OA
BRANCH  26  29
ATOM     29  C   UNL d   1      29.155 -16.121  -1.052  0.00  0.00     0.127 C 
BRANCH  29  30
ATOM     30  C   UNL d   1      29.600 -17.449  -1.663  0.00  0.00     0.015 C 
ATOM     31  C   UNL d   1      30.776 -17.463  -2.605  0.00  0.00     0.006 C 
ENDBRANCH  29  30
ENDBRANCH  26  29
BRANCH  27  32
ATOM     32  C   UNL d   1      27.886 -14.495   1.112  0.00  0.00     0.141 C 
BRANCH  32  33
ATOM     33  C   UNL d   1      27.612 -13.114   1.558  0.00  0.00    -0.047 A 
ATOM     34  C   UNL d   1      27.293 -12.133   0.602  0.00  0.00     0.010 A 
ATOM     35  C   UNL d   1      27.030 -10.844   1.020  0.00  0.00     0.040 A 
ATOM     36  C   UNL d   1      27.092 -10.606   2.377  0.00  0.00     0.105 A 
ATOM     37  C   UNL d   1      27.404 -11.584   3.297  0.00  0.00     0.105 A 
ATOM     38  O   UNL d   1      26.860  -9.414   2.981  0.00  0.00    -0.323 OA
ATOM     39  C   UNL d   1      27.671 -12.859   2.924  0.00  0.00     0.047 A 
ATOM     40  O   UNL d   1      27.417 -11.145   4.575  0.00  0.00    -0.323 OA
ATOM     41  C   UNL d   1      27.158  -9.751   4.353  0.00  0.00     0.352 A 
ENDBRANCH  32  33
ENDBRANCH  27  32
ENDBRANCH   1  26
TORSDOF 13
ENDMDL
MODEL 9
REMARK VINA RESULT:    -6.744      2.352      6.892
REMARK INTER + INTRA:         -14.854
REMARK INTER:                 -10.621
REMARK INTRA:                  -4.232
REMARK CONF_INDEPENDENT:        3.878
REMARK UNBOUND:                -4.232
REMARK  13 active torsions:
REMARK  status: ('A' for Active; 'I' for Inactive)
REMARK    1  A    between atoms: C_2  and  C_3 
REMARK    2  A    between atoms: C_3  and  N_4 
REMARK       I    between atoms: N_4  and  C_5 
REMARK    3  A    between atoms: C_17  and  N_4 
REMARK    4  A    between atoms: C_5  and  C_7 
REMARK    5  A    between atoms: C_7  and  C_8 
REMARK    6  A    between atoms: C_17  and  C_29 
REMARK    7  A    between atoms: C_17  and  C_18 
REMARK       I    between atoms: C_18  and  N_20 
REMARK    8  A    between atoms: N_20  and  C_21 
REMARK    9  A    between atoms: C_21  and  C_24 
REMARK   10  A    between atoms: C_24  and  C_25 
REMARK   11  A    between atoms: C_30  and  O_31 
REMARK   12  A    between atoms: C_33  and  O_34 
REMARK   13  A    between atoms: C_36  and  O_37 
ROOT
ATOM      1  C   UNL d   1      26.349 -16.652  -1.933  0.00  0.00     0.218 C 
ENDROOT
BRANCH   1   2
ATOM      2  C   UNL d   1      25.070 -17.117  -1.257  0.00  0.00     0.040 C 
ATOM      3  C   UNL d   1      23.831 -16.517  -1.430  0.00  0.00     0.080 C 
ATOM      4  C   UNL d   1      22.654 -17.005  -0.895  0.00  0.00     0.073 C 
ATOM      5  C   UNL d   1      22.706 -18.106  -0.070  0.00  0.00     0.071 C 
ATOM      6  C   UNL d   1      23.916 -18.705   0.230  0.00  0.00     0.073 C 
ATOM      7  C   UNL d   1      25.084 -18.190  -0.332  0.00  0.00     0.080 C 
BRANCH   3   8
ATOM      8  O   UNL d   1      23.703 -15.288  -1.972  0.00  0.00    -0.360 OA
ATOM      9  H   UNL d   1      24.491 -14.834  -1.621  0.00  0.00     0.217 HD
ENDBRANCH   3   8
BRANCH   5  10
ATOM     10  O   UNL d   1      21.577 -18.576   0.521  0.00  0.00    -0.361 OA
ATOM     11  H   UNL d   1      21.815 -19.400   0.981  0.00  0.00     0.217 HD
ENDBRANCH   5  10
BRANCH   7  12
ATOM     12  O   UNL d   1      26.272 -18.715   0.115  0.00  0.00    -0.360 OA
ATOM     13  H   UNL d   1      26.814 -17.999   0.496  0.00  0.00     0.217 HD
ENDBRANCH   7  12
ENDBRANCH   1   2
BRANCH   1  14
ATOM     14  C   UNL d   1      26.032 -15.589  -3.028  0.00  0.00     0.246 C 
ATOM     15  O   UNL d   1      25.554 -15.942  -4.102  0.00  0.00    -0.271 OA
ATOM     16  N   UNL d   1      26.297 -14.253  -2.709  0.00  0.00    -0.351 N 
ATOM     17  H   UNL d   1      26.715 -14.053  -1.804  0.00  0.00     0.163 HD
BRANCH  16  18
ATOM     18  C   UNL d   1      26.204 -13.205  -3.729  0.00  0.00     0.026 C 
ATOM     19  C   UNL d   1      27.277 -13.544  -4.778  0.00  0.00     0.038 C 
ATOM     20  C   UNL d   1      24.774 -13.300  -4.271  0.00  0.00     0.038 C 
BRANCH  18  21
ATOM     21  C   UNL d   1      26.485 -11.760  -3.132  0.00  0.00     0.038 C 
BRANCH  21  22
ATOM     22  C   UNL d   1      27.952 -11.419  -2.639  0.00  0.00    -0.049 C 
ATOM     23  C   UNL d   1      28.657 -12.611  -1.971  0.00  0.00     0.014 C 
ATOM     24  C   UNL d   1      28.840 -10.867  -3.763  0.00  0.00     0.014 C 
ATOM     25  C   UNL d   1      27.916 -10.315  -1.562  0.00  0.00     0.014 C 
ENDBRANCH  21  22
ENDBRANCH  18  21
ENDBRANCH  16  18
ENDBRANCH   1  14
BRANCH   1  26
ATOM     26  N   UNL d   1      27.597 -16.070  -1.227  0.00  0.00    -0.334 N 
ATOM     27  C   UNL d   1      27.115 -15.367  -0.102  0.00  0.00     0.225 C 
ATOM     28  O   UNL d   1      25.919 -15.023  -0.024  0.00  0.00    -0.273 OA
BRANCH  26  29
ATOM     29  C   UNL d   1      29.049 -16.569  -1.354  0.00  0.00     0.127 C 
BRANCH  29  30
ATOM     30  C   UNL d   1      29.634 -16.917  -2.723  0.00  0.00     0.015 C 
ATOM     31  C   UNL d   1      29.313 -16.033  -3.900  0.00  0.00     0.006 C 
ENDBRANCH  29  30
ENDBRANCH  26  29
BRANCH  27  32
ATOM     32  C   UNL d   1      28.030 -15.087   1.034  0.00  0.00     0.141 C 
BRANCH  32  33
ATOM     33  C   UNL d   1      27.728 -13.846   1.773  0.00  0.00    -0.047 A 
ATOM     34  C   UNL d   1      27.877 -13.824   3.172  0.00  0.00     0.010 A 
ATOM     35  C   UNL d   1      27.602 -12.661   3.862  0.00  0.00     0.040 A 
ATOM     36  C   UNL d   1      27.200 -11.575   3.114  0.00  0.00     0.105 A 
ATOM     37  C   UNL d   1      27.064 -11.617   1.742  0.00  0.00     0.105 A 
ATOM     38  O   UNL d   1      26.893 -10.347   3.604  0.00  0.00    -0.323 OA
ATOM     39  C   UNL d   1      27.322 -12.741   1.031  0.00  0.00     0.047 A 
ATOM     40  O   UNL d   1      26.655 -10.448   1.199  0.00  0.00    -0.323 OA
ATOM     41  C   UNL d   1      26.466  -9.681   2.397  0.00  0.00     0.352 A 
ENDBRANCH  32  33
ENDBRANCH  27  32
ENDBRANCH   1  26
TORSDOF 13
ENDMDL
