MODEL 1
REMARK VINA RESULT:    -7.662      0.000      0.000
REMARK INTER + INTRA:          -9.963
REMARK INTER:                  -8.855
REMARK INTRA:                  -1.108
REMARK CONF_INDEPENDENT:        1.193
REMARK UNBOUND:                -1.108
REMARK  4 active torsions:
REMARK  status: ('A' for Active; 'I' for Inactive)
REMARK    1  A    between atoms: C_4  and  O_5 
REMARK    2  A    between atoms: C_6  and  C_7 
REMARK    3  A    between atoms: C_7  and  N_8 
REMARK    4  A    between atoms: C_18  and  C_19 
ROOT
ATOM      1  C   UNL d   1      23.704 -15.934  -1.462  0.00  0.00     0.049 C 
ATOM      2  C   UNL d   1      25.170 -16.204  -1.492  0.00  0.00    -0.042 A 
ATOM      3  C   UNL d   1      25.708 -16.808  -0.356  0.00  0.00     0.045 A 
ATOM      4  C   UNL d   1      27.068 -17.031  -0.254  0.00  0.00     0.076 A 
ATOM      5  C   UNL d   1      27.965 -16.757  -1.271  0.00  0.00     0.036 A 
ATOM      6  C   UNL d   1      27.413 -16.160  -2.419  0.00  0.00     0.101 A 
ATOM      7  C   UNL d   1      26.044 -15.876  -2.530  0.00  0.00     0.057 A 
ATOM      8  C   UNL d   1      25.848 -15.232  -3.847  0.00  0.00     0.219 A 
ATOM      9  O   UNL d   1      24.795 -14.825  -4.314  0.00  0.00    -0.284 OA
ATOM     10  C   UNL d   1      27.231 -15.205  -4.449  0.00  0.00     0.128 A 
ATOM     11  C   UNL d   1      27.622 -14.715  -5.647  0.00  0.00     0.053 C 
ATOM     12  O   UNL d   1      28.131 -15.781  -3.538  0.00  0.00    -0.305 OA
ENDROOT
BRANCH   5  13
ATOM     13  C   UNL d   1      29.424 -17.072  -1.148  0.00  0.00     0.279 C 
BRANCH  13  14
ATOM     14  N   UNL d   1      30.276 -16.811   0.147  0.00  0.00    -0.067 N 
ATOM     15  C   UNL d   1      30.452 -15.537   0.979  0.00  0.00     0.235 C 
ATOM     16  C   UNL d   1      31.949 -15.216   1.021  0.00  0.00     0.029 C 
ATOM     17  C   UNL d   1      32.632 -16.549   0.841  0.00  0.00     0.029 C 
ATOM     18  C   UNL d   1      31.639 -17.483   0.150  0.00  0.00     0.235 C 
ATOM     19  H   UNL d   1      29.658 -17.314   0.784  0.00  0.00     0.280 HD
ENDBRANCH  13  14
ENDBRANCH   5  13
BRANCH   4  20
ATOM     20  O   UNL d   1      27.514 -17.489   0.930  0.00  0.00    -0.360 OA
ATOM     21  H   UNL d   1      28.101 -16.841   1.357  0.00  0.00     0.217 HD
ENDBRANCH   4  20
BRANCH  11  22
ATOM     22  C   UNL d   1      29.033 -14.757  -6.125  0.00  0.00    -0.034 A 
ATOM     23  C   UNL d   1      29.795 -15.936  -6.063  0.00  0.00     0.011 A 
ATOM     24  C   UNL d   1      31.105 -15.982  -6.577  0.00  0.00     0.001 A 
ATOM     25  C   UNL d   1      31.681 -14.847  -7.140  0.00  0.00     0.000 A 
ATOM     26  C   UNL d   1      30.958 -13.658  -7.166  0.00  0.00     0.001 A 
ATOM     27  C   UNL d   1      29.652 -13.613  -6.653  0.00  0.00     0.011 A 
ENDBRANCH  11  22
TORSDOF 4
ENDMDL
MODEL 2
REMARK VINA RESULT:    -7.454      3.097      5.299
REMARK INTER + INTRA:          -9.997
REMARK INTER:                  -8.647
REMARK INTRA:                  -1.350
REMARK CONF_INDEPENDENT:        1.193
REMARK UNBOUND:                -1.350
REMARK  4 active torsions:
REMARK  status: ('A' for Active; 'I' for Inactive)
REMARK    1  A    between atoms: C_4  and  O_5 
REMARK    2  A    between atoms: C_6  and  C_7 
REMARK    3  A    between atoms: C_7  and  N_8 
REMARK    4  A    between atoms: C_18  and  C_19 
ROOT
ATOM      1  C   UNL d   1      27.305 -10.924  -6.559  0.00  0.00     0.049 C 
ATOM      2  C   UNL d   1      27.022 -12.234  -5.907  0.00  0.00    -0.042 A 
ATOM      3  C   UNL d   1      25.891 -12.286  -5.093  0.00  0.00     0.045 A 
ATOM      4  C   UNL d   1      25.584 -13.432  -4.385  0.00  0.00     0.076 A 
ATOM      5  C   UNL d   1      26.305 -14.608  -4.488  0.00  0.00     0.036 A 
ATOM      6  C   UNL d   1      27.437 -14.552  -5.321  0.00  0.00     0.101 A 
ATOM      7  C   UNL d   1      27.801 -13.388  -6.012  0.00  0.00     0.057 A 
ATOM      8  C   UNL d   1      29.044 -13.700  -6.749  0.00  0.00     0.219 A 
ATOM      9  O   UNL d   1      29.683 -12.942  -7.463  0.00  0.00    -0.284 OA
ATOM     10  C   UNL d   1      29.316 -15.145  -6.410  0.00  0.00     0.128 A 
ATOM     11  C   UNL d   1      30.339 -15.931  -6.815  0.00  0.00     0.053 C 
ATOM     12  O   UNL d   1      28.309 -15.602  -5.543  0.00  0.00    -0.305 OA
ENDROOT
BRANCH   5  13
ATOM     13  C   UNL d   1      25.905 -15.850  -3.752  0.00  0.00     0.279 C 
BRANCH  13  14
ATOM     14  N   UNL d   1      25.527 -15.890  -2.227  0.00  0.00    -0.067 N 
ATOM     15  C   UNL d   1      26.415 -15.794  -0.983  0.00  0.00     0.235 C 
ATOM     16  C   UNL d   1      26.176 -17.056  -0.147  0.00  0.00     0.029 C 
ATOM     17  C   UNL d   1      24.777 -17.493  -0.504  0.00  0.00     0.029 C 
ATOM     18  C   UNL d   1      24.445 -16.896  -1.871  0.00  0.00     0.235 C 
ATOM     19  H   UNL d   1      25.130 -14.950  -2.192  0.00  0.00     0.280 HD
ENDBRANCH  13  14
ENDBRANCH   5  13
BRANCH   4  20
ATOM     20  O   UNL d   1      24.557 -13.347  -3.519  0.00  0.00    -0.360 OA
ATOM     21  H   UNL d   1      24.030 -12.546  -3.681  0.00  0.00     0.217 HD
ENDBRANCH   4  20
BRANCH  11  22
ATOM     22  C   UNL d   1      30.486 -17.356  -6.404  0.00  0.00    -0.034 A 
ATOM     23  C   UNL d   1      30.340 -17.752  -5.063  0.00  0.00     0.011 A 
ATOM     24  C   UNL d   1      30.415 -19.109  -4.696  0.00  0.00     0.001 A 
ATOM     25  C   UNL d   1      30.660 -20.087  -5.655  0.00  0.00     0.000 A 
ATOM     26  C   UNL d   1      30.855 -19.706  -6.980  0.00  0.00     0.001 A 
ATOM     27  C   UNL d   1      30.780 -18.354  -7.347  0.00  0.00     0.011 A 
ENDBRANCH  11  22
TORSDOF 4
ENDMDL
MODEL 3
REMARK VINA RESULT:    -7.290      2.995      6.565
REMARK INTER + INTRA:          -9.769
REMARK INTER:                  -8.484
REMARK INTRA:                  -1.285
REMARK CONF_INDEPENDENT:        1.193
REMARK UNBOUND:                -1.285
REMARK  4 active torsions:
REMARK  status: ('A' for Active; 'I' for Inactive)
REMARK    1  A    between atoms: C_4  and  O_5 
REMARK    2  A    between atoms: C_6  and  C_7 
REMARK    3  A    between atoms: C_7  and  N_8 
REMARK    4  A    between atoms: C_18  and  C_19 
ROOT
ATOM      1  C   UNL d   1      27.548 -12.047  -7.148  0.00  0.00     0.049 C 
ATOM      2  C   UNL d   1      28.017 -13.285  -6.463  0.00  0.00    -0.042 A 
ATOM      3  C   UNL d   1      29.178 -13.868  -6.969  0.00  0.00     0.045 A 
ATOM      4  C   UNL d   1      29.653 -15.058  -6.452  0.00  0.00     0.076 A 
ATOM      5  C   UNL d   1      29.079 -15.703  -5.371  0.00  0.00     0.036 A 
ATOM      6  C   UNL d   1      27.916 -15.101  -4.856  0.00  0.00     0.101 A 
ATOM      7  C   UNL d   1      27.383 -13.921  -5.393  0.00  0.00     0.057 A 
ATOM      8  C   UNL d   1      26.159 -13.615  -4.622  0.00  0.00     0.219 A 
ATOM      9  O   UNL d   1      25.403 -12.671  -4.790  0.00  0.00    -0.284 OA
ATOM     10  C   UNL d   1      26.082 -14.728  -3.605  0.00  0.00     0.128 A 
ATOM     11  C   UNL d   1      25.149 -14.937  -2.649  0.00  0.00     0.053 C 
ATOM     12  O   UNL d   1      27.172 -15.592  -3.799  0.00  0.00    -0.305 OA
ENDROOT
BRANCH   5  13
ATOM     13  C   UNL d   1      29.659 -16.959  -4.798  0.00  0.00     0.279 C 
BRANCH  13  14
ATOM     14  N   UNL d   1      30.606 -17.934  -5.587  0.00  0.00    -0.067 N 
ATOM     15  C   UNL d   1      30.457 -18.546  -6.983  0.00  0.00     0.235 C 
ATOM     16  C   UNL d   1      30.512 -20.069  -6.827  0.00  0.00     0.029 C 
ATOM     17  C   UNL d   1      31.323 -20.298  -5.576  0.00  0.00     0.029 C 
ATOM     18  C   UNL d   1      31.240 -19.023  -4.737  0.00  0.00     0.235 C 
ATOM     19  H   UNL d   1      31.314 -17.234  -5.812  0.00  0.00     0.280 HD
ENDBRANCH  13  14
ENDBRANCH   5  13
BRANCH   4  20
ATOM     20  O   UNL d   1      30.695 -15.618  -7.092  0.00  0.00    -0.360 OA
ATOM     21  H   UNL d   1      30.738 -15.321  -8.017  0.00  0.00     0.217 HD
ENDBRANCH   4  20
BRANCH  11  22
ATOM     22  C   UNL d   1      25.196 -16.084  -1.700  0.00  0.00    -0.034 A 
ATOM     23  C   UNL d   1      26.399 -16.493  -1.100  0.00  0.00     0.011 A 
ATOM     24  C   UNL d   1      26.422 -17.536  -0.154  0.00  0.00     0.001 A 
ATOM     25  C   UNL d   1      25.248 -18.200   0.190  0.00  0.00     0.000 A 
ATOM     26  C   UNL d   1      24.055 -17.840  -0.429  0.00  0.00     0.001 A 
ATOM     27  C   UNL d   1      24.033 -16.800  -1.372  0.00  0.00     0.011 A 
ENDBRANCH  11  22
TORSDOF 4
ENDMDL
MODEL 4
REMARK VINA RESULT:    -7.204      2.293      5.109
REMARK INTER + INTRA:          -9.406
REMARK INTER:                  -8.397
REMARK INTRA:                  -1.009
REMARK CONF_INDEPENDENT:        1.193
REMARK UNBOUND:                -1.009
REMARK  4 active torsions:
REMARK  status: ('A' for Active; 'I' for Inactive)
REMARK    1  A    between atoms: C_4  and  O_5 
REMARK    2  A    between atoms: C_6  and  C_7 
REMARK    3  A    between atoms: C_7  and  N_8 
REMARK    4  A    between atoms: C_18  and  C_19 
ROOT
ATOM      1  C   UNL d   1      32.415 -19.041  -4.581  0.00  0.00     0.049 C 
ATOM      2  C   UNL d   1      31.636 -18.282  -3.562  0.00  0.00    -0.042 A 
ATOM      3  C   UNL d   1      31.973 -18.516  -2.229  0.00  0.00     0.045 A 
ATOM      4  C   UNL d   1      31.260 -17.919  -1.207  0.00  0.00     0.076 A 
ATOM      5  C   UNL d   1      30.241 -17.007  -1.419  0.00  0.00     0.036 A 
ATOM      6  C   UNL d   1      29.916 -16.766  -2.766  0.00  0.00     0.101 A 
ATOM      7  C   UNL d   1      30.589 -17.395  -3.822  0.00  0.00     0.057 A 
ATOM      8  C   UNL d   1      29.958 -16.922  -5.073  0.00  0.00     0.219 A 
ATOM      9  O   UNL d   1      30.253 -17.247  -6.212  0.00  0.00    -0.284 OA
ATOM     10  C   UNL d   1      28.890 -15.965  -4.602  0.00  0.00     0.128 A 
ATOM     11  C   UNL d   1      28.009 -15.252  -5.339  0.00  0.00     0.053 C 
ATOM     12  O   UNL d   1      28.917 -15.914  -3.199  0.00  0.00    -0.305 OA
ENDROOT
BRANCH   5  13
ATOM     13  C   UNL d   1      29.534 -16.332  -0.284  0.00  0.00     0.279 C 
BRANCH  13  14
ATOM     14  N   UNL d   1      28.134 -16.780   0.274  0.00  0.00    -0.067 N 
ATOM     15  C   UNL d   1      27.405 -18.122   0.163  0.00  0.00     0.235 C 
ATOM     16  C   UNL d   1      26.047 -17.857  -0.496  0.00  0.00     0.029 C 
ATOM     17  C   UNL d   1      25.726 -16.424  -0.148  0.00  0.00     0.029 C 
ATOM     18  C   UNL d   1      27.046 -15.723   0.170  0.00  0.00     0.235 C 
ATOM     19  H   UNL d   1      28.428 -16.858   1.248  0.00  0.00     0.280 HD
ENDBRANCH  13  14
ENDBRANCH   5  13
BRANCH   4  20
ATOM     20  O   UNL d   1      31.563 -18.310   0.044  0.00  0.00    -0.360 OA
ATOM     21  H   UNL d   1      30.761 -18.557   0.537  0.00  0.00     0.217 HD
ENDBRANCH   4  20
BRANCH  11  22
ATOM     22  C   UNL d   1      27.000 -14.332  -4.741  0.00  0.00    -0.034 A 
ATOM     23  C   UNL d   1      25.949 -14.813  -3.942  0.00  0.00     0.011 A 
ATOM     24  C   UNL d   1      25.041 -13.930  -3.328  0.00  0.00     0.001 A 
ATOM     25  C   UNL d   1      25.155 -12.556  -3.520  0.00  0.00     0.000 A 
ATOM     26  C   UNL d   1      26.162 -12.065  -4.346  0.00  0.00     0.001 A 
ATOM     27  C   UNL d   1      27.067 -12.946  -4.958  0.00  0.00     0.011 A 
ENDBRANCH  11  22
TORSDOF 4
ENDMDL
MODEL 5
REMARK VINA RESULT:    -6.850      3.453      5.975
REMARK INTER + INTRA:          -9.234
REMARK INTER:                  -8.043
REMARK INTRA:                  -1.190
REMARK CONF_INDEPENDENT:        1.193
REMARK UNBOUND:                -1.190
REMARK  4 active torsions:
REMARK  status: ('A' for Active; 'I' for Inactive)
REMARK    1  A    between atoms: C_4  and  O_5 
REMARK    2  A    between atoms: C_6  and  C_7 
REMARK    3  A    between atoms: C_7  and  N_8 
REMARK    4  A    between atoms: C_18  and  C_19 
ROOT
ATOM      1  C   UNL d   1      27.722 -10.482  -3.458  0.00  0.00     0.049 C 
ATOM      2  C   UNL d   1      27.793 -11.450  -2.327  0.00  0.00    -0.042 A 
ATOM      3  C   UNL d   1      28.806 -11.234  -1.394  0.00  0.00     0.045 A 
ATOM      4  C   UNL d   1      29.004 -12.118  -0.351  0.00  0.00     0.076 A 
ATOM      5  C   UNL d   1      28.187 -13.208  -0.109  0.00  0.00     0.036 A 
ATOM      6  C   UNL d   1      27.159 -13.412  -1.047  0.00  0.00     0.101 A 
ATOM      7  C   UNL d   1      26.966 -12.560  -2.144  0.00  0.00     0.057 A 
ATOM      8  C   UNL d   1      25.826 -13.104  -2.912  0.00  0.00     0.219 A 
ATOM      9  O   UNL d   1      25.353 -12.651  -3.943  0.00  0.00    -0.284 OA
ATOM     10  C   UNL d   1      25.405 -14.321  -2.126  0.00  0.00     0.128 A 
ATOM     11  C   UNL d   1      24.408 -15.196  -2.390  0.00  0.00     0.053 C 
ATOM     12  O   UNL d   1      26.249 -14.453  -1.011  0.00  0.00    -0.305 OA
ENDROOT
BRANCH   5  13
ATOM     13  C   UNL d   1      28.395 -14.109   1.069  0.00  0.00     0.279 C 
BRANCH  13  14
ATOM     14  N   UNL d   1      28.755 -15.635   0.961  0.00  0.00    -0.067 N 
ATOM     15  C   UNL d   1      29.906 -16.333   0.230  0.00  0.00     0.235 C 
ATOM     16  C   UNL d   1      29.289 -17.336  -0.750  0.00  0.00     0.029 C 
ATOM     17  C   UNL d   1      27.955 -17.695  -0.143  0.00  0.00     0.029 C 
ATOM     18  C   UNL d   1      27.557 -16.555   0.794  0.00  0.00     0.235 C 
ATOM     19  H   UNL d   1      29.113 -15.726   1.912  0.00  0.00     0.280 HD
ENDBRANCH  13  14
ENDBRANCH   5  13
BRANCH   4  20
ATOM     20  O   UNL d   1      30.089 -11.908   0.417  0.00  0.00    -0.360 OA
ATOM     21  H   UNL d   1      30.902 -11.916  -0.116  0.00  0.00     0.217 HD
ENDBRANCH   4  20
BRANCH  11  22
ATOM     22  C   UNL d   1      24.095 -16.364  -1.520  0.00  0.00    -0.034 A 
ATOM     23  C   UNL d   1      25.034 -17.384  -1.293  0.00  0.00     0.011 A 
ATOM     24  C   UNL d   1      24.752 -18.450  -0.416  0.00  0.00     0.001 A 
ATOM     25  C   UNL d   1      23.521 -18.524   0.228  0.00  0.00     0.000 A 
ATOM     26  C   UNL d   1      22.561 -17.548  -0.022  0.00  0.00     0.001 A 
ATOM     27  C   UNL d   1      22.843 -16.486  -0.896  0.00  0.00     0.011 A 
ENDBRANCH  11  22
TORSDOF 4
ENDMDL
MODEL 6
REMARK VINA RESULT:    -6.706      3.702      6.909
REMARK INTER + INTRA:          -9.617
REMARK INTER:                  -7.900
REMARK INTRA:                  -1.718
REMARK CONF_INDEPENDENT:        1.193
REMARK UNBOUND:                -1.718
REMARK  4 active torsions:
REMARK  status: ('A' for Active; 'I' for Inactive)
REMARK    1  A    between atoms: C_4  and  O_5 
REMARK    2  A    between atoms: C_6  and  C_7 
REMARK    3  A    between atoms: C_7  and  N_8 
REMARK    4  A    between atoms: C_18  and  C_19 
ROOT
ATOM      1  C   UNL d   1      26.649 -10.253  -4.594  0.00  0.00     0.049 C 
ATOM      2  C   UNL d   1      26.427 -11.524  -3.846  0.00  0.00    -0.042 A 
ATOM      3  C   UNL d   1      25.813 -12.556  -4.554  0.00  0.00     0.045 A 
ATOM      4  C   UNL d   1      25.495 -13.747  -3.929  0.00  0.00     0.076 A 
ATOM      5  C   UNL d   1      25.826 -14.032  -2.616  0.00  0.00     0.036 A 
ATOM      6  C   UNL d   1      26.457 -12.991  -1.913  0.00  0.00     0.101 A 
ATOM      7  C   UNL d   1      26.747 -11.754  -2.506  0.00  0.00     0.057 A 
ATOM      8  C   UNL d   1      27.374 -10.915  -1.462  0.00  0.00     0.219 A 
ATOM      9  O   UNL d   1      27.761  -9.763  -1.582  0.00  0.00    -0.284 OA
ATOM     10  C   UNL d   1      27.416 -11.814  -0.251  0.00  0.00     0.128 A 
ATOM     11  C   UNL d   1      27.887 -11.542   0.988  0.00  0.00     0.053 C 
ATOM     12  O   UNL d   1      26.848 -13.053  -0.587  0.00  0.00    -0.305 OA
ENDROOT
BRANCH   5  13
ATOM     13  C   UNL d   1      25.521 -15.359  -1.992  0.00  0.00     0.279 C 
BRANCH  13  14
ATOM     14  N   UNL d   1      26.272 -15.938  -0.738  0.00  0.00    -0.067 N 
ATOM     15  C   UNL d   1      27.753 -16.272  -0.536  0.00  0.00     0.235 C 
ATOM     16  C   UNL d   1      27.843 -17.751  -0.145  0.00  0.00     0.029 C 
ATOM     17  C   UNL d   1      26.518 -18.056   0.509  0.00  0.00     0.029 C 
ATOM     18  C   UNL d   1      25.511 -17.022   0.007  0.00  0.00     0.235 C 
ATOM     19  H   UNL d   1      26.243 -15.077  -0.191  0.00  0.00     0.280 HD
ENDBRANCH  13  14
ENDBRANCH   5  13
BRANCH   4  20
ATOM     20  O   UNL d   1      24.780 -14.631  -4.649  0.00  0.00    -0.360 OA
ATOM     21  H   UNL d   1      23.983 -14.216  -5.020  0.00  0.00     0.217 HD
ENDBRANCH   4  20
BRANCH  11  22
ATOM     22  C   UNL d   1      27.871 -12.531   2.102  0.00  0.00    -0.034 A 
ATOM     23  C   UNL d   1      28.036 -13.907   1.866  0.00  0.00     0.011 A 
ATOM     24  C   UNL d   1      28.085 -14.825   2.932  0.00  0.00     0.001 A 
ATOM     25  C   UNL d   1      27.948 -14.388   4.246  0.00  0.00     0.000 A 
ATOM     26  C   UNL d   1      27.736 -13.035   4.494  0.00  0.00     0.001 A 
ATOM     27  C   UNL d   1      27.688 -12.119   3.432  0.00  0.00     0.011 A 
ENDBRANCH  11  22
TORSDOF 4
ENDMDL
MODEL 7
REMARK VINA RESULT:    -6.616      4.107      6.428
REMARK INTER + INTRA:          -9.168
REMARK INTER:                  -7.809
REMARK INTRA:                  -1.358
REMARK CONF_INDEPENDENT:        1.193
REMARK UNBOUND:                -1.358
REMARK  4 active torsions:
REMARK  status: ('A' for Active; 'I' for Inactive)
REMARK    1  A    between atoms: C_4  and  O_5 
REMARK    2  A    between atoms: C_6  and  C_7 
REMARK    3  A    between atoms: C_7  and  N_8 
REMARK    4  A    between atoms: C_18  and  C_19 
ROOT
ATOM      1  C   UNL d   1      28.516 -10.670  -2.406  0.00  0.00     0.049 C 
ATOM      2  C   UNL d   1      28.290 -11.621  -1.282  0.00  0.00    -0.042 A 
ATOM      3  C   UNL d   1      29.050 -11.409  -0.132  0.00  0.00     0.045 A 
ATOM      4  C   UNL d   1      28.969 -12.279   0.938  0.00  0.00     0.076 A 
ATOM      5  C   UNL d   1      28.094 -13.350   0.985  0.00  0.00     0.036 A 
ATOM      6  C   UNL d   1      27.321 -13.551  -0.173  0.00  0.00     0.101 A 
ATOM      7  C   UNL d   1      27.418 -12.713  -1.293  0.00  0.00     0.057 A 
ATOM      8  C   UNL d   1      26.488 -13.248  -2.309  0.00  0.00     0.219 A 
ATOM      9  O   UNL d   1      26.291 -12.804  -3.430  0.00  0.00    -0.284 OA
ATOM     10  C   UNL d   1      25.863 -14.445  -1.636  0.00  0.00     0.128 A 
ATOM     11  C   UNL d   1      24.942 -15.306  -2.126  0.00  0.00     0.053 C 
ATOM     12  O   UNL d   1      26.407 -14.574  -0.348  0.00  0.00    -0.305 OA
ENDROOT
BRANCH   5  13
ATOM     13  C   UNL d   1      27.989 -14.236   2.188  0.00  0.00     0.279 C 
BRANCH  13  14
ATOM     14  N   UNL d   1      28.638 -13.910   3.583  0.00  0.00    -0.067 N 
ATOM     15  C   UNL d   1      29.377 -14.820   4.569  0.00  0.00     0.235 C 
ATOM     16  C   UNL d   1      28.638 -14.743   5.910  0.00  0.00     0.029 C 
ATOM     17  C   UNL d   1      27.974 -13.388   5.904  0.00  0.00     0.029 C 
ATOM     18  C   UNL d   1      27.832 -12.953   4.446  0.00  0.00     0.235 C 
ATOM     19  H   UNL d   1      29.449 -13.416   3.209  0.00  0.00     0.280 HD
ENDBRANCH  13  14
ENDBRANCH   5  13
BRANCH   4  20
ATOM     20  O   UNL d   1      29.838 -12.077   1.945  0.00  0.00    -0.360 OA
ATOM     21  H   UNL d   1      30.684 -11.731   1.612  0.00  0.00     0.217 HD
ENDBRANCH   4  20
BRANCH  11  22
ATOM     22  C   UNL d   1      24.401 -16.454  -1.345  0.00  0.00    -0.034 A 
ATOM     23  C   UNL d   1      25.216 -17.536  -0.969  0.00  0.00     0.011 A 
ATOM     24  C   UNL d   1      24.711 -18.583  -0.175  0.00  0.00     0.001 A 
ATOM     25  C   UNL d   1      23.381 -18.578   0.236  0.00  0.00     0.000 A 
ATOM     26  C   UNL d   1      22.548 -17.539  -0.167  0.00  0.00     0.001 A 
ATOM     27  C   UNL d   1      23.052 -16.494  -0.959  0.00  0.00     0.011 A 
ENDBRANCH  11  22
TORSDOF 4
ENDMDL
MODEL 8
REMARK VINA RESULT:    -6.478      3.696      6.039
REMARK INTER + INTRA:          -9.439
REMARK INTER:                  -7.671
REMARK INTRA:                  -1.768
REMARK CONF_INDEPENDENT:        1.193
REMARK UNBOUND:                -1.768
REMARK  4 active torsions:
REMARK  status: ('A' for Active; 'I' for Inactive)
REMARK    1  A    between atoms: C_4  and  O_5 
REMARK    2  A    between atoms: C_6  and  C_7 
REMARK    3  A    between atoms: C_7  and  N_8 
REMARK    4  A    between atoms: C_18  and  C_19 
ROOT
ATOM      1  C   UNL d   1      25.659 -11.016  -5.524  0.00  0.00     0.049 C 
ATOM      2  C   UNL d   1      26.196 -11.355  -4.176  0.00  0.00    -0.042 A 
ATOM      3  C   UNL d   1      26.924 -10.355  -3.532  0.00  0.00     0.045 A 
ATOM      4  C   UNL d   1      27.526 -10.596  -2.312  0.00  0.00     0.076 A 
ATOM      5  C   UNL d   1      27.390 -11.783  -1.615  0.00  0.00     0.036 A 
ATOM      6  C   UNL d   1      26.643 -12.783  -2.264  0.00  0.00     0.101 A 
ATOM      7  C   UNL d   1      26.062 -12.584  -3.525  0.00  0.00     0.057 A 
ATOM      8  C   UNL d   1      25.392 -13.850  -3.891  0.00  0.00     0.219 A 
ATOM      9  O   UNL d   1      24.780 -14.084  -4.922  0.00  0.00    -0.284 OA
ATOM     10  C   UNL d   1      25.647 -14.752  -2.709  0.00  0.00     0.128 A 
ATOM     11  C   UNL d   1      25.258 -16.034  -2.524  0.00  0.00     0.053 C 
ATOM     12  O   UNL d   1      26.407 -14.049  -1.760  0.00  0.00    -0.305 OA
ENDROOT
BRANCH   5  13
ATOM     13  C   UNL d   1      28.006 -11.985  -0.265  0.00  0.00     0.279 C 
BRANCH  13  14
ATOM     14  N   UNL d   1      27.677 -13.195   0.683  0.00  0.00    -0.067 N 
ATOM     15  C   UNL d   1      26.651 -13.319   1.814  0.00  0.00     0.235 C 
ATOM     16  C   UNL d   1      27.413 -13.695   3.089  0.00  0.00     0.029 C 
ATOM     17  C   UNL d   1      28.646 -14.413   2.601  0.00  0.00     0.029 C 
ATOM     18  C   UNL d   1      28.894 -13.971   1.160  0.00  0.00     0.235 C 
ATOM     19  H   UNL d   1      27.185 -13.749  -0.018  0.00  0.00     0.280 HD
ENDBRANCH  13  14
ENDBRANCH   5  13
BRANCH   4  20
ATOM     20  O   UNL d   1      28.322  -9.623  -1.833  0.00  0.00    -0.360 OA
ATOM     21  H   UNL d   1      29.261  -9.850  -1.950  0.00  0.00     0.217 HD
ENDBRANCH   4  20
BRANCH  11  22
ATOM     22  C   UNL d   1      25.576 -16.814  -1.295  0.00  0.00    -0.034 A 
ATOM     23  C   UNL d   1      24.566 -17.410  -0.521  0.00  0.00     0.011 A 
ATOM     24  C   UNL d   1      24.882 -18.200   0.601  0.00  0.00     0.001 A 
ATOM     25  C   UNL d   1      26.208 -18.388   0.980  0.00  0.00     0.000 A 
ATOM     26  C   UNL d   1      27.218 -17.766   0.253  0.00  0.00     0.001 A 
ATOM     27  C   UNL d   1      26.903 -16.979  -0.866  0.00  0.00     0.011 A 
ENDBRANCH  11  22
TORSDOF 4
ENDMDL
MODEL 9
REMARK VINA RESULT:    -6.243      1.662      2.242
REMARK INTER + INTRA:          -9.157
REMARK INTER:                  -7.437
REMARK INTRA:                  -1.721
REMARK CONF_INDEPENDENT:        1.193
REMARK UNBOUND:                -1.721
REMARK  4 active torsions:
REMARK  status: ('A' for Active; 'I' for Inactive)
REMARK    1  A    between atoms: C_4  and  O_5 
REMARK    2  A    between atoms: C_6  and  C_7 
REMARK    3  A    between atoms: C_7  and  N_8 
REMARK    4  A    between atoms: C_18  and  C_19 
ROOT
ATOM      1  C   UNL d   1      23.325 -16.275  -0.755  0.00  0.00     0.049 C 
ATOM      2  C   UNL d   1      24.774 -16.485  -1.034  0.00  0.00    -0.042 A 
ATOM      3  C   UNL d   1      25.451 -17.340  -0.166  0.00  0.00     0.045 A 
ATOM      4  C   UNL d   1      26.812 -17.542  -0.294  0.00  0.00     0.076 A 
ATOM      5  C   UNL d   1      27.572 -16.994  -1.312  0.00  0.00     0.036 A 
ATOM      6  C   UNL d   1      26.879 -16.143  -2.192  0.00  0.00     0.101 A 
ATOM      7  C   UNL d   1      25.509 -15.880  -2.056  0.00  0.00     0.057 A 
ATOM      8  C   UNL d   1      25.147 -14.931  -3.130  0.00  0.00     0.219 A 
ATOM      9  O   UNL d   1      24.045 -14.450  -3.344  0.00  0.00    -0.284 OA
ATOM     10  C   UNL d   1      26.442 -14.712  -3.874  0.00  0.00     0.128 A 
ATOM     11  C   UNL d   1      26.678 -13.924  -4.947  0.00  0.00     0.053 C 
ATOM     12  O   UNL d   1      27.450 -15.472  -3.258  0.00  0.00    -0.305 OA
ENDROOT
BRANCH   5  13
ATOM     13  C   UNL d   1      29.034 -17.286  -1.455  0.00  0.00     0.279 C 
BRANCH  13  14
ATOM     14  N   UNL d   1      29.904 -16.850  -2.689  0.00  0.00    -0.067 N 
ATOM     15  C   UNL d   1      30.030 -17.471  -4.083  0.00  0.00     0.235 C 
ATOM     16  C   UNL d   1      31.508 -17.809  -4.306  0.00  0.00     0.029 C 
ATOM     17  C   UNL d   1      32.260 -16.836  -3.433  0.00  0.00     0.029 C 
ATOM     18  C   UNL d   1      31.303 -16.371  -2.336  0.00  0.00     0.235 C 
ATOM     19  H   UNL d   1      29.332 -16.044  -2.942  0.00  0.00     0.280 HD
ENDBRANCH  13  14
ENDBRANCH   5  13
BRANCH   4  20
ATOM     20  O   UNL d   1      27.405 -18.270   0.670  0.00  0.00    -0.360 OA
ATOM     21  H   UNL d   1      28.226 -17.847   0.972  0.00  0.00     0.217 HD
ENDBRANCH   4  20
BRANCH  11  22
ATOM     22  C   UNL d   1      28.016 -13.802  -5.592  0.00  0.00    -0.034 A 
ATOM     23  C   UNL d   1      28.791 -14.935  -5.896  0.00  0.00     0.011 A 
ATOM     24  C   UNL d   1      30.024 -14.813  -6.565  0.00  0.00     0.001 A 
ATOM     25  C   UNL d   1      30.512 -13.559  -6.919  0.00  0.00     0.000 A 
ATOM     26  C   UNL d   1      29.781 -12.424  -6.582  0.00  0.00     0.001 A 
ATOM     27  C   UNL d   1      28.551 -12.545  -5.916  0.00  0.00     0.011 A 
ENDBRANCH  11  22
TORSDOF 4
ENDMDL
