MODEL 1
REMARK VINA RESULT:    -7.221      0.000      0.000
REMARK INTER + INTRA:         -12.912
REMARK INTER:                 -10.800
REMARK INTRA:                  -2.112
REMARK CONF_INDEPENDENT:        3.580
REMARK UNBOUND:                -2.112
REMARK  12 active torsions:
REMARK  status: ('A' for Active; 'I' for Inactive)
REMARK    1  A    between atoms: C_2  and  C_3 
REMARK    2  A    between atoms: C_3  and  C_4 
REMARK    3  A    between atoms: C_4  and  C_5 
REMARK    4  A    between atoms: C_5  and  C_6 
REMARK    5  A    between atoms: C_6  and  N_7 
REMARK       I    between atoms: N_7  and  C_8 
REMARK       I    between atoms: C_8  and  N_10 
REMARK    6  A    between atoms: N_10  and  C_11 
REMARK    7  A    between atoms: C_11  and  C_12 
REMARK    8  A    between atoms: C_12  and  O_13 
REMARK    9  A    between atoms: C_12  and  C_14 
REMARK   10  A    between atoms: C_14  and  O_15 
REMARK   11  A    between atoms: O_15  and  C_16 
REMARK   12  A    between atoms: C_19  and  N_20 
ROOT
ATOM      1  C   UNL d   1      27.394 -15.250  -0.133  0.00  0.00     0.160 C 
ENDROOT
BRANCH   1   2
ATOM      2  C   UNL d   1      27.302 -14.358   1.123  0.00  0.00     0.158 C 
BRANCH   2   3
ATOM      3  N   UNL d   1      28.115 -14.818   2.252  0.00  0.00    -0.341 N 
ATOM      4  C   UNL d   1      27.888 -14.334   3.516  0.00  0.00     0.316 C 
ATOM      5  N   UNL d   1      28.696 -14.868   4.490  0.00  0.00    -0.343 N 
ATOM      6  O   UNL d   1      27.039 -13.476   3.750  0.00  0.00    -0.247 OA
ATOM      7  H   UNL d   1      29.375 -15.575   4.250  0.00  0.00     0.164 HD
ATOM      8  H   UNL d   1      28.745 -15.595   2.105  0.00  0.00     0.164 HD
BRANCH   5   9
ATOM      9  C   UNL d   1      28.582 -14.419   5.873  0.00  0.00     0.124 C 
BRANCH   9  10
ATOM     10  C   UNL d   1      29.912 -14.382   6.628  0.00  0.00     0.020 C 
BRANCH  10  11
ATOM     11  C   UNL d   1      29.985 -13.189   7.592  0.00  0.00     0.002 C 
BRANCH  11  12
ATOM     12  C   UNL d   1      28.683 -13.030   8.379  0.00  0.00    -0.000 C 
BRANCH  12  13
ATOM     13  C   UNL d   1      28.920 -13.146   9.883  0.00  0.00    -0.005 C 
ATOM     14  C   UNL d   1      27.779 -13.892  10.555  0.00  0.00     0.005 C 
ENDBRANCH  12  13
ENDBRANCH  11  12
ENDBRANCH  10  11
ENDBRANCH   9  10
ENDBRANCH   5   9
ENDBRANCH   2   3
ENDBRANCH   1   2
BRANCH   1  15
ATOM     15  O   UNL d   1      28.198 -16.400   0.177  0.00  0.00    -0.392 OA
ATOM     16  H   UNL d   1      27.807 -17.165  -0.279  0.00  0.00     0.210 HD
ENDBRANCH   1  15
BRANCH   1  17
ATOM     17  C   UNL d   1      25.990 -15.681  -0.630  0.00  0.00     0.209 C 
BRANCH  17  18
ATOM     18  O   UNL d   1      25.749 -17.056  -0.281  0.00  0.00    -0.349 OA
BRANCH  18  19
ATOM     19  C   UNL d   1      24.498 -17.551  -0.543  0.00  0.00     0.069 A 
ATOM     20  C   UNL d   1      23.485 -16.602  -0.735  0.00  0.00     0.039 A 
ATOM     21  C   UNL d   1      22.148 -16.997  -0.882  0.00  0.00     0.039 A 
ATOM     22  C   UNL d   1      21.836 -18.361  -0.904  0.00  0.00     0.103 A 
ATOM     23  C   UNL d   1      22.839 -19.317  -0.702  0.00  0.00     0.039 A 
ATOM     24  C   UNL d   1      24.165 -18.906  -0.514  0.00  0.00     0.039 A 
BRANCH  22  25
ATOM     25  N   UNL d   1      20.462 -18.796  -1.195  0.00  0.00    -0.116 N 
ATOM     26  O   UNL d   1      20.310 -19.751  -1.971  0.00  0.00    -0.532 OA
ATOM     27  O   UNL d   1      19.536 -18.200  -0.625  0.00  0.00    -0.532 OA
ENDBRANCH  22  25
ENDBRANCH  18  19
ENDBRANCH  17  18
ENDBRANCH   1  17
TORSDOF 12
ENDMDL
MODEL 2
REMARK VINA RESULT:    -7.039      0.850      1.336
REMARK INTER + INTRA:         -12.727
REMARK INTER:                 -10.619
REMARK INTRA:                  -2.108
REMARK CONF_INDEPENDENT:        3.580
REMARK UNBOUND:                -2.108
REMARK  12 active torsions:
REMARK  status: ('A' for Active; 'I' for Inactive)
REMARK    1  A    between atoms: C_2  and  C_3 
REMARK    2  A    between atoms: C_3  and  C_4 
REMARK    3  A    between atoms: C_4  and  C_5 
REMARK    4  A    between atoms: C_5  and  C_6 
REMARK    5  A    between atoms: C_6  and  N_7 
REMARK       I    between atoms: N_7  and  C_8 
REMARK       I    between atoms: C_8  and  N_10 
REMARK    6  A    between atoms: N_10  and  C_11 
REMARK    7  A    between atoms: C_11  and  C_12 
REMARK    8  A    between atoms: C_12  and  O_13 
REMARK    9  A    between atoms: C_12  and  C_14 
REMARK   10  A    between atoms: C_14  and  O_15 
REMARK   11  A    between atoms: O_15  and  C_16 
REMARK   12  A    between atoms: C_19  and  N_20 
ROOT
ATOM      1  C   UNL d   1      27.588 -15.219   0.068  0.00  0.00     0.160 C 
ENDROOT
BRANCH   1   2
ATOM      2  C   UNL d   1      27.413 -14.390   1.357  0.00  0.00     0.158 C 
BRANCH   2   3
ATOM      3  N   UNL d   1      28.246 -14.834   2.479  0.00  0.00    -0.341 N 
ATOM      4  C   UNL d   1      27.956 -14.437   3.761  0.00  0.00     0.316 C 
ATOM      5  N   UNL d   1      28.793 -14.948   4.722  0.00  0.00    -0.343 N 
ATOM      6  O   UNL d   1      27.030 -13.671   4.020  0.00  0.00    -0.247 OA
ATOM      7  H   UNL d   1      29.536 -15.578   4.462  0.00  0.00     0.164 HD
ATOM      8  H   UNL d   1      28.944 -15.544   2.306  0.00  0.00     0.164 HD
BRANCH   5   9
ATOM      9  C   UNL d   1      28.616 -14.582   6.124  0.00  0.00     0.124 C 
BRANCH   9  10
ATOM     10  C   UNL d   1      29.078 -13.162   6.460  0.00  0.00     0.020 C 
BRANCH  10  11
ATOM     11  C   UNL d   1      28.906 -12.849   7.953  0.00  0.00     0.002 C 
BRANCH  11  12
ATOM     12  C   UNL d   1      28.891 -14.128   8.792  0.00  0.00    -0.000 C 
BRANCH  12  13
ATOM     13  C   UNL d   1      30.276 -14.444   9.355  0.00  0.00    -0.005 C 
ATOM     14  C   UNL d   1      30.207 -15.597  10.344  0.00  0.00     0.005 C 
ENDBRANCH  12  13
ENDBRANCH  11  12
ENDBRANCH  10  11
ENDBRANCH   9  10
ENDBRANCH   5   9
ENDBRANCH   2   3
ENDBRANCH   1   2
BRANCH   1  15
ATOM     15  O   UNL d   1      28.401 -16.366   0.363  0.00  0.00    -0.392 OA
ATOM     16  H   UNL d   1      27.862 -16.983   0.886  0.00  0.00     0.210 HD
ENDBRANCH   1  15
BRANCH   1  17
ATOM     17  C   UNL d   1      26.220 -15.654  -0.520  0.00  0.00     0.209 C 
BRANCH  17  18
ATOM     18  O   UNL d   1      25.843 -16.935   0.018  0.00  0.00    -0.349 OA
BRANCH  18  19
ATOM     19  C   UNL d   1      24.554 -17.343  -0.205  0.00  0.00     0.069 A 
ATOM     20  C   UNL d   1      24.324 -18.725  -0.148  0.00  0.00     0.039 A 
ATOM     21  C   UNL d   1      23.073 -19.260  -0.486  0.00  0.00     0.039 A 
ATOM     22  C   UNL d   1      22.025 -18.394  -0.818  0.00  0.00     0.103 A 
ATOM     23  C   UNL d   1      22.247 -17.013  -0.889  0.00  0.00     0.039 A 
ATOM     24  C   UNL d   1      23.514 -16.495  -0.590  0.00  0.00     0.039 A 
BRANCH  22  25
ATOM     25  N   UNL d   1      20.673 -18.927  -1.040  0.00  0.00    -0.116 N 
ATOM     26  O   UNL d   1      20.504 -19.693  -2.000  0.00  0.00    -0.532 OA
ATOM     27  O   UNL d   1      19.787 -18.603  -0.236  0.00  0.00    -0.532 OA
ENDBRANCH  22  25
ENDBRANCH  18  19
ENDBRANCH  17  18
ENDBRANCH   1  17
TORSDOF 12
ENDMDL
MODEL 3
REMARK VINA RESULT:    -6.456      1.273      2.181
REMARK INTER + INTRA:         -12.384
REMARK INTER:                 -10.036
REMARK INTRA:                  -2.349
REMARK CONF_INDEPENDENT:        3.580
REMARK UNBOUND:                -2.349
REMARK  12 active torsions:
REMARK  status: ('A' for Active; 'I' for Inactive)
REMARK    1  A    between atoms: C_2  and  C_3 
REMARK    2  A    between atoms: C_3  and  C_4 
REMARK    3  A    between atoms: C_4  and  C_5 
REMARK    4  A    between atoms: C_5  and  C_6 
REMARK    5  A    between atoms: C_6  and  N_7 
REMARK       I    between atoms: N_7  and  C_8 
REMARK       I    between atoms: C_8  and  N_10 
REMARK    6  A    between atoms: N_10  and  C_11 
REMARK    7  A    between atoms: C_11  and  C_12 
REMARK    8  A    between atoms: C_12  and  O_13 
REMARK    9  A    between atoms: C_12  and  C_14 
REMARK   10  A    between atoms: C_14  and  O_15 
REMARK   11  A    between atoms: O_15  and  C_16 
REMARK   12  A    between atoms: C_19  and  N_20 
ROOT
ATOM      1  C   UNL d   1      27.360 -15.056   0.048  0.00  0.00     0.160 C 
ENDROOT
BRANCH   1   2
ATOM      2  C   UNL d   1      27.375 -14.214   1.341  0.00  0.00     0.158 C 
BRANCH   2   3
ATOM      3  N   UNL d   1      28.167 -14.793   2.430  0.00  0.00    -0.341 N 
ATOM      4  C   UNL d   1      27.897 -14.469   3.736  0.00  0.00     0.316 C 
ATOM      5  N   UNL d   1      28.690 -15.103   4.661  0.00  0.00    -0.343 N 
ATOM      6  O   UNL d   1      27.025 -13.660   4.047  0.00  0.00    -0.247 OA
ATOM      7  H   UNL d   1      29.389 -15.764   4.358  0.00  0.00     0.164 HD
ATOM      8  H   UNL d   1      28.816 -15.536   2.208  0.00  0.00     0.164 HD
BRANCH   5   9
ATOM      9  C   UNL d   1      28.530 -14.826   6.085  0.00  0.00     0.124 C 
BRANCH   9  10
ATOM     10  C   UNL d   1      29.636 -13.950   6.677  0.00  0.00     0.020 C 
BRANCH  10  11
ATOM     11  C   UNL d   1      30.140 -12.911   5.664  0.00  0.00     0.002 C 
BRANCH  11  12
ATOM     12  C   UNL d   1      29.612 -11.514   5.992  0.00  0.00    -0.000 C 
BRANCH  12  13
ATOM     13  C   UNL d   1      28.104 -11.417   5.766  0.00  0.00    -0.005 C 
ATOM     14  C   UNL d   1      27.780 -10.353   4.729  0.00  0.00     0.005 C 
ENDBRANCH  12  13
ENDBRANCH  11  12
ENDBRANCH  10  11
ENDBRANCH   9  10
ENDBRANCH   5   9
ENDBRANCH   2   3
ENDBRANCH   1   2
BRANCH   1  15
ATOM     15  O   UNL d   1      28.154 -16.235   0.256  0.00  0.00    -0.392 OA
ATOM     16  H   UNL d   1      27.615 -16.869   0.759  0.00  0.00     0.210 HD
ENDBRANCH   1  15
BRANCH   1  17
ATOM     17  C   UNL d   1      25.915 -15.435  -0.369  0.00  0.00     0.209 C 
BRANCH  17  18
ATOM     18  O   UNL d   1      25.732 -16.858  -0.257  0.00  0.00    -0.349 OA
BRANCH  18  19
ATOM     19  C   UNL d   1      24.450 -17.328  -0.378  0.00  0.00     0.069 A 
ATOM     20  C   UNL d   1      24.289 -18.717  -0.285  0.00  0.00     0.039 A 
ATOM     21  C   UNL d   1      23.042 -19.313  -0.522  0.00  0.00     0.039 A 
ATOM     22  C   UNL d   1      21.934 -18.501  -0.788  0.00  0.00     0.103 A 
ATOM     23  C   UNL d   1      22.087 -17.114  -0.894  0.00  0.00     0.039 A 
ATOM     24  C   UNL d   1      23.347 -16.534  -0.697  0.00  0.00     0.039 A 
BRANCH  22  25
ATOM     25  N   UNL d   1      20.596 -19.098  -0.902  0.00  0.00    -0.116 N 
ATOM     26  O   UNL d   1      19.811 -18.941   0.044  0.00  0.00    -0.532 OA
ATOM     27  O   UNL d   1      20.321 -19.700  -1.950  0.00  0.00    -0.532 OA
ENDBRANCH  22  25
ENDBRANCH  18  19
ENDBRANCH  17  18
ENDBRANCH   1  17
TORSDOF 12
ENDMDL
MODEL 4
REMARK VINA RESULT:    -6.109      3.852      9.286
REMARK INTER + INTRA:         -12.001
REMARK INTER:                  -9.689
REMARK INTRA:                  -2.313
REMARK CONF_INDEPENDENT:        3.580
REMARK UNBOUND:                -2.313
REMARK  12 active torsions:
REMARK  status: ('A' for Active; 'I' for Inactive)
REMARK    1  A    between atoms: C_2  and  C_3 
REMARK    2  A    between atoms: C_3  and  C_4 
REMARK    3  A    between atoms: C_4  and  C_5 
REMARK    4  A    between atoms: C_5  and  C_6 
REMARK    5  A    between atoms: C_6  and  N_7 
REMARK       I    between atoms: N_7  and  C_8 
REMARK       I    between atoms: C_8  and  N_10 
REMARK    6  A    between atoms: N_10  and  C_11 
REMARK    7  A    between atoms: C_11  and  C_12 
REMARK    8  A    between atoms: C_12  and  O_13 
REMARK    9  A    between atoms: C_12  and  C_14 
REMARK   10  A    between atoms: C_14  and  O_15 
REMARK   11  A    between atoms: O_15  and  C_16 
REMARK   12  A    between atoms: C_19  and  N_20 
ROOT
ATOM      1  C   UNL d   1      29.181 -14.009   6.084  0.00  0.00     0.160 C 
ENDROOT
BRANCH   1   2
ATOM      2  C   UNL d   1      28.026 -14.178   5.075  0.00  0.00     0.158 C 
BRANCH   2   3
ATOM      3  N   UNL d   1      28.408 -14.840   3.825  0.00  0.00    -0.341 N 
ATOM      4  C   UNL d   1      27.779 -14.521   2.647  0.00  0.00     0.316 C 
ATOM      5  N   UNL d   1      28.251 -15.189   1.544  0.00  0.00    -0.343 N 
ATOM      6  O   UNL d   1      26.853 -13.713   2.593  0.00  0.00    -0.247 OA
ATOM      7  H   UNL d   1      29.017 -15.838   1.637  0.00  0.00     0.164 HD
ATOM      8  H   UNL d   1      29.232 -15.426   3.825  0.00  0.00     0.164 HD
BRANCH   5   9
ATOM      9  C   UNL d   1      27.651 -14.966   0.233  0.00  0.00     0.124 C 
BRANCH   9  10
ATOM     10  C   UNL d   1      27.117 -16.238  -0.430  0.00  0.00     0.020 C 
BRANCH  10  11
ATOM     11  C   UNL d   1      25.599 -16.380  -0.247  0.00  0.00     0.002 C 
BRANCH  11  12
ATOM     12  C   UNL d   1      25.144 -17.823  -0.468  0.00  0.00    -0.000 C 
BRANCH  12  13
ATOM     13  C   UNL d   1      23.787 -17.881  -1.167  0.00  0.00    -0.005 C 
ATOM     14  C   UNL d   1      22.659 -17.967  -0.153  0.00  0.00     0.005 C 
ENDBRANCH  12  13
ENDBRANCH  11  12
ENDBRANCH  10  11
ENDBRANCH   9  10
ENDBRANCH   5   9
ENDBRANCH   2   3
ENDBRANCH   1   2
BRANCH   1  15
ATOM     15  O   UNL d   1      30.391 -14.499   5.486  0.00  0.00    -0.392 OA
ATOM     16  H   UNL d   1      30.954 -13.731   5.285  0.00  0.00     0.210 HD
ENDBRANCH   1  15
BRANCH   1  17
ATOM     17  C   UNL d   1      29.345 -12.529   6.519  0.00  0.00     0.209 C 
BRANCH  17  18
ATOM     18  O   UNL d   1      29.917 -11.764   5.443  0.00  0.00    -0.349 OA
BRANCH  18  19
ATOM     19  C   UNL d   1      29.062 -10.960   4.734  0.00  0.00     0.069 A 
ATOM     20  C   UNL d   1      28.754  -9.722   5.313  0.00  0.00     0.039 A 
ATOM     21  C   UNL d   1      27.794  -8.878   4.737  0.00  0.00     0.039 A 
ATOM     22  C   UNL d   1      27.187  -9.253   3.533  0.00  0.00     0.103 A 
ATOM     23  C   UNL d   1      27.479 -10.493   2.953  0.00  0.00     0.039 A 
ATOM     24  C   UNL d   1      28.410 -11.345   3.561  0.00  0.00     0.039 A 
BRANCH  22  25
ATOM     25  N   UNL d   1      26.282  -8.321   2.845  0.00  0.00    -0.116 N 
ATOM     26  O   UNL d   1      26.440  -7.108   3.045  0.00  0.00    -0.532 OA
ATOM     27  O   UNL d   1      25.432  -8.801   2.081  0.00  0.00    -0.532 OA
ENDBRANCH  22  25
ENDBRANCH  18  19
ENDBRANCH  17  18
ENDBRANCH   1  17
TORSDOF 12
ENDMDL
MODEL 5
REMARK VINA RESULT:    -6.032      5.257      8.119
REMARK INTER + INTRA:         -11.356
REMARK INTER:                  -9.611
REMARK INTRA:                  -1.745
REMARK CONF_INDEPENDENT:        3.580
REMARK UNBOUND:                -1.745
REMARK  12 active torsions:
REMARK  status: ('A' for Active; 'I' for Inactive)
REMARK    1  A    between atoms: C_2  and  C_3 
REMARK    2  A    between atoms: C_3  and  C_4 
REMARK    3  A    between atoms: C_4  and  C_5 
REMARK    4  A    between atoms: C_5  and  C_6 
REMARK    5  A    between atoms: C_6  and  N_7 
REMARK       I    between atoms: N_7  and  C_8 
REMARK       I    between atoms: C_8  and  N_10 
REMARK    6  A    between atoms: N_10  and  C_11 
REMARK    7  A    between atoms: C_11  and  C_12 
REMARK    8  A    between atoms: C_12  and  O_13 
REMARK    9  A    between atoms: C_12  and  C_14 
REMARK   10  A    between atoms: C_14  and  O_15 
REMARK   11  A    between atoms: O_15  and  C_16 
REMARK   12  A    between atoms: C_19  and  N_20 
ROOT
ATOM      1  C   UNL d   1      28.112 -17.225  -0.403  0.00  0.00     0.160 C 
ENDROOT
BRANCH   1   2
ATOM      2  C   UNL d   1      27.883 -16.630  -1.809  0.00  0.00     0.158 C 
BRANCH   2   3
ATOM      3  N   UNL d   1      26.831 -15.611  -1.869  0.00  0.00    -0.341 N 
ATOM      4  C   UNL d   1      26.411 -15.115  -3.078  0.00  0.00     0.316 C 
ATOM      5  N   UNL d   1      25.400 -14.189  -2.999  0.00  0.00    -0.343 N 
ATOM      6  O   UNL d   1      26.917 -15.462  -4.144  0.00  0.00    -0.247 OA
ATOM      7  H   UNL d   1      25.012 -13.941  -2.102  0.00  0.00     0.164 HD
ATOM      8  H   UNL d   1      26.330 -15.388  -1.020  0.00  0.00     0.164 HD
BRANCH   5   9
ATOM      9  C   UNL d   1      24.879 -13.559  -4.208  0.00  0.00     0.124 C 
BRANCH   9  10
ATOM     10  C   UNL d   1      25.935 -12.808  -5.023  0.00  0.00     0.020 C 
BRANCH  10  11
ATOM     11  C   UNL d   1      25.728 -11.288  -4.955  0.00  0.00     0.002 C 
BRANCH  11  12
ATOM     12  C   UNL d   1      26.360 -10.587  -6.158  0.00  0.00    -0.000 C 
BRANCH  12  13
ATOM     13  C   UNL d   1      27.125 -11.570  -7.042  0.00  0.00    -0.005 C 
ATOM     14  C   UNL d   1      27.353 -10.988  -8.427  0.00  0.00     0.005 C 
ENDBRANCH  12  13
ENDBRANCH  11  12
ENDBRANCH  10  11
ENDBRANCH   9  10
ENDBRANCH   5   9
ENDBRANCH   2   3
ENDBRANCH   1   2
BRANCH   1  15
ATOM     15  O   UNL d   1      28.575 -16.183   0.469  0.00  0.00    -0.392 OA
ATOM     16  H   UNL d   1      29.176 -16.586   1.118  0.00  0.00     0.210 HD
ENDBRANCH   1  15
BRANCH   1  17
ATOM     17  C   UNL d   1      26.819 -17.874   0.157  0.00  0.00     0.209 C 
BRANCH  17  18
ATOM     18  O   UNL d   1      25.787 -16.879   0.281  0.00  0.00    -0.349 OA
BRANCH  18  19
ATOM     19  C   UNL d   1      24.515 -17.263  -0.054  0.00  0.00     0.069 A 
ATOM     20  C   UNL d   1      24.269 -18.642  -0.071  0.00  0.00     0.039 A 
ATOM     21  C   UNL d   1      23.041 -19.147  -0.523  0.00  0.00     0.039 A 
ATOM     22  C   UNL d   1      22.030 -18.256  -0.897  0.00  0.00     0.103 A 
ATOM     23  C   UNL d   1      22.270 -16.877  -0.895  0.00  0.00     0.039 A 
ATOM     24  C   UNL d   1      23.515 -16.386  -0.481  0.00  0.00     0.039 A 
BRANCH  22  25
ATOM     25  N   UNL d   1      20.694 -18.763  -1.241  0.00  0.00    -0.116 N 
ATOM     26  O   UNL d   1      20.621 -19.700  -2.049  0.00  0.00    -0.532 OA
ATOM     27  O   UNL d   1      19.718 -18.244  -0.679  0.00  0.00    -0.532 OA
ENDBRANCH  22  25
ENDBRANCH  18  19
ENDBRANCH  17  18
ENDBRANCH   1  17
TORSDOF 12
ENDMDL
MODEL 6
REMARK VINA RESULT:    -5.924      4.438      9.311
REMARK INTER + INTRA:         -11.607
REMARK INTER:                  -9.503
REMARK INTRA:                  -2.104
REMARK CONF_INDEPENDENT:        3.580
REMARK UNBOUND:                -2.104
REMARK  12 active torsions:
REMARK  status: ('A' for Active; 'I' for Inactive)
REMARK    1  A    between atoms: C_2  and  C_3 
REMARK    2  A    between atoms: C_3  and  C_4 
REMARK    3  A    between atoms: C_4  and  C_5 
REMARK    4  A    between atoms: C_5  and  C_6 
REMARK    5  A    between atoms: C_6  and  N_7 
REMARK       I    between atoms: N_7  and  C_8 
REMARK       I    between atoms: C_8  and  N_10 
REMARK    6  A    between atoms: N_10  and  C_11 
REMARK    7  A    between atoms: C_11  and  C_12 
REMARK    8  A    between atoms: C_12  and  O_13 
REMARK    9  A    between atoms: C_12  and  C_14 
REMARK   10  A    between atoms: C_14  and  O_15 
REMARK   11  A    between atoms: O_15  and  C_16 
REMARK   12  A    between atoms: C_19  and  N_20 
ROOT
ATOM      1  C   UNL d   1      28.226 -15.712  -0.630  0.00  0.00     0.160 C 
ENDROOT
BRANCH   1   2
ATOM      2  C   UNL d   1      27.394 -16.897  -0.098  0.00  0.00     0.158 C 
BRANCH   2   3
ATOM      3  N   UNL d   1      25.982 -16.868  -0.491  0.00  0.00    -0.341 N 
ATOM      4  C   UNL d   1      25.071 -17.691   0.123  0.00  0.00     0.316 C 
ATOM      5  N   UNL d   1      23.778 -17.544  -0.314  0.00  0.00    -0.343 N 
ATOM      6  O   UNL d   1      25.396 -18.507   0.984  0.00  0.00    -0.247 OA
ATOM      7  H   UNL d   1      23.558 -16.856  -1.019  0.00  0.00     0.164 HD
ATOM      8  H   UNL d   1      25.673 -16.137  -1.118  0.00  0.00     0.164 HD
BRANCH   5   9
ATOM      9  C   UNL d   1      22.714 -18.379   0.233  0.00  0.00     0.124 C 
BRANCH   9  10
ATOM     10  C   UNL d   1      22.012 -19.255  -0.807  0.00  0.00     0.020 C 
BRANCH  10  11
ATOM     11  C   UNL d   1      20.654 -18.670  -1.219  0.00  0.00     0.002 C 
BRANCH  11  12
ATOM     12  C   UNL d   1      19.500 -19.557  -0.750  0.00  0.00    -0.000 C 
BRANCH  12  13
ATOM     13  C   UNL d   1      19.924 -20.463   0.405  0.00  0.00    -0.005 C 
ATOM     14  C   UNL d   1      19.880 -19.712   1.726  0.00  0.00     0.005 C 
ENDBRANCH  12  13
ENDBRANCH  11  12
ENDBRANCH  10  11
ENDBRANCH   9  10
ENDBRANCH   5   9
ENDBRANCH   2   3
ENDBRANCH   1   2
BRANCH   1  15
ATOM     15  O   UNL d   1      27.476 -15.046  -1.658  0.00  0.00    -0.392 OA
ATOM     16  H   UNL d   1      27.907 -14.192  -1.832  0.00  0.00     0.210 HD
ENDBRANCH   1  15
BRANCH   1  17
ATOM     17  C   UNL d   1      28.598 -14.722   0.505  0.00  0.00     0.209 C 
BRANCH  17  18
ATOM     18  O   UNL d   1      28.748 -13.396  -0.032  0.00  0.00    -0.349 OA
BRANCH  18  19
ATOM     19  C   UNL d   1      28.034 -12.397   0.578  0.00  0.00     0.069 A 
ATOM     20  C   UNL d   1      28.193 -11.110   0.046  0.00  0.00     0.039 A 
ATOM     21  C   UNL d   1      27.612  -9.998   0.671  0.00  0.00     0.039 A 
ATOM     22  C   UNL d   1      26.808 -10.190   1.801  0.00  0.00     0.103 A 
ATOM     23  C   UNL d   1      26.653 -11.470   2.346  0.00  0.00     0.039 A 
ATOM     24  C   UNL d   1      27.274 -12.568   1.736  0.00  0.00     0.039 A 
BRANCH  22  25
ATOM     25  N   UNL d   1      26.080  -9.055   2.386  0.00  0.00    -0.116 N 
ATOM     26  O   UNL d   1      25.156  -8.558   1.725  0.00  0.00    -0.532 OA
ATOM     27  O   UNL d   1      26.414  -8.678   3.518  0.00  0.00    -0.532 OA
ENDBRANCH  22  25
ENDBRANCH  18  19
ENDBRANCH  17  18
ENDBRANCH   1  17
TORSDOF 12
ENDMDL
MODEL 7
REMARK VINA RESULT:    -5.658      2.382      3.402
REMARK INTER + INTRA:         -11.736
REMARK INTER:                  -9.237
REMARK INTRA:                  -2.499
REMARK CONF_INDEPENDENT:        3.580
REMARK UNBOUND:                -2.499
REMARK  12 active torsions:
REMARK  status: ('A' for Active; 'I' for Inactive)
REMARK    1  A    between atoms: C_2  and  C_3 
REMARK    2  A    between atoms: C_3  and  C_4 
REMARK    3  A    between atoms: C_4  and  C_5 
REMARK    4  A    between atoms: C_5  and  C_6 
REMARK    5  A    between atoms: C_6  and  N_7 
REMARK       I    between atoms: N_7  and  C_8 
REMARK       I    between atoms: C_8  and  N_10 
REMARK    6  A    between atoms: N_10  and  C_11 
REMARK    7  A    between atoms: C_11  and  C_12 
REMARK    8  A    between atoms: C_12  and  O_13 
REMARK    9  A    between atoms: C_12  and  C_14 
REMARK   10  A    between atoms: C_14  and  O_15 
REMARK   11  A    between atoms: O_15  and  C_16 
REMARK   12  A    between atoms: C_19  and  N_20 
ROOT
ATOM      1  C   UNL d   1      29.430 -16.443  -0.974  0.00  0.00     0.160 C 
ENDROOT
BRANCH   1   2
ATOM      2  C   UNL d   1      30.364 -15.378  -0.363  0.00  0.00     0.158 C 
BRANCH   2   3
ATOM      3  N   UNL d   1      30.521 -15.475   1.092  0.00  0.00    -0.341 N 
ATOM      4  C   UNL d   1      30.567 -14.341   1.865  0.00  0.00     0.316 C 
ATOM      5  N   UNL d   1      30.684 -14.570   3.213  0.00  0.00    -0.343 N 
ATOM      6  O   UNL d   1      30.524 -13.212   1.379  0.00  0.00    -0.247 OA
ATOM      7  H   UNL d   1      30.708 -15.515   3.565  0.00  0.00     0.164 HD
ATOM      8  H   UNL d   1      30.452 -16.387   1.522  0.00  0.00     0.164 HD
BRANCH   5   9
ATOM      9  C   UNL d   1      30.774 -13.452   4.147  0.00  0.00     0.124 C 
BRANCH   9  10
ATOM     10  C   UNL d   1      29.608 -13.369   5.134  0.00  0.00     0.020 C 
BRANCH  10  11
ATOM     11  C   UNL d   1      28.655 -14.564   4.987  0.00  0.00     0.002 C 
BRANCH  11  12
ATOM     12  C   UNL d   1      27.301 -14.129   4.424  0.00  0.00    -0.000 C 
BRANCH  12  13
ATOM     13  C   UNL d   1      27.418 -13.683   2.967  0.00  0.00    -0.005 C 
ATOM     14  C   UNL d   1      27.229 -12.179   2.846  0.00  0.00     0.005 C 
ENDBRANCH  12  13
ENDBRANCH  11  12
ENDBRANCH  10  11
ENDBRANCH   9  10
ENDBRANCH   5   9
ENDBRANCH   2   3
ENDBRANCH   1   2
BRANCH   1  15
ATOM     15  O   UNL d   1      29.554 -17.656  -0.215  0.00  0.00    -0.392 OA
ATOM     16  H   UNL d   1      28.918 -17.612   0.519  0.00  0.00     0.210 HD
ENDBRANCH   1  15
BRANCH   1  17
ATOM     17  C   UNL d   1      27.956 -15.961  -0.999  0.00  0.00     0.209 C 
BRANCH  17  18
ATOM     18  O   UNL d   1      27.202 -16.644   0.019  0.00  0.00    -0.349 OA
BRANCH  18  19
ATOM     19  C   UNL d   1      25.896 -16.941  -0.274  0.00  0.00     0.069 A 
ATOM     20  C   UNL d   1      25.422 -18.174   0.193  0.00  0.00     0.039 A 
ATOM     21  C   UNL d   1      24.145 -18.633  -0.159  0.00  0.00     0.039 A 
ATOM     22  C   UNL d   1      23.312 -17.815  -0.930  0.00  0.00     0.103 A 
ATOM     23  C   UNL d   1      23.780 -16.586  -1.411  0.00  0.00     0.039 A 
ATOM     24  C   UNL d   1      25.074 -16.158  -1.087  0.00  0.00     0.039 A 
BRANCH  22  25
ATOM     25  N   UNL d   1      21.923 -18.219  -1.192  0.00  0.00    -0.116 N 
ATOM     26  O   UNL d   1      21.023 -17.421  -0.895  0.00  0.00    -0.532 OA
ATOM     27  O   UNL d   1      21.735 -19.325  -1.721  0.00  0.00    -0.532 OA
ENDBRANCH  22  25
ENDBRANCH  18  19
ENDBRANCH  17  18
ENDBRANCH   1  17
TORSDOF 12
ENDMDL
MODEL 8
REMARK VINA RESULT:    -5.532      6.837     10.646
REMARK INTER + INTRA:         -11.204
REMARK INTER:                  -9.112
REMARK INTRA:                  -2.092
REMARK CONF_INDEPENDENT:        3.580
REMARK UNBOUND:                -2.092
REMARK  12 active torsions:
REMARK  status: ('A' for Active; 'I' for Inactive)
REMARK    1  A    between atoms: C_2  and  C_3 
REMARK    2  A    between atoms: C_3  and  C_4 
REMARK    3  A    between atoms: C_4  and  C_5 
REMARK    4  A    between atoms: C_5  and  C_6 
REMARK    5  A    between atoms: C_6  and  N_7 
REMARK       I    between atoms: N_7  and  C_8 
REMARK       I    between atoms: C_8  and  N_10 
REMARK    6  A    between atoms: N_10  and  C_11 
REMARK    7  A    between atoms: C_11  and  C_12 
REMARK    8  A    between atoms: C_12  and  O_13 
REMARK    9  A    between atoms: C_12  and  C_14 
REMARK   10  A    between atoms: C_14  and  O_15 
REMARK   11  A    between atoms: O_15  and  C_16 
REMARK   12  A    between atoms: C_19  and  N_20 
ROOT
ATOM      1  C   UNL d   1      25.904  -8.383  -4.662  0.00  0.00     0.160 C 
ENDROOT
BRANCH   1   2
ATOM      2  C   UNL d   1      26.493  -9.783  -4.936  0.00  0.00     0.158 C 
BRANCH   2   3
ATOM      3  N   UNL d   1      25.575 -10.890  -4.653  0.00  0.00    -0.341 N 
ATOM      4  C   UNL d   1      26.057 -12.161  -4.454  0.00  0.00     0.316 C 
ATOM      5  N   UNL d   1      25.098 -13.100  -4.167  0.00  0.00    -0.343 N 
ATOM      6  O   UNL d   1      27.253 -12.433  -4.545  0.00  0.00    -0.247 OA
ATOM      7  H   UNL d   1      24.129 -12.827  -4.096  0.00  0.00     0.164 HD
ATOM      8  H   UNL d   1      24.605 -10.674  -4.470  0.00  0.00     0.164 HD
BRANCH   5   9
ATOM      9  C   UNL d   1      25.470 -14.496  -3.963  0.00  0.00     0.124 C 
BRANCH   9  10
ATOM     10  C   UNL d   1      25.429 -14.944  -2.500  0.00  0.00     0.020 C 
BRANCH  10  11
ATOM     11  C   UNL d   1      25.111 -16.440  -2.373  0.00  0.00     0.002 C 
BRANCH  11  12
ATOM     12  C   UNL d   1      24.836 -16.830  -0.920  0.00  0.00    -0.000 C 
BRANCH  12  13
ATOM     13  C   UNL d   1      23.376 -17.230  -0.714  0.00  0.00    -0.005 C 
ATOM     14  C   UNL d   1      23.249 -18.731  -0.512  0.00  0.00     0.005 C 
ENDBRANCH  12  13
ENDBRANCH  11  12
ENDBRANCH  10  11
ENDBRANCH   9  10
ENDBRANCH   5   9
ENDBRANCH   2   3
ENDBRANCH   1   2
BRANCH   1  15
ATOM     15  O   UNL d   1      24.688  -8.533  -3.913  0.00  0.00    -0.392 OA
ATOM     16  H   UNL d   1      24.778  -8.014  -3.096  0.00  0.00     0.210 HD
ENDBRANCH   1  15
BRANCH   1  17
ATOM     17  C   UNL d   1      26.910  -7.482  -3.899  0.00  0.00     0.209 C 
BRANCH  17  18
ATOM     18  O   UNL d   1      26.210  -6.685  -2.925  0.00  0.00    -0.349 OA
BRANCH  18  19
ATOM     19  C   UNL d   1      26.205  -7.148  -1.636  0.00  0.00     0.069 A 
ATOM     20  C   UNL d   1      25.151  -6.707  -0.824  0.00  0.00     0.039 A 
ATOM     21  C   UNL d   1      25.119  -7.016   0.543  0.00  0.00     0.039 A 
ATOM     22  C   UNL d   1      26.119  -7.831   1.085  0.00  0.00     0.103 A 
ATOM     23  C   UNL d   1      27.183  -8.267   0.285  0.00  0.00     0.039 A 
ATOM     24  C   UNL d   1      27.225  -7.916  -1.071  0.00  0.00     0.039 A 
BRANCH  22  25
ATOM     25  N   UNL d   1      26.027  -8.278   2.482  0.00  0.00    -0.116 N 
ATOM     26  O   UNL d   1      25.166  -9.124   2.763  0.00  0.00    -0.532 OA
ATOM     27  O   UNL d   1      26.835  -7.803   3.293  0.00  0.00    -0.532 OA
ENDBRANCH  22  25
ENDBRANCH  18  19
ENDBRANCH  17  18
ENDBRANCH   1  17
TORSDOF 12
ENDMDL
MODEL 9
REMARK VINA RESULT:    -5.363      4.703      8.689
REMARK INTER + INTRA:         -11.274
REMARK INTER:                  -8.942
REMARK INTRA:                  -2.332
REMARK CONF_INDEPENDENT:        3.580
REMARK UNBOUND:                -2.332
REMARK  12 active torsions:
REMARK  status: ('A' for Active; 'I' for Inactive)
REMARK    1  A    between atoms: C_2  and  C_3 
REMARK    2  A    between atoms: C_3  and  C_4 
REMARK    3  A    between atoms: C_4  and  C_5 
REMARK    4  A    between atoms: C_5  and  C_6 
REMARK    5  A    between atoms: C_6  and  N_7 
REMARK       I    between atoms: N_7  and  C_8 
REMARK       I    between atoms: C_8  and  N_10 
REMARK    6  A    between atoms: N_10  and  C_11 
REMARK    7  A    between atoms: C_11  and  C_12 
REMARK    8  A    between atoms: C_12  and  O_13 
REMARK    9  A    between atoms: C_12  and  C_14 
REMARK   10  A    between atoms: C_14  and  O_15 
REMARK   11  A    between atoms: O_15  and  C_16 
REMARK   12  A    between atoms: C_19  and  N_20 
ROOT
ATOM      1  C   UNL d   1      30.586 -13.305   2.278  0.00  0.00     0.160 C 
ENDROOT
BRANCH   1   2
ATOM      2  C   UNL d   1      31.457 -14.404   1.634  0.00  0.00     0.158 C 
BRANCH   2   3
ATOM      3  N   UNL d   1      30.719 -15.611   1.251  0.00  0.00    -0.341 N 
ATOM      4  C   UNL d   1      29.910 -15.611   0.143  0.00  0.00     0.316 C 
ATOM      5  N   UNL d   1      29.301 -16.812  -0.125  0.00  0.00    -0.343 N 
ATOM      6  O   UNL d   1      29.733 -14.605  -0.543  0.00  0.00    -0.247 OA
ATOM      7  H   UNL d   1      29.481 -17.611   0.464  0.00  0.00     0.164 HD
ATOM      8  H   UNL d   1      30.928 -16.474   1.734  0.00  0.00     0.164 HD
BRANCH   5   9
ATOM      9  C   UNL d   1      28.389 -16.942  -1.257  0.00  0.00     0.124 C 
BRANCH   9  10
ATOM     10  C   UNL d   1      26.929 -16.630  -0.920  0.00  0.00     0.020 C 
BRANCH  10  11
ATOM     11  C   UNL d   1      26.513 -17.246   0.423  0.00  0.00     0.002 C 
BRANCH  11  12
ATOM     12  C   UNL d   1      25.332 -18.202   0.254  0.00  0.00    -0.000 C 
BRANCH  12  13
ATOM     13  C   UNL d   1      24.460 -17.810  -0.937  0.00  0.00    -0.005 C 
ATOM     14  C   UNL d   1      23.001 -17.694  -0.525  0.00  0.00     0.005 C 
ENDBRANCH  12  13
ENDBRANCH  11  12
ENDBRANCH  10  11
ENDBRANCH   9  10
ENDBRANCH   5   9
ENDBRANCH   2   3
ENDBRANCH   1   2
BRANCH   1  15
ATOM     15  O   UNL d   1      29.821 -12.659   1.248  0.00  0.00    -0.392 OA
ATOM     16  H   UNL d   1      29.089 -13.253   1.008  0.00  0.00     0.210 HD
ENDBRANCH   1  15
BRANCH   1  17
ATOM     17  C   UNL d   1      29.652 -13.886   3.371  0.00  0.00     0.209 C 
BRANCH  17  18
ATOM     18  O   UNL d   1      28.278 -13.739   2.969  0.00  0.00    -0.349 OA
BRANCH  18  19
ATOM     19  C   UNL d   1      27.757 -12.472   3.002  0.00  0.00     0.069 A 
ATOM     20  C   UNL d   1      27.062 -12.059   1.857  0.00  0.00     0.039 A 
ATOM     21  C   UNL d   1      26.600 -10.741   1.734  0.00  0.00     0.039 A 
ATOM     22  C   UNL d   1      26.778  -9.850   2.798  0.00  0.00     0.103 A 
ATOM     23  C   UNL d   1      27.481 -10.250   3.941  0.00  0.00     0.039 A 
ATOM     24  C   UNL d   1      27.975 -11.558   4.034  0.00  0.00     0.039 A 
BRANCH  22  25
ATOM     25  N   UNL d   1      26.180  -8.509   2.742  0.00  0.00    -0.116 N 
ATOM     26  O   UNL d   1      26.655  -7.632   3.478  0.00  0.00    -0.532 OA
ATOM     27  O   UNL d   1      25.253  -8.324   1.939  0.00  0.00    -0.532 OA
ENDBRANCH  22  25
ENDBRANCH  18  19
ENDBRANCH  17  18
ENDBRANCH   1  17
TORSDOF 12
ENDMDL
