MODEL 1
REMARK VINA RESULT:   -10.440      0.000      0.000
REMARK INTER + INTRA:         -14.248
REMARK INTER:                 -13.125
REMARK INTRA:                  -1.124
REMARK CONF_INDEPENDENT:        2.685
REMARK UNBOUND:                -1.124
REMARK  9 active torsions:
REMARK  status: ('A' for Active; 'I' for Inactive)
REMARK    1  A    between atoms: C_2  and  C_3 
REMARK       I    between atoms: C_2  and  N_26 
REMARK    2  A    between atoms: C_3  and  S_4 
REMARK    3  A    between atoms: S_4  and  C_5 
REMARK    4  A    between atoms: C_8  and  N_9 
REMARK    5  A    between atoms: N_9  and  N_10 
REMARK    6  A    between atoms: C_11  and  C_12 
REMARK    7  A    between atoms: C_16  and  O_17 
REMARK    8  A    between atoms: O_17  and  C_18 
REMARK    9  A    between atoms: N_26  and  C_27 
ROOT
ATOM      1  C   UNL d   1      28.034 -13.292   5.230  0.00  0.00     0.226 A 
ATOM      2  N   UNL d   1      28.680 -14.352   5.734  0.00  0.00    -0.132 NA
ATOM      3  N   UNL d   1      28.910 -15.080   4.624  0.00  0.00    -0.103 N 
ATOM      4  C   UNL d   1      28.399 -14.480   3.503  0.00  0.00     0.739 A 
ATOM      5  N   UNL d   1      27.823 -13.352   3.879  0.00  0.00    -0.034 NA
ATOM      6  H   UNL d   1      29.427 -15.947   4.704  0.00  0.00     0.208 HD
ENDROOT
BRANCH   4   7
ATOM      7  N   UNL d   1      28.525 -15.032   2.260  0.00  0.00    -0.106 N 
ATOM      8  H   UNL d   1      29.441 -15.201   1.848  0.00  0.00     0.208 HD
BRANCH   7   9
ATOM      9  N   UNL d   1      27.412 -15.304   1.518  0.00  0.00    -0.172 NA
ATOM     10  C   UNL d   1      27.317 -16.438   0.900  0.00  0.00     0.150 C 
BRANCH  10  11
ATOM     11  C   UNL d   1      26.133 -16.714   0.049  0.00  0.00    -0.014 A 
ATOM     12  C   UNL d   1      25.460 -17.936   0.053  0.00  0.00     0.013 A 
ATOM     13  C   UNL d   1      24.450 -18.172  -0.894  0.00  0.00     0.004 A 
ATOM     14  C   UNL d   1      24.100 -17.179  -1.817  0.00  0.00     0.037 A 
ATOM     15  C   UNL d   1      24.763 -15.949  -1.802  0.00  0.00     0.076 A 
ATOM     16  C   UNL d   1      25.750 -15.718  -0.844  0.00  0.00     0.050 A 
BRANCH  15  17
ATOM     17  O   UNL d   1      24.387 -15.024  -2.752  0.00  0.00    -0.311 OA
BRANCH  17  18
ATOM     18  C   UNL d   1      25.342 -14.553  -3.629  0.00  0.00     0.076 A 
ATOM     19  C   UNL d   1      25.370 -13.182  -3.866  0.00  0.00     0.037 A 
ATOM     20  C   UNL d   1      26.286 -12.655  -4.778  0.00  0.00     0.003 A 
ATOM     21  C   UNL d   1      27.224 -13.488  -5.390  0.00  0.00     0.000 A 
ATOM     22  C   UNL d   1      27.206 -14.859  -5.145  0.00  0.00     0.003 A 
ATOM     23  C   UNL d   1      26.236 -15.399  -4.300  0.00  0.00     0.037 A 
ENDBRANCH  17  18
ENDBRANCH  15  17
ENDBRANCH  10  11
ENDBRANCH   7   9
ENDBRANCH   4   7
BRANCH   1  24
ATOM     24  S   UNL d   1      27.780 -11.849   6.193  0.00  0.00    -0.079 SA
BRANCH  24  25
ATOM     25  C   UNL d   1      29.441 -11.421   6.790  0.00  0.00     0.185 C 
BRANCH  25  26
ATOM     26  C   UNL d   1      29.421 -10.645   8.121  0.00  0.00     0.227 C 
ATOM     27  O   UNL d   1      29.784  -9.466   8.240  0.00  0.00    -0.273 OA
ATOM     28  N   UNL d   1      29.000 -11.281   9.270  0.00  0.00    -0.356 N 
ATOM     29  H   UNL d   1      28.982 -10.664  10.077  0.00  0.00     0.162 HD
BRANCH  28  30
ATOM     30  C   UNL d   1      28.496 -12.637   9.421  0.00  0.00     0.084 C 
ATOM     31  C   UNL d   1      29.610 -13.673   9.372  0.00  0.00     0.025 C 
ATOM     32  C   UNL d   1      29.007 -14.929   9.958  0.00  0.00     0.002 C 
ATOM     33  C   UNL d   1      27.971 -14.451  10.964  0.00  0.00     0.002 C 
ATOM     34  C   UNL d   1      27.874 -12.929  10.796  0.00  0.00     0.025 C 
ENDBRANCH  28  30
ENDBRANCH  25  26
ENDBRANCH  24  25
ENDBRANCH   1  24
TORSDOF 9
ENDMDL
MODEL 2
REMARK VINA RESULT:   -10.295      7.370      9.978
REMARK INTER + INTRA:         -14.728
REMARK INTER:                 -12.980
REMARK INTRA:                  -1.748
REMARK CONF_INDEPENDENT:        2.685
REMARK UNBOUND:                -1.748
REMARK  9 active torsions:
REMARK  status: ('A' for Active; 'I' for Inactive)
REMARK    1  A    between atoms: C_2  and  C_3 
REMARK       I    between atoms: C_2  and  N_26 
REMARK    2  A    between atoms: C_3  and  S_4 
REMARK    3  A    between atoms: S_4  and  C_5 
REMARK    4  A    between atoms: C_8  and  N_9 
REMARK    5  A    between atoms: N_9  and  N_10 
REMARK    6  A    between atoms: C_11  and  C_12 
REMARK    7  A    between atoms: C_16  and  O_17 
REMARK    8  A    between atoms: O_17  and  C_18 
REMARK    9  A    between atoms: N_26  and  C_27 
ROOT
ATOM      1  C   UNL d   1      30.963 -17.166  -2.217  0.00  0.00     0.226 A 
ATOM      2  N   UNL d   1      31.661 -17.283  -1.080  0.00  0.00    -0.132 NA
ATOM      3  N   UNL d   1      30.708 -17.689  -0.219  0.00  0.00    -0.103 N 
ATOM      4  C   UNL d   1      29.481 -17.790  -0.823  0.00  0.00     0.739 A 
ATOM      5  N   UNL d   1      29.628 -17.441  -2.088  0.00  0.00    -0.034 NA
ATOM      6  H   UNL d   1      30.966 -17.893   0.739  0.00  0.00     0.208 HD
ENDROOT
BRANCH   4   7
ATOM      7  N   UNL d   1      28.367 -18.197  -0.145  0.00  0.00    -0.106 N 
ATOM      8  H   UNL d   1      28.428 -18.882   0.605  0.00  0.00     0.208 HD
BRANCH   7   9
ATOM      9  N   UNL d   1      27.137 -17.736  -0.516  0.00  0.00    -0.172 NA
ATOM     10  C   UNL d   1      26.084 -18.146   0.117  0.00  0.00     0.150 C 
BRANCH  10  11
ATOM     11  C   UNL d   1      24.741 -17.690  -0.320  0.00  0.00    -0.014 A 
ATOM     12  C   UNL d   1      24.355 -16.350  -0.321  0.00  0.00     0.013 A 
ATOM     13  C   UNL d   1      23.019 -16.015  -0.596  0.00  0.00     0.004 A 
ATOM     14  C   UNL d   1      22.086 -17.016  -0.895  0.00  0.00     0.037 A 
ATOM     15  C   UNL d   1      22.484 -18.355  -0.914  0.00  0.00     0.076 A 
ATOM     16  C   UNL d   1      23.818 -18.674  -0.660  0.00  0.00     0.050 A 
BRANCH  15  17
ATOM     17  O   UNL d   1      21.512 -19.293  -1.192  0.00  0.00    -0.311 OA
BRANCH  17  18
ATOM     18  C   UNL d   1      20.577 -19.581  -0.221  0.00  0.00     0.076 A 
ATOM     19  C   UNL d   1      20.948 -19.370   1.105  0.00  0.00     0.037 A 
ATOM     20  C   UNL d   1      20.058 -19.687   2.132  0.00  0.00     0.003 A 
ATOM     21  C   UNL d   1      18.771 -20.138   1.831  0.00  0.00     0.000 A 
ATOM     22  C   UNL d   1      18.394 -20.337   0.505  0.00  0.00     0.003 A 
ATOM     23  C   UNL d   1      19.310 -20.103  -0.519  0.00  0.00     0.037 A 
ENDBRANCH  17  18
ENDBRANCH  15  17
ENDBRANCH  10  11
ENDBRANCH   7   9
ENDBRANCH   4   7
BRANCH   1  24
ATOM     24  S   UNL d   1      31.775 -16.981  -3.760  0.00  0.00    -0.079 SA
BRANCH  24  25
ATOM     25  C   UNL d   1      30.440 -17.137  -4.981  0.00  0.00     0.185 C 
BRANCH  25  26
ATOM     26  C   UNL d   1      30.146 -15.819  -5.723  0.00  0.00     0.227 C 
ATOM     27  O   UNL d   1      30.933 -15.280  -6.514  0.00  0.00    -0.273 OA
ATOM     28  N   UNL d   1      28.954 -15.165  -5.496  0.00  0.00    -0.356 N 
ATOM     29  H   UNL d   1      28.845 -14.334  -6.071  0.00  0.00     0.162 HD
BRANCH  28  30
ATOM     30  C   UNL d   1      27.843 -15.575  -4.651  0.00  0.00     0.084 C 
ATOM     31  C   UNL d   1      27.850 -14.864  -3.306  0.00  0.00     0.025 C 
ATOM     32  C   UNL d   1      26.458 -15.058  -2.749  0.00  0.00     0.002 C 
ATOM     33  C   UNL d   1      25.544 -15.141  -3.962  0.00  0.00     0.002 C 
ATOM     34  C   UNL d   1      26.460 -15.180  -5.193  0.00  0.00     0.025 C 
ENDBRANCH  28  30
ENDBRANCH  25  26
ENDBRANCH  24  25
ENDBRANCH   1  24
TORSDOF 9
ENDMDL
MODEL 3
REMARK VINA RESULT:   -10.055      7.112      9.132
REMARK INTER + INTRA:         -13.570
REMARK INTER:                 -12.740
REMARK INTRA:                  -0.830
REMARK CONF_INDEPENDENT:        2.685
REMARK UNBOUND:                -0.830
REMARK  9 active torsions:
REMARK  status: ('A' for Active; 'I' for Inactive)
REMARK    1  A    between atoms: C_2  and  C_3 
REMARK       I    between atoms: C_2  and  N_26 
REMARK    2  A    between atoms: C_3  and  S_4 
REMARK    3  A    between atoms: S_4  and  C_5 
REMARK    4  A    between atoms: C_8  and  N_9 
REMARK    5  A    between atoms: N_9  and  N_10 
REMARK    6  A    between atoms: C_11  and  C_12 
REMARK    7  A    between atoms: C_16  and  O_17 
REMARK    8  A    between atoms: O_17  and  C_18 
REMARK    9  A    between atoms: N_26  and  C_27 
ROOT
ATOM      1  C   UNL d   1      25.001 -17.482  -0.222  0.00  0.00     0.226 A 
ATOM      2  N   UNL d   1      25.167 -18.434   0.707  0.00  0.00    -0.132 NA
ATOM      3  N   UNL d   1      26.510 -18.523   0.765  0.00  0.00    -0.103 N 
ATOM      4  C   UNL d   1      27.118 -17.666  -0.115  0.00  0.00     0.739 A 
ATOM      5  N   UNL d   1      26.169 -17.014  -0.762  0.00  0.00    -0.034 NA
ATOM      6  H   UNL d   1      26.931 -19.161   1.429  0.00  0.00     0.208 HD
ENDROOT
BRANCH   4   7
ATOM      7  N   UNL d   1      28.477 -17.575  -0.221  0.00  0.00    -0.106 N 
ATOM      8  H   UNL d   1      29.072 -17.581   0.605  0.00  0.00     0.208 HD
BRANCH   7   9
ATOM      9  N   UNL d   1      29.056 -17.404  -1.445  0.00  0.00    -0.172 NA
ATOM     10  C   UNL d   1      28.674 -16.423  -2.201  0.00  0.00     0.150 C 
BRANCH  10  11
ATOM     11  C   UNL d   1      29.262 -16.267  -3.555  0.00  0.00    -0.014 A 
ATOM     12  C   UNL d   1      30.574 -16.629  -3.862  0.00  0.00     0.013 A 
ATOM     13  C   UNL d   1      31.104 -16.304  -5.121  0.00  0.00     0.004 A 
ATOM     14  C   UNL d   1      30.314 -15.647  -6.073  0.00  0.00     0.037 A 
ATOM     15  C   UNL d   1      28.994 -15.307  -5.767  0.00  0.00     0.076 A 
ATOM     16  C   UNL d   1      28.471 -15.654  -4.520  0.00  0.00     0.050 A 
BRANCH  15  17
ATOM     17  O   UNL d   1      28.278 -14.642  -6.739  0.00  0.00    -0.311 OA
BRANCH  17  18
ATOM     18  C   UNL d   1      27.781 -13.388  -6.449  0.00  0.00     0.076 A 
ATOM     19  C   UNL d   1      26.874 -13.289  -5.397  0.00  0.00     0.037 A 
ATOM     20  C   UNL d   1      26.303 -12.054  -5.088  0.00  0.00     0.003 A 
ATOM     21  C   UNL d   1      26.700 -10.906  -5.778  0.00  0.00     0.000 A 
ATOM     22  C   UNL d   1      27.616 -11.001  -6.823  0.00  0.00     0.003 A 
ATOM     23  C   UNL d   1      28.123 -12.248  -7.189  0.00  0.00     0.037 A 
ENDBRANCH  17  18
ENDBRANCH  15  17
ENDBRANCH  10  11
ENDBRANCH   7   9
ENDBRANCH   4   7
BRANCH   1  24
ATOM     24  S   UNL d   1      23.440 -16.721  -0.465  0.00  0.00    -0.079 SA
BRANCH  24  25
ATOM     25  C   UNL d   1      22.250 -17.967   0.108  0.00  0.00     0.185 C 
BRANCH  25  26
ATOM     26  C   UNL d   1      21.831 -18.954  -0.998  0.00  0.00     0.227 C 
ATOM     27  O   UNL d   1      22.498 -19.173  -2.020  0.00  0.00    -0.273 OA
ATOM     28  N   UNL d   1      20.635 -19.631  -0.885  0.00  0.00    -0.356 N 
ATOM     29  H   UNL d   1      20.481 -20.288  -1.645  0.00  0.00     0.162 HD
BRANCH  28  30
ATOM     30  C   UNL d   1      19.673 -19.593   0.206  0.00  0.00     0.084 C 
ATOM     31  C   UNL d   1      18.694 -20.757   0.151  0.00  0.00     0.025 C 
ATOM     32  C   UNL d   1      18.074 -20.817   1.528  0.00  0.00     0.002 C 
ATOM     33  C   UNL d   1      19.145 -20.304   2.478  0.00  0.00     0.002 C 
ATOM     34  C   UNL d   1      20.291 -19.786   1.599  0.00  0.00     0.025 C 
ENDBRANCH  28  30
ENDBRANCH  25  26
ENDBRANCH  24  25
ENDBRANCH   1  24
TORSDOF 9
ENDMDL
MODEL 4
REMARK VINA RESULT:    -9.824      6.947      9.944
REMARK INTER + INTRA:         -13.583
REMARK INTER:                 -12.509
REMARK INTRA:                  -1.074
REMARK CONF_INDEPENDENT:        2.685
REMARK UNBOUND:                -1.074
REMARK  9 active torsions:
REMARK  status: ('A' for Active; 'I' for Inactive)
REMARK    1  A    between atoms: C_2  and  C_3 
REMARK       I    between atoms: C_2  and  N_26 
REMARK    2  A    between atoms: C_3  and  S_4 
REMARK    3  A    between atoms: S_4  and  C_5 
REMARK    4  A    between atoms: C_8  and  N_9 
REMARK    5  A    between atoms: N_9  and  N_10 
REMARK    6  A    between atoms: C_11  and  C_12 
REMARK    7  A    between atoms: C_16  and  O_17 
REMARK    8  A    between atoms: O_17  and  C_18 
REMARK    9  A    between atoms: N_26  and  C_27 
ROOT
ATOM      1  C   UNL d   1      26.266 -16.524  -0.593  0.00  0.00     0.226 A 
ATOM      2  N   UNL d   1      26.639 -16.044   0.602  0.00  0.00    -0.132 NA
ATOM      3  N   UNL d   1      27.914 -16.472   0.678  0.00  0.00    -0.103 N 
ATOM      4  C   UNL d   1      28.278 -17.198  -0.426  0.00  0.00     0.739 A 
ATOM      5  N   UNL d   1      27.233 -17.254  -1.232  0.00  0.00    -0.034 NA
ATOM      6  H   UNL d   1      28.469 -16.219   1.487  0.00  0.00     0.208 HD
ENDROOT
BRANCH   4   7
ATOM      7  N   UNL d   1      29.531 -17.722  -0.573  0.00  0.00    -0.106 N 
ATOM      8  H   UNL d   1      30.108 -17.943   0.237  0.00  0.00     0.208 HD
BRANCH   7   9
ATOM      9  N   UNL d   1      30.057 -17.893  -1.820  0.00  0.00    -0.172 NA
ATOM     10  C   UNL d   1      29.863 -16.987  -2.725  0.00  0.00     0.150 C 
BRANCH  10  11
ATOM     11  C   UNL d   1      30.387 -17.196  -4.098  0.00  0.00    -0.014 A 
ATOM     12  C   UNL d   1      30.873 -16.158  -4.894  0.00  0.00     0.013 A 
ATOM     13  C   UNL d   1      31.202 -16.413  -6.235  0.00  0.00     0.004 A 
ATOM     14  C   UNL d   1      31.072 -17.703  -6.764  0.00  0.00     0.037 A 
ATOM     15  C   UNL d   1      30.605 -18.743  -5.955  0.00  0.00     0.076 A 
ATOM     16  C   UNL d   1      30.301 -18.483  -4.618  0.00  0.00     0.050 A 
BRANCH  15  17
ATOM     17  O   UNL d   1      30.478 -19.983  -6.542  0.00  0.00    -0.311 OA
BRANCH  17  18
ATOM     18  C   UNL d   1      31.509 -20.888  -6.401  0.00  0.00     0.076 A 
ATOM     19  C   UNL d   1      31.520 -21.668  -5.248  0.00  0.00     0.037 A 
ATOM     20  C   UNL d   1      32.564 -22.568  -5.030  0.00  0.00     0.003 A 
ATOM     21  C   UNL d   1      33.551 -22.745  -6.002  0.00  0.00     0.000 A 
ATOM     22  C   UNL d   1      33.535 -21.975  -7.162  0.00  0.00     0.003 A 
ATOM     23  C   UNL d   1      32.541 -21.014  -7.342  0.00  0.00     0.037 A 
ENDBRANCH  17  18
ENDBRANCH  15  17
ENDBRANCH  10  11
ENDBRANCH   7   9
ENDBRANCH   4   7
BRANCH   1  24
ATOM     24  S   UNL d   1      24.787 -15.982  -1.361  0.00  0.00    -0.079 SA
BRANCH  24  25
ATOM     25  C   UNL d   1      23.478 -16.868  -0.466  0.00  0.00     0.185 C 
BRANCH  25  26
ATOM     26  C   UNL d   1      23.815 -18.350  -0.220  0.00  0.00     0.227 C 
ATOM     27  O   UNL d   1      24.966 -18.809  -0.225  0.00  0.00    -0.273 OA
ATOM     28  N   UNL d   1      22.793 -19.250  -0.000  0.00  0.00    -0.356 N 
ATOM     29  H   UNL d   1      23.129 -20.188   0.197  0.00  0.00     0.162 HD
BRANCH  28  30
ATOM     30  C   UNL d   1      21.363 -18.993   0.088  0.00  0.00     0.084 C 
ATOM     31  C   UNL d   1      20.657 -19.209  -1.242  0.00  0.00     0.025 C 
ATOM     32  C   UNL d   1      19.190 -19.326  -0.895  0.00  0.00     0.002 C 
ATOM     33  C   UNL d   1      19.150 -19.930   0.501  0.00  0.00     0.002 C 
ATOM     34  C   UNL d   1      20.602 -19.971   0.996  0.00  0.00     0.025 C 
ENDBRANCH  28  30
ENDBRANCH  25  26
ENDBRANCH  24  25
ENDBRANCH   1  24
TORSDOF 9
ENDMDL
MODEL 5
REMARK VINA RESULT:    -9.617      3.391     10.902
REMARK INTER + INTRA:         -13.465
REMARK INTER:                 -12.302
REMARK INTRA:                  -1.163
REMARK CONF_INDEPENDENT:        2.685
REMARK UNBOUND:                -1.163
REMARK  9 active torsions:
REMARK  status: ('A' for Active; 'I' for Inactive)
REMARK    1  A    between atoms: C_2  and  C_3 
REMARK       I    between atoms: C_2  and  N_26 
REMARK    2  A    between atoms: C_3  and  S_4 
REMARK    3  A    between atoms: S_4  and  C_5 
REMARK    4  A    between atoms: C_8  and  N_9 
REMARK    5  A    between atoms: N_9  and  N_10 
REMARK    6  A    between atoms: C_11  and  C_12 
REMARK    7  A    between atoms: C_16  and  O_17 
REMARK    8  A    between atoms: O_17  and  C_18 
REMARK    9  A    between atoms: N_26  and  C_27 
ROOT
ATOM      1  C   UNL d   1      25.963 -15.794  -1.280  0.00  0.00     0.226 A 
ATOM      2  N   UNL d   1      27.043 -16.084  -2.018  0.00  0.00    -0.132 NA
ATOM      3  N   UNL d   1      28.020 -16.053  -1.091  0.00  0.00    -0.103 N 
ATOM      4  C   UNL d   1      27.537 -15.734   0.152  0.00  0.00     0.739 A 
ATOM      5  N   UNL d   1      26.234 -15.548   0.040  0.00  0.00    -0.034 NA
ATOM      6  H   UNL d   1      28.968 -16.274  -1.370  0.00  0.00     0.208 HD
ENDROOT
BRANCH   4   7
ATOM      7  N   UNL d   1      28.346 -15.657   1.249  0.00  0.00    -0.106 N 
ATOM      8  H   UNL d   1      29.169 -16.250   1.341  0.00  0.00     0.208 HD
BRANCH   7   9
ATOM      9  N   UNL d   1      28.020 -14.824   2.280  0.00  0.00    -0.172 NA
ATOM     10  C   UNL d   1      28.532 -13.635   2.327  0.00  0.00     0.150 C 
BRANCH  10  11
ATOM     11  C   UNL d   1      28.222 -12.746   3.475  0.00  0.00    -0.014 A 
ATOM     12  C   UNL d   1      28.204 -11.355   3.378  0.00  0.00     0.013 A 
ATOM     13  C   UNL d   1      28.059 -10.584   4.542  0.00  0.00     0.004 A 
ATOM     14  C   UNL d   1      27.906 -11.204   5.788  0.00  0.00     0.037 A 
ATOM     15  C   UNL d   1      27.903 -12.599   5.876  0.00  0.00     0.076 A 
ATOM     16  C   UNL d   1      28.026 -13.356   4.710  0.00  0.00     0.050 A 
BRANCH  15  17
ATOM     17  O   UNL d   1      27.771 -13.146   7.134  0.00  0.00    -0.311 OA
BRANCH  17  18
ATOM     18  C   UNL d   1      28.881 -13.192   7.952  0.00  0.00     0.076 A 
ATOM     19  C   UNL d   1      28.761 -12.632   9.222  0.00  0.00     0.037 A 
ATOM     20  C   UNL d   1      29.864 -12.610  10.076  0.00  0.00     0.003 A 
ATOM     21  C   UNL d   1      31.061 -13.217   9.691  0.00  0.00     0.000 A 
ATOM     22  C   UNL d   1      31.179 -13.788   8.427  0.00  0.00     0.003 A 
ATOM     23  C   UNL d   1      30.105 -13.736   7.539  0.00  0.00     0.037 A 
ENDBRANCH  17  18
ENDBRANCH  15  17
ENDBRANCH  10  11
ENDBRANCH   7   9
ENDBRANCH   4   7
BRANCH   1  24
ATOM     24  S   UNL d   1      24.346 -16.023  -1.917  0.00  0.00    -0.079 SA
BRANCH  24  25
ATOM     25  C   UNL d   1      23.414 -16.703  -0.514  0.00  0.00     0.185 C 
BRANCH  25  26
ATOM     26  C   UNL d   1      23.774 -18.169  -0.206  0.00  0.00     0.227 C 
ATOM     27  O   UNL d   1      24.935 -18.598  -0.138  0.00  0.00    -0.273 OA
ATOM     28  N   UNL d   1      22.765 -19.089  -0.012  0.00  0.00    -0.356 N 
ATOM     29  H   UNL d   1      23.114 -20.012   0.229  0.00  0.00     0.162 HD
BRANCH  28  30
ATOM     30  C   UNL d   1      21.327 -18.866  -0.006  0.00  0.00     0.084 C 
ATOM     31  C   UNL d   1      20.652 -19.427  -1.249  0.00  0.00     0.025 C 
ATOM     32  C   UNL d   1      19.183 -19.505  -0.900  0.00  0.00     0.002 C 
ATOM     33  C   UNL d   1      19.136 -19.748   0.601  0.00  0.00     0.002 C 
ATOM     34  C   UNL d   1      20.578 -19.616   1.107  0.00  0.00     0.025 C 
ENDBRANCH  28  30
ENDBRANCH  25  26
ENDBRANCH  24  25
ENDBRANCH   1  24
TORSDOF 9
ENDMDL
MODEL 6
REMARK VINA RESULT:    -9.566      6.773     10.781
REMARK INTER + INTRA:         -13.363
REMARK INTER:                 -12.251
REMARK INTRA:                  -1.112
REMARK CONF_INDEPENDENT:        2.685
REMARK UNBOUND:                -1.112
REMARK  9 active torsions:
REMARK  status: ('A' for Active; 'I' for Inactive)
REMARK    1  A    between atoms: C_2  and  C_3 
REMARK       I    between atoms: C_2  and  N_26 
REMARK    2  A    between atoms: C_3  and  S_4 
REMARK    3  A    between atoms: S_4  and  C_5 
REMARK    4  A    between atoms: C_8  and  N_9 
REMARK    5  A    between atoms: N_9  and  N_10 
REMARK    6  A    between atoms: C_11  and  C_12 
REMARK    7  A    between atoms: C_16  and  O_17 
REMARK    8  A    between atoms: O_17  and  C_18 
REMARK    9  A    between atoms: N_26  and  C_27 
ROOT
ATOM      1  C   UNL d   1      31.451 -18.151  -2.417  0.00  0.00     0.226 A 
ATOM      2  N   UNL d   1      31.590 -19.191  -1.584  0.00  0.00    -0.132 NA
ATOM      3  N   UNL d   1      30.871 -18.782  -0.520  0.00  0.00    -0.103 N 
ATOM      4  C   UNL d   1      30.340 -17.532  -0.711  0.00  0.00     0.739 A 
ATOM      5  N   UNL d   1      30.719 -17.114  -1.905  0.00  0.00    -0.034 NA
ATOM      6  H   UNL d   1      30.772 -19.403   0.273  0.00  0.00     0.208 HD
ENDROOT
BRANCH   4   7
ATOM      7  N   UNL d   1      29.562 -16.920   0.230  0.00  0.00    -0.106 N 
ATOM      8  H   UNL d   1      29.924 -16.714   1.160  0.00  0.00     0.208 HD
BRANCH   7   9
ATOM      9  N   UNL d   1      28.256 -16.636  -0.044  0.00  0.00    -0.172 NA
ATOM     10  C   UNL d   1      27.358 -17.558   0.103  0.00  0.00     0.150 C 
BRANCH  10  11
ATOM     11  C   UNL d   1      25.944 -17.269  -0.247  0.00  0.00    -0.014 A 
ATOM     12  C   UNL d   1      24.876 -18.053   0.187  0.00  0.00     0.013 A 
ATOM     13  C   UNL d   1      23.589 -17.807  -0.316  0.00  0.00     0.004 A 
ATOM     14  C   UNL d   1      23.372 -16.763  -1.225  0.00  0.00     0.037 A 
ATOM     15  C   UNL d   1      24.442 -15.966  -1.638  0.00  0.00     0.076 A 
ATOM     16  C   UNL d   1      25.714 -16.207  -1.116  0.00  0.00     0.050 A 
BRANCH  15  17
ATOM     17  O   UNL d   1      24.165 -14.971  -2.551  0.00  0.00    -0.311 OA
BRANCH  17  18
ATOM     18  C   UNL d   1      25.154 -14.596  -3.437  0.00  0.00     0.076 A 
ATOM     19  C   UNL d   1      25.367 -13.231  -3.613  0.00  0.00     0.037 A 
ATOM     20  C   UNL d   1      26.323 -12.792  -4.530  0.00  0.00     0.003 A 
ATOM     21  C   UNL d   1      27.118 -13.717  -5.211  0.00  0.00     0.000 A 
ATOM     22  C   UNL d   1      26.915 -15.083  -5.026  0.00  0.00     0.003 A 
ATOM     23  C   UNL d   1      25.902 -15.523  -4.174  0.00  0.00     0.037 A 
ENDBRANCH  17  18
ENDBRANCH  15  17
ENDBRANCH  10  11
ENDBRANCH   7   9
ENDBRANCH   4   7
BRANCH   1  24
ATOM     24  S   UNL d   1      31.914 -18.279  -4.104  0.00  0.00    -0.079 SA
BRANCH  24  25
ATOM     25  C   UNL d   1      30.418 -18.903  -4.923  0.00  0.00     0.185 C 
BRANCH  25  26
ATOM     26  C   UNL d   1      30.527 -20.386  -5.326  0.00  0.00     0.227 C 
ATOM     27  O   UNL d   1      30.420 -21.329  -4.530  0.00  0.00    -0.273 OA
ATOM     28  N   UNL d   1      30.781 -20.714  -6.641  0.00  0.00    -0.356 N 
ATOM     29  H   UNL d   1      30.786 -21.717  -6.803  0.00  0.00     0.162 HD
BRANCH  28  30
ATOM     30  C   UNL d   1      30.923 -19.826  -7.785  0.00  0.00     0.084 C 
ATOM     31  C   UNL d   1      31.962 -18.740  -7.544  0.00  0.00     0.025 C 
ATOM     32  C   UNL d   1      32.293 -18.199  -8.917  0.00  0.00     0.002 C 
ATOM     33  C   UNL d   1      32.101 -19.369  -9.870  0.00  0.00     0.002 C 
ATOM     34  C   UNL d   1      31.483 -20.504  -9.044  0.00  0.00     0.025 C 
ENDBRANCH  28  30
ENDBRANCH  25  26
ENDBRANCH  24  25
ENDBRANCH   1  24
TORSDOF 9
ENDMDL
MODEL 7
REMARK VINA RESULT:    -9.263      6.837     10.131
REMARK INTER + INTRA:         -13.414
REMARK INTER:                 -11.948
REMARK INTRA:                  -1.466
REMARK CONF_INDEPENDENT:        2.685
REMARK UNBOUND:                -1.466
REMARK  9 active torsions:
REMARK  status: ('A' for Active; 'I' for Inactive)
REMARK    1  A    between atoms: C_2  and  C_3 
REMARK       I    between atoms: C_2  and  N_26 
REMARK    2  A    between atoms: C_3  and  S_4 
REMARK    3  A    between atoms: S_4  and  C_5 
REMARK    4  A    between atoms: C_8  and  N_9 
REMARK    5  A    between atoms: N_9  and  N_10 
REMARK    6  A    between atoms: C_11  and  C_12 
REMARK    7  A    between atoms: C_16  and  O_17 
REMARK    8  A    between atoms: O_17  and  C_18 
REMARK    9  A    between atoms: N_26  and  C_27 
ROOT
ATOM      1  C   UNL d   1      31.472 -18.651  -2.421  0.00  0.00     0.226 A 
ATOM      2  N   UNL d   1      31.487 -19.646  -1.523  0.00  0.00    -0.132 NA
ATOM      3  N   UNL d   1      30.779 -19.107  -0.511  0.00  0.00    -0.103 N 
ATOM      4  C   UNL d   1      30.375 -17.827  -0.793  0.00  0.00     0.739 A 
ATOM      5  N   UNL d   1      30.827 -17.520  -1.996  0.00  0.00    -0.034 NA
ATOM      6  H   UNL d   1      30.598 -19.666   0.314  0.00  0.00     0.208 HD
ENDROOT
BRANCH   4   7
ATOM      7  N   UNL d   1      29.632 -17.088   0.083  0.00  0.00    -0.106 N 
ATOM      8  H   UNL d   1      30.017 -16.787   0.977  0.00  0.00     0.208 HD
BRANCH   7   9
ATOM      9  N   UNL d   1      28.329 -16.800  -0.201  0.00  0.00    -0.172 NA
ATOM     10  C   UNL d   1      27.405 -17.655   0.103  0.00  0.00     0.150 C 
BRANCH  10  11
ATOM     11  C   UNL d   1      25.993 -17.369  -0.255  0.00  0.00    -0.014 A 
ATOM     12  C   UNL d   1      24.931 -18.196   0.113  0.00  0.00     0.013 A 
ATOM     13  C   UNL d   1      23.649 -17.941  -0.398  0.00  0.00     0.004 A 
ATOM     14  C   UNL d   1      23.429 -16.850  -1.248  0.00  0.00     0.037 A 
ATOM     15  C   UNL d   1      24.492 -16.012  -1.595  0.00  0.00     0.076 A 
ATOM     16  C   UNL d   1      25.758 -16.262  -1.064  0.00  0.00     0.050 A 
BRANCH  15  17
ATOM     17  O   UNL d   1      24.213 -14.970  -2.452  0.00  0.00    -0.311 OA
BRANCH  17  18
ATOM     18  C   UNL d   1      25.157 -14.623  -3.396  0.00  0.00     0.076 A 
ATOM     19  C   UNL d   1      25.326 -13.266  -3.660  0.00  0.00     0.037 A 
ATOM     20  C   UNL d   1      26.235 -12.858  -4.638  0.00  0.00     0.003 A 
ATOM     21  C   UNL d   1      27.030 -13.801  -5.293  0.00  0.00     0.000 A 
ATOM     22  C   UNL d   1      26.871 -15.158  -5.021  0.00  0.00     0.003 A 
ATOM     23  C   UNL d   1      25.903 -15.573  -4.106  0.00  0.00     0.037 A 
ENDBRANCH  17  18
ENDBRANCH  15  17
ENDBRANCH  10  11
ENDBRANCH   7   9
ENDBRANCH   4   7
BRANCH   1  24
ATOM     24  S   UNL d   1      31.969 -18.925  -4.079  0.00  0.00    -0.079 SA
BRANCH  24  25
ATOM     25  C   UNL d   1      30.405 -18.995  -5.000  0.00  0.00     0.185 C 
BRANCH  25  26
ATOM     26  C   UNL d   1      30.608 -19.049  -6.527  0.00  0.00     0.227 C 
ATOM     27  O   UNL d   1      30.538 -20.088  -7.198  0.00  0.00    -0.273 OA
ATOM     28  N   UNL d   1      30.908 -17.890  -7.212  0.00  0.00    -0.356 N 
ATOM     29  H   UNL d   1      30.974 -18.032  -8.215  0.00  0.00     0.162 HD
BRANCH  28  30
ATOM     30  C   UNL d   1      31.024 -16.536  -6.693  0.00  0.00     0.084 C 
ATOM     31  C   UNL d   1      31.746 -15.609  -7.660  0.00  0.00     0.025 C 
ATOM     32  C   UNL d   1      31.410 -14.211  -7.192  0.00  0.00     0.002 C 
ATOM     33  C   UNL d   1      30.027 -14.314  -6.568  0.00  0.00     0.002 C 
ATOM     34  C   UNL d   1      29.681 -15.808  -6.525  0.00  0.00     0.025 C 
ENDBRANCH  28  30
ENDBRANCH  25  26
ENDBRANCH  24  25
ENDBRANCH   1  24
TORSDOF 9
ENDMDL
MODEL 8
REMARK VINA RESULT:    -8.597      6.528      9.593
REMARK INTER + INTRA:         -13.360
REMARK INTER:                 -11.282
REMARK INTRA:                  -2.079
REMARK CONF_INDEPENDENT:        2.685
REMARK UNBOUND:                -2.079
REMARK  9 active torsions:
REMARK  status: ('A' for Active; 'I' for Inactive)
REMARK    1  A    between atoms: C_2  and  C_3 
REMARK       I    between atoms: C_2  and  N_26 
REMARK    2  A    between atoms: C_3  and  S_4 
REMARK    3  A    between atoms: S_4  and  C_5 
REMARK    4  A    between atoms: C_8  and  N_9 
REMARK    5  A    between atoms: N_9  and  N_10 
REMARK    6  A    between atoms: C_11  and  C_12 
REMARK    7  A    between atoms: C_16  and  O_17 
REMARK    8  A    between atoms: O_17  and  C_18 
REMARK    9  A    between atoms: N_26  and  C_27 
ROOT
ATOM      1  C   UNL d   1      32.096 -17.199  -1.866  0.00  0.00     0.226 A 
ATOM      2  N   UNL d   1      31.956 -18.411  -1.312  0.00  0.00    -0.132 NA
ATOM      3  N   UNL d   1      31.052 -18.163  -0.345  0.00  0.00    -0.103 N 
ATOM      4  C   UNL d   1      30.684 -16.842  -0.314  0.00  0.00     0.739 A 
ATOM      5  N   UNL d   1      31.356 -16.217  -1.264  0.00  0.00    -0.034 NA
ATOM      6  H   UNL d   1      30.725 -18.930   0.230  0.00  0.00     0.208 HD
ENDROOT
BRANCH   4   7
ATOM      7  N   UNL d   1      29.767 -16.363   0.578  0.00  0.00    -0.106 N 
ATOM      8  H   UNL d   1      30.026 -16.158   1.541  0.00  0.00     0.208 HD
BRANCH   7   9
ATOM      9  N   UNL d   1      28.463 -16.216   0.203  0.00  0.00    -0.172 NA
ATOM     10  C   UNL d   1      27.662 -17.231   0.267  0.00  0.00     0.150 C 
BRANCH  10  11
ATOM     11  C   UNL d   1      26.257 -17.089  -0.192  0.00  0.00    -0.014 A 
ATOM     12  C   UNL d   1      25.228 -17.929   0.233  0.00  0.00     0.013 A 
ATOM     13  C   UNL d   1      23.963 -17.829  -0.367  0.00  0.00     0.004 A 
ATOM     14  C   UNL d   1      23.725 -16.874  -1.364  0.00  0.00     0.037 A 
ATOM     15  C   UNL d   1      24.754 -16.021  -1.770  0.00  0.00     0.076 A 
ATOM     16  C   UNL d   1      26.002 -16.115  -1.152  0.00  0.00     0.050 A 
BRANCH  15  17
ATOM     17  O   UNL d   1      24.462 -15.120  -2.772  0.00  0.00    -0.311 OA
BRANCH  17  18
ATOM     18  C   UNL d   1      25.502 -14.590  -3.506  0.00  0.00     0.076 A 
ATOM     19  C   UNL d   1      25.905 -15.291  -4.639  0.00  0.00     0.037 A 
ATOM     20  C   UNL d   1      26.983 -14.826  -5.394  0.00  0.00     0.003 A 
ATOM     21  C   UNL d   1      27.603 -13.620  -5.062  0.00  0.00     0.000 A 
ATOM     22  C   UNL d   1      27.193 -12.910  -3.936  0.00  0.00     0.003 A 
ATOM     23  C   UNL d   1      26.173 -13.418  -3.131  0.00  0.00     0.037 A 
ENDBRANCH  17  18
ENDBRANCH  15  17
ENDBRANCH  10  11
ENDBRANCH   7   9
ENDBRANCH   4   7
BRANCH   1  24
ATOM     24  S   UNL d   1      32.916 -16.997  -3.403  0.00  0.00    -0.079 SA
BRANCH  24  25
ATOM     25  C   UNL d   1      31.792 -15.944  -4.365  0.00  0.00     0.185 C 
BRANCH  25  26
ATOM     26  C   UNL d   1      30.335 -16.443  -4.345  0.00  0.00     0.227 C 
ATOM     27  O   UNL d   1      29.420 -15.886  -3.720  0.00  0.00    -0.273 OA
ATOM     28  N   UNL d   1      30.001 -17.588  -5.037  0.00  0.00    -0.356 N 
ATOM     29  H   UNL d   1      29.009 -17.799  -4.995  0.00  0.00     0.162 HD
BRANCH  28  30
ATOM     30  C   UNL d   1      30.853 -18.422  -5.872  0.00  0.00     0.084 C 
ATOM     31  C   UNL d   1      30.405 -19.876  -5.880  0.00  0.00     0.025 C 
ATOM     32  C   UNL d   1      31.088 -20.493  -7.079  0.00  0.00     0.002 C 
ATOM     33  C   UNL d   1      31.232 -19.364  -8.089  0.00  0.00     0.002 C 
ATOM     34  C   UNL d   1      30.797 -18.081  -7.369  0.00  0.00     0.025 C 
ENDBRANCH  28  30
ENDBRANCH  25  26
ENDBRANCH  24  25
ENDBRANCH   1  24
TORSDOF 9
ENDMDL
MODEL 9
REMARK VINA RESULT:    -8.007      5.122      7.251
REMARK INTER + INTRA:         -13.658
REMARK INTER:                 -10.692
REMARK INTRA:                  -2.966
REMARK CONF_INDEPENDENT:        2.685
REMARK UNBOUND:                -2.966
REMARK  9 active torsions:
REMARK  status: ('A' for Active; 'I' for Inactive)
REMARK    1  A    between atoms: C_2  and  C_3 
REMARK       I    between atoms: C_2  and  N_26 
REMARK    2  A    between atoms: C_3  and  S_4 
REMARK    3  A    between atoms: S_4  and  C_5 
REMARK    4  A    between atoms: C_8  and  N_9 
REMARK    5  A    between atoms: N_9  and  N_10 
REMARK    6  A    between atoms: C_11  and  C_12 
REMARK    7  A    between atoms: C_16  and  O_17 
REMARK    8  A    between atoms: O_17  and  C_18 
REMARK    9  A    between atoms: N_26  and  C_27 
ROOT
ATOM      1  C   UNL d   1      28.706 -14.747   1.350  0.00  0.00     0.226 A 
ATOM      2  N   UNL d   1      29.967 -14.334   1.530  0.00  0.00    -0.132 NA
ATOM      3  N   UNL d   1      30.664 -15.339   0.964  0.00  0.00    -0.103 N 
ATOM      4  C   UNL d   1      29.842 -16.324   0.482  0.00  0.00     0.739 A 
ATOM      5  N   UNL d   1      28.596 -15.968   0.740  0.00  0.00    -0.034 NA
ATOM      6  H   UNL d   1      31.674 -15.275   0.926  0.00  0.00     0.208 HD
ENDROOT
BRANCH   4   7
ATOM      7  N   UNL d   1      30.328 -17.436  -0.145  0.00  0.00    -0.106 N 
ATOM      8  H   UNL d   1      30.779 -18.182   0.380  0.00  0.00     0.208 HD
BRANCH   7   9
ATOM      9  N   UNL d   1      30.276 -17.529  -1.506  0.00  0.00    -0.172 NA
ATOM     10  C   UNL d   1      30.366 -16.455  -2.224  0.00  0.00     0.150 C 
BRANCH  10  11
ATOM     11  C   UNL d   1      30.254 -16.547  -3.701  0.00  0.00    -0.014 A 
ATOM     12  C   UNL d   1      31.238 -17.123  -4.505  0.00  0.00     0.013 A 
ATOM     13  C   UNL d   1      31.130 -17.030  -5.902  0.00  0.00     0.004 A 
ATOM     14  C   UNL d   1      30.030 -16.389  -6.486  0.00  0.00     0.037 A 
ATOM     15  C   UNL d   1      29.037 -15.834  -5.675  0.00  0.00     0.076 A 
ATOM     16  C   UNL d   1      29.143 -15.951  -4.289  0.00  0.00     0.050 A 
BRANCH  15  17
ATOM     17  O   UNL d   1      27.993 -15.197  -6.312  0.00  0.00    -0.311 OA
BRANCH  17  18
ATOM     18  C   UNL d   1      27.068 -14.520  -5.545  0.00  0.00     0.076 A 
ATOM     19  C   UNL d   1      27.163 -13.132  -5.508  0.00  0.00     0.037 A 
ATOM     20  C   UNL d   1      26.281 -12.398  -4.713  0.00  0.00     0.003 A 
ATOM     21  C   UNL d   1      25.257 -13.046  -4.019  0.00  0.00     0.000 A 
ATOM     22  C   UNL d   1      25.153 -14.434  -4.065  0.00  0.00     0.003 A 
ATOM     23  C   UNL d   1      26.085 -15.176  -4.790  0.00  0.00     0.037 A 
ENDBRANCH  17  18
ENDBRANCH  15  17
ENDBRANCH  10  11
ENDBRANCH   7   9
ENDBRANCH   4   7
BRANCH   1  24
ATOM     24  S   UNL d   1      27.354 -13.659   1.603  0.00  0.00    -0.079 SA
BRANCH  24  25
ATOM     25  C   UNL d   1      26.671 -13.414  -0.062  0.00  0.00     0.185 C 
BRANCH  25  26
ATOM     26  C   UNL d   1      27.339 -14.307  -1.125  0.00  0.00     0.227 C 
ATOM     27  O   UNL d   1      28.339 -13.976  -1.778  0.00  0.00    -0.273 OA
ATOM     28  N   UNL d   1      26.801 -15.546  -1.403  0.00  0.00    -0.356 N 
ATOM     29  H   UNL d   1      27.346 -16.068  -2.084  0.00  0.00     0.162 HD
BRANCH  28  30
ATOM     30  C   UNL d   1      25.661 -16.199  -0.779  0.00  0.00     0.084 C 
ATOM     31  C   UNL d   1      24.710 -16.801  -1.803  0.00  0.00     0.025 C 
ATOM     32  C   UNL d   1      23.856 -17.775  -1.025  0.00  0.00     0.002 C 
ATOM     33  C   UNL d   1      24.741 -18.278   0.105  0.00  0.00     0.002 C 
ATOM     34  C   UNL d   1      26.024 -17.437   0.057  0.00  0.00     0.025 C 
ENDBRANCH  28  30
ENDBRANCH  25  26
ENDBRANCH  24  25
ENDBRANCH   1  24
TORSDOF 9
ENDMDL
