MODEL 1
REMARK VINA RESULT:    -9.466      0.000      0.000
REMARK INTER + INTRA:         -15.266
REMARK INTER:                 -12.747
REMARK INTRA:                  -2.519
REMARK CONF_INDEPENDENT:        3.281
REMARK UNBOUND:                -2.519
REMARK  11 active torsions:
REMARK  status: ('A' for Active; 'I' for Inactive)
REMARK    1  A    between atoms: C_2  and  N_3 
REMARK    2  A    between atoms: N_3  and  C_4 
REMARK    3  A    between atoms: N_3  and  C_6 
REMARK    4  A    between atoms: C_9  and  C_10 
REMARK    5  A    between atoms: C_11  and  N_12 
REMARK    6  A    between atoms: C_11  and  C_22 
REMARK       I    between atoms: N_12  and  C_13 
REMARK    7  A    between atoms: C_13  and  C_15 
REMARK       I    between atoms: C_22  and  N_24 
REMARK    8  A    between atoms: N_24  and  N_25 
REMARK    9  A    between atoms: C_26  and  C_27 
REMARK   10  A    between atoms: C_31  and  O_32 
REMARK   11  A    between atoms: C_34  and  O_35 
ROOT
ATOM      1  C   UNL d   1      27.187 -12.820  -5.156  0.00  0.00     0.046 C 
ATOM      2  C   UNL d   1      26.017 -12.481  -4.531  0.00  0.00     0.106 C 
ENDROOT
BRANCH   2   3
ATOM      3  N   UNL d   1      25.532 -11.160  -4.556  0.00  0.00    -0.318 N 
ATOM      4  C   UNL d   1      26.210 -10.001  -4.913  0.00  0.00     0.258 C 
ATOM      5  O   UNL d   1      27.381  -9.932  -5.320  0.00  0.00    -0.267 OA
ATOM      6  H   UNL d   1      24.565 -11.040  -4.281  0.00  0.00     0.169 HD
BRANCH   4   7
ATOM      7  C   UNL d   1      25.510  -8.693  -4.821  0.00  0.00     0.054 A 
ATOM      8  C   UNL d   1      24.701  -8.314  -5.915  0.00  0.00     0.019 A 
ATOM      9  C   UNL d   1      24.216  -7.008  -6.031  0.00  0.00     0.001 A 
ATOM     10  C   UNL d   1      24.475  -6.086  -5.024  0.00  0.00     0.002 A 
ATOM     11  C   UNL d   1      25.247  -6.459  -3.922  0.00  0.00     0.025 A 
ATOM     12  C   UNL d   1      25.768  -7.756  -3.815  0.00  0.00     0.049 A 
ATOM     13 CL   UNL d   1      26.745  -8.095  -2.432  0.00  0.00    -0.083 Cl
ENDBRANCH   4   7
ENDBRANCH   2   3
BRANCH   2  14
ATOM     14  C   UNL d   1      25.139 -13.553  -3.829  0.00  0.00     0.288 C 
ATOM     15  O   UNL d   1      23.983 -13.769  -4.189  0.00  0.00    -0.264 OA
ATOM     16  N   UNL d   1      25.574 -14.232  -2.696  0.00  0.00    -0.242 N 
ATOM     17  H   UNL d   1      26.338 -13.968  -2.098  0.00  0.00     0.192 HD
BRANCH  16  18
ATOM     18  N   UNL d   1      24.758 -15.285  -2.341  0.00  0.00    -0.183 NA
ATOM     19  C   UNL d   1      24.789 -15.805  -1.162  0.00  0.00     0.153 C 
BRANCH  19  20
ATOM     20  C   UNL d   1      23.951 -16.992  -0.834  0.00  0.00     0.019 A 
ATOM     21  C   UNL d   1      24.580 -18.215  -0.588  0.00  0.00     0.016 A 
ATOM     22  C   UNL d   1      23.811 -19.371  -0.463  0.00  0.00     0.004 A 
ATOM     23  C   UNL d   1      22.415 -19.290  -0.502  0.00  0.00     0.040 A 
ATOM     24  C   UNL d   1      21.760 -18.062  -0.717  0.00  0.00     0.102 A 
ATOM     25  C   UNL d   1      22.545 -16.909  -0.895  0.00  0.00     0.110 A 
BRANCH  24  26
ATOM     26  O   UNL d   1      20.396 -18.200  -0.791  0.00  0.00    -0.353 OA
ATOM     27  C   UNL d   1      19.844 -19.493  -0.608  0.00  0.00     0.210 C 
ENDBRANCH  24  26
BRANCH  25  28
ATOM     28  O   UNL d   1      22.054 -15.688  -1.270  0.00  0.00    -0.357 OA
ATOM     29  H   UNL d   1      22.624 -15.225  -1.891  0.00  0.00     0.217 HD
ENDBRANCH  25  28
ENDBRANCH  19  20
ENDBRANCH  16  18
ENDBRANCH   2  14
BRANCH   1  30
ATOM     30  C   UNL d   1      27.931 -14.102  -5.318  0.00  0.00    -0.034 C 
ATOM     31  C   UNL d   1      28.165 -15.000  -4.274  0.00  0.00     0.013 C 
ATOM     32  C   UNL d   1      29.039 -16.102  -4.457  0.00  0.00     0.030 C 
ATOM     33  C   UNL d   1      29.713 -16.331  -5.672  0.00  0.00     0.030 C 
ATOM     34  C   UNL d   1      29.414 -15.456  -6.700  0.00  0.00     0.030 C 
ATOM     35  C   UNL d   1      28.425 -14.499  -6.543  0.00  0.00     0.013 C 
BRANCH  33  36
ATOM     36  N   UNL d   1      30.546 -17.456  -5.892  0.00  0.00    -0.382 N 
BRANCH  36  37
ATOM     37  C   UNL d   1      30.409 -18.542  -4.893  0.00  0.00     0.118 C 
ATOM     38  C   UNL d   1      30.446 -19.970  -5.386  0.00  0.00     0.026 C 
ENDBRANCH  36  37
BRANCH  36  39
ATOM     39  C   UNL d   1      31.720 -17.123  -6.722  0.00  0.00     0.118 C 
ATOM     40  C   UNL d   1      31.816 -17.765  -8.088  0.00  0.00     0.026 C 
ENDBRANCH  36  39
ENDBRANCH  33  36
ENDBRANCH   1  30
TORSDOF 11
ENDMDL
MODEL 2
REMARK VINA RESULT:    -8.940      1.418      1.960
REMARK INTER + INTRA:         -15.236
REMARK INTER:                 -12.222
REMARK INTRA:                  -3.014
REMARK CONF_INDEPENDENT:        3.281
REMARK UNBOUND:                -3.014
REMARK  11 active torsions:
REMARK  status: ('A' for Active; 'I' for Inactive)
REMARK    1  A    between atoms: C_2  and  N_3 
REMARK    2  A    between atoms: N_3  and  C_4 
REMARK    3  A    between atoms: N_3  and  C_6 
REMARK    4  A    between atoms: C_9  and  C_10 
REMARK    5  A    between atoms: C_11  and  N_12 
REMARK    6  A    between atoms: C_11  and  C_22 
REMARK       I    between atoms: N_12  and  C_13 
REMARK    7  A    between atoms: C_13  and  C_15 
REMARK       I    between atoms: C_22  and  N_24 
REMARK    8  A    between atoms: N_24  and  N_25 
REMARK    9  A    between atoms: C_26  and  C_27 
REMARK   10  A    between atoms: C_31  and  O_32 
REMARK   11  A    between atoms: C_34  and  O_35 
ROOT
ATOM      1  C   UNL d   1      27.373 -12.992  -5.960  0.00  0.00     0.046 C 
ATOM      2  C   UNL d   1      26.328 -12.515  -5.215  0.00  0.00     0.106 C 
ENDROOT
BRANCH   2   3
ATOM      3  N   UNL d   1      25.728 -11.276  -5.507  0.00  0.00    -0.318 N 
ATOM      4  C   UNL d   1      26.300 -10.010  -5.456  0.00  0.00     0.258 C 
ATOM      5  O   UNL d   1      27.480  -9.749  -5.176  0.00  0.00    -0.267 OA
ATOM      6  H   UNL d   1      24.758 -11.312  -5.791  0.00  0.00     0.169 HD
BRANCH   4   7
ATOM      7  C   UNL d   1      25.460  -8.823  -5.764  0.00  0.00     0.054 A 
ATOM      8  C   UNL d   1      24.395  -8.537  -4.882  0.00  0.00     0.019 A 
ATOM      9  C   UNL d   1      23.408  -7.609  -5.224  0.00  0.00     0.001 A 
ATOM     10  C   UNL d   1      23.509  -6.905  -6.418  0.00  0.00     0.002 A 
ATOM     11  C   UNL d   1      24.576  -7.156  -7.283  0.00  0.00     0.025 A 
ATOM     12  C   UNL d   1      25.551  -8.112  -6.965  0.00  0.00     0.049 A 
ATOM     13 CL   UNL d   1      26.801  -8.372  -8.128  0.00  0.00    -0.083 Cl
ENDBRANCH   4   7
ENDBRANCH   2   3
BRANCH   2  14
ATOM     14  C   UNL d   1      25.715 -13.354  -4.060  0.00  0.00     0.288 C 
ATOM     15  O   UNL d   1      24.737 -14.077  -4.245  0.00  0.00    -0.264 OA
ATOM     16  N   UNL d   1      26.164 -13.239  -2.750  0.00  0.00    -0.242 N 
ATOM     17  H   UNL d   1      26.723 -12.494  -2.372  0.00  0.00     0.192 HD
BRANCH  16  18
ATOM     18  N   UNL d   1      25.652 -14.205  -1.909  0.00  0.00    -0.183 NA
ATOM     19  C   UNL d   1      26.074 -15.423  -1.933  0.00  0.00     0.153 C 
BRANCH  19  20
ATOM     20  C   UNL d   1      25.446 -16.459  -1.066  0.00  0.00     0.019 A 
ATOM     21  C   UNL d   1      26.258 -17.439  -0.491  0.00  0.00     0.016 A 
ATOM     22  C   UNL d   1      25.672 -18.520   0.168  0.00  0.00     0.004 A 
ATOM     23  C   UNL d   1      24.281 -18.575   0.320  0.00  0.00     0.040 A 
ATOM     24  C   UNL d   1      23.447 -17.579  -0.224  0.00  0.00     0.102 A 
ATOM     25  C   UNL d   1      24.044 -16.522  -0.932  0.00  0.00     0.110 A 
BRANCH  24  26
ATOM     26  O   UNL d   1      22.115 -17.847  -0.028  0.00  0.00    -0.353 OA
ATOM     27  C   UNL d   1      21.477 -18.748  -0.916  0.00  0.00     0.210 C 
ENDBRANCH  24  26
BRANCH  25  28
ATOM     28  O   UNL d   1      23.353 -15.581  -1.647  0.00  0.00    -0.357 OA
ATOM     29  H   UNL d   1      23.841 -15.249  -2.406  0.00  0.00     0.217 HD
ENDBRANCH  25  28
ENDBRANCH  19  20
ENDBRANCH  16  18
ENDBRANCH   2  14
BRANCH   1  30
ATOM     30  C   UNL d   1      28.185 -14.241  -5.911  0.00  0.00    -0.034 C 
ATOM     31  C   UNL d   1      28.197 -15.116  -4.822  0.00  0.00     0.013 C 
ATOM     32  C   UNL d   1      29.132 -16.181  -4.767  0.00  0.00     0.030 C 
ATOM     33  C   UNL d   1      30.086 -16.395  -5.780  0.00  0.00     0.030 C 
ATOM     34  C   UNL d   1      30.008 -15.547  -6.869  0.00  0.00     0.030 C 
ATOM     35  C   UNL d   1      28.973 -14.632  -6.974  0.00  0.00     0.013 C 
BRANCH  33  36
ATOM     36  N   UNL d   1      30.990 -17.486  -5.770  0.00  0.00    -0.382 N 
BRANCH  36  37
ATOM     37  C   UNL d   1      31.747 -17.686  -7.027  0.00  0.00     0.118 C 
ATOM     38  C   UNL d   1      31.145 -18.584  -8.084  0.00  0.00     0.026 C 
ENDBRANCH  36  37
BRANCH  36  39
ATOM     39  C   UNL d   1      30.633 -18.492  -4.751  0.00  0.00     0.118 C 
ATOM     40  C   UNL d   1      30.409 -19.913  -5.220  0.00  0.00     0.026 C 
ENDBRANCH  36  39
ENDBRANCH  33  36
ENDBRANCH   1  30
TORSDOF 11
ENDMDL
MODEL 3
REMARK VINA RESULT:    -8.886      2.814      7.453
REMARK INTER + INTRA:         -15.139
REMARK INTER:                 -12.168
REMARK INTRA:                  -2.971
REMARK CONF_INDEPENDENT:        3.281
REMARK UNBOUND:                -2.971
REMARK  11 active torsions:
REMARK  status: ('A' for Active; 'I' for Inactive)
REMARK    1  A    between atoms: C_2  and  N_3 
REMARK    2  A    between atoms: N_3  and  C_4 
REMARK    3  A    between atoms: N_3  and  C_6 
REMARK    4  A    between atoms: C_9  and  C_10 
REMARK    5  A    between atoms: C_11  and  N_12 
REMARK    6  A    between atoms: C_11  and  C_22 
REMARK       I    between atoms: N_12  and  C_13 
REMARK    7  A    between atoms: C_13  and  C_15 
REMARK       I    between atoms: C_22  and  N_24 
REMARK    8  A    between atoms: N_24  and  N_25 
REMARK    9  A    between atoms: C_26  and  C_27 
REMARK   10  A    between atoms: C_31  and  O_32 
REMARK   11  A    between atoms: C_34  and  O_35 
ROOT
ATOM      1  C   UNL d   1      25.204 -13.432  -3.509  0.00  0.00     0.046 C 
ATOM      2  C   UNL d   1      25.849 -13.308  -4.710  0.00  0.00     0.106 C 
ENDROOT
BRANCH   2   3
ATOM      3  N   UNL d   1      25.727 -12.142  -5.488  0.00  0.00    -0.318 N 
ATOM      4  C   UNL d   1      26.740 -11.350  -6.016  0.00  0.00     0.258 C 
ATOM      5  O   UNL d   1      27.959 -11.562  -5.925  0.00  0.00    -0.267 OA
ATOM      6  H   UNL d   1      24.781 -11.843  -5.689  0.00  0.00     0.169 HD
BRANCH   4   7
ATOM      7  C   UNL d   1      26.381 -10.124  -6.776  0.00  0.00     0.054 A 
ATOM      8  C   UNL d   1      26.859 -10.021  -8.101  0.00  0.00     0.019 A 
ATOM      9  C   UNL d   1      26.793  -8.811  -8.796  0.00  0.00     0.001 A 
ATOM     10  C   UNL d   1      26.186  -7.709  -8.204  0.00  0.00     0.002 A 
ATOM     11  C   UNL d   1      25.680  -7.809  -6.907  0.00  0.00     0.025 A 
ATOM     12  C   UNL d   1      25.776  -9.009  -6.188  0.00  0.00     0.049 A 
ATOM     13 CL   UNL d   1      25.156  -9.007  -4.576  0.00  0.00    -0.083 Cl
ENDBRANCH   4   7
ENDBRANCH   2   3
BRANCH   2  14
ATOM     14  C   UNL d   1      26.799 -14.421  -5.231  0.00  0.00     0.288 C 
ATOM     15  O   UNL d   1      26.406 -15.575  -5.389  0.00  0.00    -0.264 OA
ATOM     16  N   UNL d   1      28.157 -14.194  -5.429  0.00  0.00    -0.242 N 
ATOM     17  H   UNL d   1      28.694 -13.427  -5.065  0.00  0.00     0.192 HD
BRANCH  16  18
ATOM     18  N   UNL d   1      28.793 -15.225  -6.089  0.00  0.00    -0.183 NA
ATOM     19  C   UNL d   1      29.638 -15.996  -5.495  0.00  0.00     0.153 C 
BRANCH  19  20
ATOM     20  C   UNL d   1      30.367 -17.050  -6.254  0.00  0.00     0.019 A 
ATOM     21  C   UNL d   1      30.402 -18.348  -5.741  0.00  0.00     0.016 A 
ATOM     22  C   UNL d   1      31.228 -19.302  -6.336  0.00  0.00     0.004 A 
ATOM     23  C   UNL d   1      31.952 -18.977  -7.489  0.00  0.00     0.040 A 
ATOM     24  C   UNL d   1      31.904 -17.683  -8.042  0.00  0.00     0.102 A 
ATOM     25  C   UNL d   1      31.110 -16.713  -7.404  0.00  0.00     0.110 A 
BRANCH  24  26
ATOM     26  O   UNL d   1      32.733 -17.544  -9.127  0.00  0.00    -0.353 OA
ATOM     27  C   UNL d   1      33.639 -16.454  -9.141  0.00  0.00     0.210 C 
ENDBRANCH  24  26
BRANCH  25  28
ATOM     28  O   UNL d   1      31.096 -15.385  -7.732  0.00  0.00    -0.357 OA
ATOM     29  H   UNL d   1      30.214 -15.002  -7.722  0.00  0.00     0.217 HD
ENDBRANCH  25  28
ENDBRANCH  19  20
ENDBRANCH  16  18
ENDBRANCH   2  14
BRANCH   1  30
ATOM     30  C   UNL d   1      25.151 -14.506  -2.476  0.00  0.00    -0.034 C 
ATOM     31  C   UNL d   1      26.241 -14.875  -1.685  0.00  0.00     0.013 C 
ATOM     32  C   UNL d   1      26.172 -16.027  -0.859  0.00  0.00     0.030 C 
ATOM     33  C   UNL d   1      25.028 -16.847  -0.810  0.00  0.00     0.030 C 
ATOM     34  C   UNL d   1      23.949 -16.420  -1.561  0.00  0.00     0.030 C 
ATOM     35  C   UNL d   1      23.987 -15.200  -2.215  0.00  0.00     0.013 C 
BRANCH  33  36
ATOM     36  N   UNL d   1      24.921 -17.968   0.049  0.00  0.00    -0.382 N 
BRANCH  36  37
ATOM     37  C   UNL d   1      26.103 -18.218   0.906  0.00  0.00     0.118 C 
ATOM     38  C   UNL d   1      27.405 -18.582   0.232  0.00  0.00     0.026 C 
ENDBRANCH  36  37
BRANCH  36  39
ATOM     39  C   UNL d   1      23.923 -18.942  -0.433  0.00  0.00     0.118 C 
ATOM     40  C   UNL d   1      22.466 -18.656  -0.141  0.00  0.00     0.026 C 
ENDBRANCH  36  39
ENDBRANCH  33  36
ENDBRANCH   1  30
TORSDOF 11
ENDMDL
MODEL 4
REMARK VINA RESULT:    -8.479      2.911      7.577
REMARK INTER + INTRA:         -14.671
REMARK INTER:                 -11.760
REMARK INTRA:                  -2.911
REMARK CONF_INDEPENDENT:        3.281
REMARK UNBOUND:                -2.911
REMARK  11 active torsions:
REMARK  status: ('A' for Active; 'I' for Inactive)
REMARK    1  A    between atoms: C_2  and  N_3 
REMARK    2  A    between atoms: N_3  and  C_4 
REMARK    3  A    between atoms: N_3  and  C_6 
REMARK    4  A    between atoms: C_9  and  C_10 
REMARK    5  A    between atoms: C_11  and  N_12 
REMARK    6  A    between atoms: C_11  and  C_22 
REMARK       I    between atoms: N_12  and  C_13 
REMARK    7  A    between atoms: C_13  and  C_15 
REMARK       I    between atoms: C_22  and  N_24 
REMARK    8  A    between atoms: N_24  and  N_25 
REMARK    9  A    between atoms: C_26  and  C_27 
REMARK   10  A    between atoms: C_31  and  O_32 
REMARK   11  A    between atoms: C_34  and  O_35 
ROOT
ATOM      1  C   UNL d   1      25.071 -13.705  -3.647  0.00  0.00     0.046 C 
ATOM      2  C   UNL d   1      25.821 -13.406  -4.753  0.00  0.00     0.106 C 
ENDROOT
BRANCH   2   3
ATOM      3  N   UNL d   1      25.769 -12.133  -5.349  0.00  0.00    -0.318 N 
ATOM      4  C   UNL d   1      26.822 -11.269  -5.624  0.00  0.00     0.258 C 
ATOM      5  O   UNL d   1      28.027 -11.492  -5.423  0.00  0.00    -0.267 OA
ATOM      6  H   UNL d   1      24.849 -11.806  -5.612  0.00  0.00     0.169 HD
BRANCH   4   7
ATOM      7  C   UNL d   1      26.532  -9.939  -6.222  0.00  0.00     0.054 A 
ATOM      8  C   UNL d   1      25.753  -9.042  -5.457  0.00  0.00     0.019 A 
ATOM      9  C   UNL d   1      25.218  -7.886  -6.031  0.00  0.00     0.001 A 
ATOM     10  C   UNL d   1      25.512  -7.576  -7.355  0.00  0.00     0.002 A 
ATOM     11  C   UNL d   1      26.308  -8.438  -8.110  0.00  0.00     0.025 A 
ATOM     12  C   UNL d   1      26.817  -9.619  -7.553  0.00  0.00     0.049 A 
ATOM     13 CL   UNL d   1      27.753 -10.634  -8.591  0.00  0.00    -0.083 Cl
ENDBRANCH   4   7
ENDBRANCH   2   3
BRANCH   2  14
ATOM     14  C   UNL d   1      26.814 -14.439  -5.354  0.00  0.00     0.288 C 
ATOM     15  O   UNL d   1      26.442 -15.561  -5.694  0.00  0.00    -0.264 OA
ATOM     16  N   UNL d   1      28.180 -14.189  -5.426  0.00  0.00    -0.242 N 
ATOM     17  H   UNL d   1      28.685 -13.479  -4.925  0.00  0.00     0.192 HD
BRANCH  16  18
ATOM     18  N   UNL d   1      28.868 -15.121  -6.173  0.00  0.00    -0.183 NA
ATOM     19  C   UNL d   1      29.588 -16.039  -5.625  0.00  0.00     0.153 C 
BRANCH  19  20
ATOM     20  C   UNL d   1      30.382 -16.982  -6.462  0.00  0.00     0.019 A 
ATOM     21  C   UNL d   1      30.410 -18.334  -6.112  0.00  0.00     0.016 A 
ATOM     22  C   UNL d   1      31.289 -19.196  -6.767  0.00  0.00     0.004 A 
ATOM     23  C   UNL d   1      32.075 -18.722  -7.823  0.00  0.00     0.040 A 
ATOM     24  C   UNL d   1      32.037 -17.370  -8.213  0.00  0.00     0.102 A 
ATOM     25  C   UNL d   1      31.187 -16.496  -7.512  0.00  0.00     0.110 A 
BRANCH  24  26
ATOM     26  O   UNL d   1      32.928 -17.088  -9.218  0.00  0.00    -0.353 OA
ATOM     27  C   UNL d   1      34.033 -16.252  -8.918  0.00  0.00     0.210 C 
ENDBRANCH  24  26
BRANCH  25  28
ATOM     28  O   UNL d   1      31.168 -15.138  -7.673  0.00  0.00    -0.357 OA
ATOM     29  H   UNL d   1      30.282 -14.782  -7.786  0.00  0.00     0.217 HD
ENDBRANCH  25  28
ENDBRANCH  19  20
ENDBRANCH  16  18
ENDBRANCH   2  14
BRANCH   1  30
ATOM     30  C   UNL d   1      24.925 -14.924  -2.802  0.00  0.00    -0.034 C 
ATOM     31  C   UNL d   1      23.797 -15.200  -2.027  0.00  0.00     0.013 C 
ATOM     32  C   UNL d   1      23.805 -16.279  -1.105  0.00  0.00     0.030 C 
ATOM     33  C   UNL d   1      24.936 -17.097  -0.918  0.00  0.00     0.030 C 
ATOM     34  C   UNL d   1      26.014 -16.831  -1.741  0.00  0.00     0.030 C 
ATOM     35  C   UNL d   1      25.911 -15.888  -2.751  0.00  0.00     0.013 C 
BRANCH  33  36
ATOM     36  N   UNL d   1      24.944 -18.211  -0.043  0.00  0.00    -0.382 N 
BRANCH  36  37
ATOM     37  C   UNL d   1      23.624 -18.575   0.522  0.00  0.00     0.118 C 
ATOM     38  C   UNL d   1      22.589 -19.162  -0.410  0.00  0.00     0.026 C 
ENDBRANCH  36  37
BRANCH  36  39
ATOM     39  C   UNL d   1      26.281 -18.452   0.534  0.00  0.00     0.118 C 
ATOM     40  C   UNL d   1      27.078 -17.247   0.981  0.00  0.00     0.026 C 
ENDBRANCH  36  39
ENDBRANCH  33  36
ENDBRANCH   1  30
TORSDOF 11
ENDMDL
MODEL 5
REMARK VINA RESULT:    -8.323      2.444      7.833
REMARK INTER + INTRA:         -14.771
REMARK INTER:                 -11.604
REMARK INTRA:                  -3.167
REMARK CONF_INDEPENDENT:        3.281
REMARK UNBOUND:                -3.167
REMARK  11 active torsions:
REMARK  status: ('A' for Active; 'I' for Inactive)
REMARK    1  A    between atoms: C_2  and  N_3 
REMARK    2  A    between atoms: N_3  and  C_4 
REMARK    3  A    between atoms: N_3  and  C_6 
REMARK    4  A    between atoms: C_9  and  C_10 
REMARK    5  A    between atoms: C_11  and  N_12 
REMARK    6  A    between atoms: C_11  and  C_22 
REMARK       I    between atoms: N_12  and  C_13 
REMARK    7  A    between atoms: C_13  and  C_15 
REMARK       I    between atoms: C_22  and  N_24 
REMARK    8  A    between atoms: N_24  and  N_25 
REMARK    9  A    between atoms: C_26  and  C_27 
REMARK   10  A    between atoms: C_31  and  O_32 
REMARK   11  A    between atoms: C_34  and  O_35 
ROOT
ATOM      1  C   UNL d   1      27.783 -12.864  -6.601  0.00  0.00     0.046 C 
ATOM      2  C   UNL d   1      27.880 -14.175  -6.219  0.00  0.00     0.106 C 
ENDROOT
BRANCH   2   3
ATOM      3  N   UNL d   1      28.855 -15.026  -6.771  0.00  0.00    -0.318 N 
ATOM      4  C   UNL d   1      29.734 -15.872  -6.105  0.00  0.00     0.258 C 
ATOM      5  O   UNL d   1      29.786 -16.059  -4.879  0.00  0.00    -0.267 OA
ATOM      6  H   UNL d   1      28.923 -15.022  -7.780  0.00  0.00     0.169 HD
BRANCH   4   7
ATOM      7  C   UNL d   1      30.722 -16.655  -6.892  0.00  0.00     0.054 A 
ATOM      8  C   UNL d   1      30.719 -18.058  -6.724  0.00  0.00     0.019 A 
ATOM      9  C   UNL d   1      31.765 -18.843  -7.216  0.00  0.00     0.001 A 
ATOM     10  C   UNL d   1      32.790 -18.247  -7.942  0.00  0.00     0.002 A 
ATOM     11  C   UNL d   1      32.786 -16.866  -8.143  0.00  0.00     0.025 A 
ATOM     12  C   UNL d   1      31.760 -16.066  -7.620  0.00  0.00     0.049 A 
ATOM     13 CL   UNL d   1      31.880 -14.365  -7.892  0.00  0.00    -0.083 Cl
ENDBRANCH   4   7
ENDBRANCH   2   3
BRANCH   2  14
ATOM     14  C   UNL d   1      26.964 -14.759  -5.108  0.00  0.00     0.288 C 
ATOM     15  O   UNL d   1      25.739 -14.725  -5.207  0.00  0.00    -0.264 OA
ATOM     16  N   UNL d   1      27.478 -15.237  -3.908  0.00  0.00    -0.242 N 
ATOM     17  H   UNL d   1      28.395 -15.060  -3.538  0.00  0.00     0.192 HD
BRANCH  16  18
ATOM     18  N   UNL d   1      26.546 -15.904  -3.140  0.00  0.00    -0.183 NA
ATOM     19  C   UNL d   1      26.587 -15.888  -1.852  0.00  0.00     0.153 C 
BRANCH  19  20
ATOM     20  C   UNL d   1      25.613 -16.683  -1.053  0.00  0.00     0.019 A 
ATOM     21  C   UNL d   1      26.091 -17.704  -0.228  0.00  0.00     0.016 A 
ATOM     22  C   UNL d   1      25.189 -18.575   0.382  0.00  0.00     0.004 A 
ATOM     23  C   UNL d   1      23.812 -18.373   0.233  0.00  0.00     0.040 A 
ATOM     24  C   UNL d   1      23.310 -17.329  -0.568  0.00  0.00     0.102 A 
ATOM     25  C   UNL d   1      24.227 -16.488  -1.222  0.00  0.00     0.110 A 
BRANCH  24  26
ATOM     26  O   UNL d   1      21.939 -17.339  -0.644  0.00  0.00    -0.353 OA
ATOM     27  C   UNL d   1      21.292 -18.575  -0.892  0.00  0.00     0.210 C 
ENDBRANCH  24  26
BRANCH  25  28
ATOM     28  O   UNL d   1      23.886 -15.544  -2.152  0.00  0.00    -0.357 OA
ATOM     29  H   UNL d   1      24.530 -15.461  -2.862  0.00  0.00     0.217 HD
ENDBRANCH  25  28
ENDBRANCH  19  20
ENDBRANCH  16  18
ENDBRANCH   2  14
BRANCH   1  30
ATOM     30  C   UNL d   1      26.892 -11.739  -6.197  0.00  0.00    -0.034 C 
ATOM     31  C   UNL d   1      26.546 -10.682  -7.042  0.00  0.00     0.013 C 
ATOM     32  C   UNL d   1      25.851  -9.554  -6.534  0.00  0.00     0.030 C 
ATOM     33  C   UNL d   1      25.497  -9.440  -5.175  0.00  0.00     0.030 C 
ATOM     34  C   UNL d   1      25.804 -10.529  -4.381  0.00  0.00     0.030 C 
ATOM     35  C   UNL d   1      26.321 -11.685  -4.941  0.00  0.00     0.013 C 
BRANCH  33  36
ATOM     36  N   UNL d   1      24.755  -8.349  -4.662  0.00  0.00    -0.382 N 
BRANCH  36  37
ATOM     37  C   UNL d   1      23.478  -8.074  -5.360  0.00  0.00     0.118 C 
ATOM     38  C   UNL d   1      22.949  -6.658  -5.344  0.00  0.00     0.026 C 
ENDBRANCH  36  37
BRANCH  36  39
ATOM     39  C   UNL d   1      25.605  -7.404  -3.913  0.00  0.00     0.118 C 
ATOM     40  C   UNL d   1      25.903  -7.725  -2.465  0.00  0.00     0.026 C 
ENDBRANCH  36  39
ENDBRANCH  33  36
ENDBRANCH   1  30
TORSDOF 11
ENDMDL
MODEL 6
REMARK VINA RESULT:    -8.103      2.908      7.566
REMARK INTER + INTRA:         -14.553
REMARK INTER:                 -11.384
REMARK INTRA:                  -3.169
REMARK CONF_INDEPENDENT:        3.281
REMARK UNBOUND:                -3.169
REMARK  11 active torsions:
REMARK  status: ('A' for Active; 'I' for Inactive)
REMARK    1  A    between atoms: C_2  and  N_3 
REMARK    2  A    between atoms: N_3  and  C_4 
REMARK    3  A    between atoms: N_3  and  C_6 
REMARK    4  A    between atoms: C_9  and  C_10 
REMARK    5  A    between atoms: C_11  and  N_12 
REMARK    6  A    between atoms: C_11  and  C_22 
REMARK       I    between atoms: N_12  and  C_13 
REMARK    7  A    between atoms: C_13  and  C_15 
REMARK       I    between atoms: C_22  and  N_24 
REMARK    8  A    between atoms: N_24  and  N_25 
REMARK    9  A    between atoms: C_26  and  C_27 
REMARK   10  A    between atoms: C_31  and  O_32 
REMARK   11  A    between atoms: C_34  and  O_35 
ROOT
ATOM      1  C   UNL d   1      25.465 -13.598  -3.627  0.00  0.00     0.046 C 
ATOM      2  C   UNL d   1      26.131 -13.303  -4.787  0.00  0.00     0.106 C 
ENDROOT
BRANCH   2   3
ATOM      3  N   UNL d   1      25.909 -12.092  -5.468  0.00  0.00    -0.318 N 
ATOM      4  C   UNL d   1      26.851 -11.177  -5.924  0.00  0.00     0.258 C 
ATOM      5  O   UNL d   1      28.084 -11.291  -5.842  0.00  0.00    -0.267 OA
ATOM      6  H   UNL d   1      24.942 -11.859  -5.651  0.00  0.00     0.169 HD
BRANCH   4   7
ATOM      7  C   UNL d   1      26.388  -9.929  -6.585  0.00  0.00     0.054 A 
ATOM      8  C   UNL d   1      26.820  -9.699  -7.910  0.00  0.00     0.019 A 
ATOM      9  C   UNL d   1      26.652  -8.451  -8.515  0.00  0.00     0.001 A 
ATOM     10  C   UNL d   1      25.990  -7.438  -7.830  0.00  0.00     0.002 A 
ATOM     11  C   UNL d   1      25.529  -7.664  -6.532  0.00  0.00     0.025 A 
ATOM     12  C   UNL d   1      25.727  -8.902  -5.904  0.00  0.00     0.049 A 
ATOM     13 CL   UNL d   1      25.155  -9.056  -4.281  0.00  0.00    -0.083 Cl
ENDBRANCH   4   7
ENDBRANCH   2   3
BRANCH   2  14
ATOM     14  C   UNL d   1      27.210 -14.262  -5.360  0.00  0.00     0.288 C 
ATOM     15  O   UNL d   1      26.949 -15.433  -5.627  0.00  0.00    -0.264 OA
ATOM     16  N   UNL d   1      28.541 -13.878  -5.488  0.00  0.00    -0.242 N 
ATOM     17  H   UNL d   1      28.981 -13.092  -5.042  0.00  0.00     0.192 HD
BRANCH  16  18
ATOM     18  N   UNL d   1      29.303 -14.775  -6.204  0.00  0.00    -0.183 NA
ATOM     19  C   UNL d   1      30.592 -14.752  -6.175  0.00  0.00     0.153 C 
BRANCH  19  20
ATOM     20  C   UNL d   1      31.387 -15.685  -7.021  0.00  0.00     0.019 A 
ATOM     21  C   UNL d   1      32.354 -15.158  -7.880  0.00  0.00     0.016 A 
ATOM     22  C   UNL d   1      32.976 -15.991  -8.810  0.00  0.00     0.004 A 
ATOM     23  C   UNL d   1      32.690 -17.361  -8.822  0.00  0.00     0.040 A 
ATOM     24  C   UNL d   1      31.743 -17.918  -7.942  0.00  0.00     0.102 A 
ATOM     25  C   UNL d   1      31.081 -17.061  -7.044  0.00  0.00     0.110 A 
BRANCH  24  26
ATOM     26  O   UNL d   1      31.553 -19.260  -8.155  0.00  0.00    -0.353 OA
ATOM     27  C   UNL d   1      31.514 -19.726  -9.493  0.00  0.00     0.210 C 
ENDBRANCH  24  26
BRANCH  25  28
ATOM     28  O   UNL d   1      30.030 -17.432  -6.251  0.00  0.00    -0.357 OA
ATOM     29  H   UNL d   1      29.270 -16.848  -6.331  0.00  0.00     0.217 HD
ENDBRANCH  25  28
ENDBRANCH  19  20
ENDBRANCH  16  18
ENDBRANCH   2  14
BRANCH   1  30
ATOM     30  C   UNL d   1      25.495 -14.758  -2.691  0.00  0.00    -0.034 C 
ATOM     31  C   UNL d   1      25.158 -16.061  -3.060  0.00  0.00     0.013 C 
ATOM     32  C   UNL d   1      25.027 -17.076  -2.077  0.00  0.00     0.030 C 
ATOM     33  C   UNL d   1      25.212 -16.819  -0.704  0.00  0.00     0.030 C 
ATOM     34  C   UNL d   1      25.602 -15.532  -0.381  0.00  0.00     0.030 C 
ATOM     35  C   UNL d   1      25.892 -14.614  -1.377  0.00  0.00     0.013 C 
BRANCH  33  36
ATOM     36  N   UNL d   1      25.141 -17.829   0.285  0.00  0.00    -0.382 N 
BRANCH  36  37
ATOM     37  C   UNL d   1      26.449 -18.293   0.803  0.00  0.00     0.118 C 
ATOM     38  C   UNL d   1      27.695 -17.898   0.044  0.00  0.00     0.026 C 
ENDBRANCH  36  37
BRANCH  36  39
ATOM     39  C   UNL d   1      23.868 -18.573   0.227  0.00  0.00     0.118 C 
ATOM     40  C   UNL d   1      22.624 -17.802  -0.155  0.00  0.00     0.026 C 
ENDBRANCH  36  39
ENDBRANCH  33  36
ENDBRANCH   1  30
TORSDOF 11
ENDMDL
MODEL 7
REMARK VINA RESULT:    -8.022      3.024      4.372
REMARK INTER + INTRA:         -14.455
REMARK INTER:                 -11.304
REMARK INTRA:                  -3.152
REMARK CONF_INDEPENDENT:        3.281
REMARK UNBOUND:                -3.152
REMARK  11 active torsions:
REMARK  status: ('A' for Active; 'I' for Inactive)
REMARK    1  A    between atoms: C_2  and  N_3 
REMARK    2  A    between atoms: N_3  and  C_4 
REMARK    3  A    between atoms: N_3  and  C_6 
REMARK    4  A    between atoms: C_9  and  C_10 
REMARK    5  A    between atoms: C_11  and  N_12 
REMARK    6  A    between atoms: C_11  and  C_22 
REMARK       I    between atoms: N_12  and  C_13 
REMARK    7  A    between atoms: C_13  and  C_15 
REMARK       I    between atoms: C_22  and  N_24 
REMARK    8  A    between atoms: N_24  and  N_25 
REMARK    9  A    between atoms: C_26  and  C_27 
REMARK   10  A    between atoms: C_31  and  O_32 
REMARK   11  A    between atoms: C_34  and  O_35 
ROOT
ATOM      1  C   UNL d   1      29.917 -15.959  -6.688  0.00  0.00     0.046 C 
ATOM      2  C   UNL d   1      28.908 -15.059  -6.474  0.00  0.00     0.106 C 
ENDROOT
BRANCH   2   3
ATOM      3  N   UNL d   1      28.669 -14.003  -7.372  0.00  0.00    -0.318 N 
ATOM      4  C   UNL d   1      28.341 -12.684  -7.081  0.00  0.00     0.258 C 
ATOM      5  O   UNL d   1      28.240 -12.186  -5.949  0.00  0.00    -0.267 OA
ATOM      6  H   UNL d   1      28.746 -14.233  -8.354  0.00  0.00     0.169 HD
BRANCH   4   7
ATOM      7  C   UNL d   1      28.084 -11.738  -8.198  0.00  0.00     0.054 A 
ATOM      8  C   UNL d   1      29.014 -11.723  -9.262  0.00  0.00     0.019 A 
ATOM      9  C   UNL d   1      28.997 -10.703 -10.216  0.00  0.00     0.001 A 
ATOM     10  C   UNL d   1      28.011  -9.724 -10.161  0.00  0.00     0.002 A 
ATOM     11  C   UNL d   1      27.067  -9.747  -9.133  0.00  0.00     0.025 A 
ATOM     12  C   UNL d   1      27.099 -10.746  -8.150  0.00  0.00     0.049 A 
ATOM     13 CL   UNL d   1      25.910 -10.652  -6.901  0.00  0.00    -0.083 Cl
ENDBRANCH   4   7
ENDBRANCH   2   3
BRANCH   2  14
ATOM     14  C   UNL d   1      27.940 -15.208  -5.267  0.00  0.00     0.288 C 
ATOM     15  O   UNL d   1      26.777 -15.575  -5.423  0.00  0.00    -0.264 OA
ATOM     16  N   UNL d   1      28.305 -14.824  -3.982  0.00  0.00    -0.242 N 
ATOM     17  H   UNL d   1      29.076 -14.231  -3.731  0.00  0.00     0.192 HD
BRANCH  16  18
ATOM     18  N   UNL d   1      27.405 -15.222  -3.016  0.00  0.00    -0.183 NA
ATOM     19  C   UNL d   1      27.554 -16.320  -2.356  0.00  0.00     0.153 C 
BRANCH  19  20
ATOM     20  C   UNL d   1      26.523 -16.760  -1.375  0.00  0.00     0.019 A 
ATOM     21  C   UNL d   1      26.928 -17.485  -0.251  0.00  0.00     0.016 A 
ATOM     22  C   UNL d   1      25.967 -18.063   0.578  0.00  0.00     0.004 A 
ATOM     23  C   UNL d   1      24.607 -17.846   0.328  0.00  0.00     0.040 A 
ATOM     24  C   UNL d   1      24.179 -17.091  -0.780  0.00  0.00     0.102 A 
ATOM     25  C   UNL d   1      25.154 -16.557  -1.641  0.00  0.00     0.110 A 
BRANCH  24  26
ATOM     26  O   UNL d   1      22.811 -17.051  -0.892  0.00  0.00    -0.353 OA
ATOM     27  C   UNL d   1      22.094 -18.266  -0.756  0.00  0.00     0.210 C 
ENDBRANCH  24  26
BRANCH  25  28
ATOM     28  O   UNL d   1      24.882 -15.946  -2.835  0.00  0.00    -0.357 OA
ATOM     29  H   UNL d   1      25.612 -15.995  -3.460  0.00  0.00     0.217 HD
ENDBRANCH  25  28
ENDBRANCH  19  20
ENDBRANCH  16  18
ENDBRANCH   2  14
BRANCH   1  30
ATOM     30  C   UNL d   1      30.396 -17.162  -5.949  0.00  0.00    -0.034 C 
ATOM     31  C   UNL d   1      30.488 -18.435  -6.516  0.00  0.00     0.013 C 
ATOM     32  C   UNL d   1      30.771 -19.564  -5.704  0.00  0.00     0.030 C 
ATOM     33  C   UNL d   1      30.952 -19.460  -4.311  0.00  0.00     0.030 C 
ATOM     34  C   UNL d   1      30.911 -18.179  -3.793  0.00  0.00     0.030 C 
ATOM     35  C   UNL d   1      30.810 -17.084  -4.634  0.00  0.00     0.013 C 
BRANCH  33  36
ATOM     36  N   UNL d   1      31.290 -20.567  -3.494  0.00  0.00    -0.382 N 
BRANCH  36  37
ATOM     37  C   UNL d   1      32.144 -20.247  -2.327  0.00  0.00     0.118 C 
ATOM     38  C   UNL d   1      31.465 -19.854  -1.035  0.00  0.00     0.026 C 
ENDBRANCH  36  37
BRANCH  36  39
ATOM     39  C   UNL d   1      31.181 -21.847  -4.221  0.00  0.00     0.118 C 
ATOM     40  C   UNL d   1      30.524 -23.006  -3.505  0.00  0.00     0.026 C 
ENDBRANCH  36  39
ENDBRANCH  33  36
ENDBRANCH   1  30
TORSDOF 11
ENDMDL
MODEL 8
REMARK VINA RESULT:    -7.694      2.917      7.496
REMARK INTER + INTRA:         -14.200
REMARK INTER:                 -10.975
REMARK INTRA:                  -3.226
REMARK CONF_INDEPENDENT:        3.281
REMARK UNBOUND:                -3.226
REMARK  11 active torsions:
REMARK  status: ('A' for Active; 'I' for Inactive)
REMARK    1  A    between atoms: C_2  and  N_3 
REMARK    2  A    between atoms: N_3  and  C_4 
REMARK    3  A    between atoms: N_3  and  C_6 
REMARK    4  A    between atoms: C_9  and  C_10 
REMARK    5  A    between atoms: C_11  and  N_12 
REMARK    6  A    between atoms: C_11  and  C_22 
REMARK       I    between atoms: N_12  and  C_13 
REMARK    7  A    between atoms: C_13  and  C_15 
REMARK       I    between atoms: C_22  and  N_24 
REMARK    8  A    between atoms: N_24  and  N_25 
REMARK    9  A    between atoms: C_26  and  C_27 
REMARK   10  A    between atoms: C_31  and  O_32 
REMARK   11  A    between atoms: C_34  and  O_35 
ROOT
ATOM      1  C   UNL d   1      25.449 -13.338  -3.934  0.00  0.00     0.046 C 
ATOM      2  C   UNL d   1      26.204 -13.084  -5.048  0.00  0.00     0.106 C 
ENDROOT
BRANCH   2   3
ATOM      3  N   UNL d   1      26.062 -11.884  -5.769  0.00  0.00    -0.318 N 
ATOM      4  C   UNL d   1      27.039 -10.947  -6.080  0.00  0.00     0.258 C 
ATOM      5  O   UNL d   1      28.247 -11.026  -5.803  0.00  0.00    -0.267 OA
ATOM      6  H   UNL d   1      25.130 -11.680  -6.105  0.00  0.00     0.169 HD
BRANCH   4   7
ATOM      7  C   UNL d   1      26.654  -9.716  -6.819  0.00  0.00     0.054 A 
ATOM      8  C   UNL d   1      27.229  -9.520  -8.095  0.00  0.00     0.019 A 
ATOM      9  C   UNL d   1      27.131  -8.288  -8.746  0.00  0.00     0.001 A 
ATOM     10  C   UNL d   1      26.401  -7.258  -8.163  0.00  0.00     0.002 A 
ATOM     11  C   UNL d   1      25.801  -7.451  -6.918  0.00  0.00     0.025 A 
ATOM     12  C   UNL d   1      25.925  -8.672  -6.241  0.00  0.00     0.049 A 
ATOM     13 CL   UNL d   1      25.180  -8.784  -4.687  0.00  0.00    -0.083 Cl
ENDBRANCH   4   7
ENDBRANCH   2   3
BRANCH   2  14
ATOM     14  C   UNL d   1      27.299 -14.079  -5.521  0.00  0.00     0.288 C 
ATOM     15  O   UNL d   1      27.065 -15.281  -5.635  0.00  0.00    -0.264 OA
ATOM     16  N   UNL d   1      28.616 -13.681  -5.724  0.00  0.00    -0.242 N 
ATOM     17  H   UNL d   1      29.043 -12.836  -5.388  0.00  0.00     0.192 HD
BRANCH  16  18
ATOM     18  N   UNL d   1      29.390 -14.642  -6.340  0.00  0.00    -0.183 NA
ATOM     19  C   UNL d   1      30.659 -14.492  -6.506  0.00  0.00     0.153 C 
BRANCH  19  20
ATOM     20  C   UNL d   1      31.453 -15.513  -7.245  0.00  0.00     0.019 A 
ATOM     21  C   UNL d   1      32.466 -15.085  -8.107  0.00  0.00     0.016 A 
ATOM     22  C   UNL d   1      33.093 -16.009  -8.943  0.00  0.00     0.004 A 
ATOM     23  C   UNL d   1      32.765 -17.366  -8.856  0.00  0.00     0.040 A 
ATOM     24  C   UNL d   1      31.770 -17.822  -7.969  0.00  0.00     0.102 A 
ATOM     25  C   UNL d   1      31.105 -16.877  -7.169  0.00  0.00     0.110 A 
BRANCH  24  26
ATOM     26  O   UNL d   1      31.546 -19.172  -8.081  0.00  0.00    -0.353 OA
ATOM     27  C   UNL d   1      30.980 -19.850  -6.973  0.00  0.00     0.210 C 
ENDBRANCH  24  26
BRANCH  25  28
ATOM     28  O   UNL d   1      30.016 -17.152  -6.388  0.00  0.00    -0.357 OA
ATOM     29  H   UNL d   1      29.361 -16.447  -6.389  0.00  0.00     0.217 HD
ENDBRANCH  25  28
ENDBRANCH  19  20
ENDBRANCH  16  18
ENDBRANCH   2  14
BRANCH   1  30
ATOM     30  C   UNL d   1      25.384 -14.476  -2.974  0.00  0.00    -0.034 C 
ATOM     31  C   UNL d   1      26.499 -15.213  -2.568  0.00  0.00     0.013 C 
ATOM     32  C   UNL d   1      26.337 -16.397  -1.802  0.00  0.00     0.030 C 
ATOM     33  C   UNL d   1      25.068 -16.886  -1.436  0.00  0.00     0.030 C 
ATOM     34  C   UNL d   1      23.991 -16.102  -1.805  0.00  0.00     0.030 C 
ATOM     35  C   UNL d   1      24.192 -14.865  -2.396  0.00  0.00     0.013 C 
BRANCH  33  36
ATOM     36  N   UNL d   1      24.889 -18.034  -0.626  0.00  0.00    -0.382 N 
BRANCH  36  37
ATOM     37  C   UNL d   1      23.632 -18.781  -0.864  0.00  0.00     0.118 C 
ATOM     38  C   UNL d   1      22.495 -18.587   0.112  0.00  0.00     0.026 C 
ENDBRANCH  36  37
BRANCH  36  39
ATOM     39  C   UNL d   1      25.690 -17.969   0.612  0.00  0.00     0.118 C 
ATOM     40  C   UNL d   1      27.064 -18.601   0.591  0.00  0.00     0.026 C 
ENDBRANCH  36  39
ENDBRANCH  33  36
ENDBRANCH   1  30
TORSDOF 11
ENDMDL
MODEL 9
REMARK VINA RESULT:    -7.130      2.880      9.706
REMARK INTER + INTRA:         -14.129
REMARK INTER:                 -10.411
REMARK INTRA:                  -3.718
REMARK CONF_INDEPENDENT:        3.281
REMARK UNBOUND:                -3.718
REMARK  11 active torsions:
REMARK  status: ('A' for Active; 'I' for Inactive)
REMARK    1  A    between atoms: C_2  and  N_3 
REMARK    2  A    between atoms: N_3  and  C_4 
REMARK    3  A    between atoms: N_3  and  C_6 
REMARK    4  A    between atoms: C_9  and  C_10 
REMARK    5  A    between atoms: C_11  and  N_12 
REMARK    6  A    between atoms: C_11  and  C_22 
REMARK       I    between atoms: N_12  and  C_13 
REMARK    7  A    between atoms: C_13  and  C_15 
REMARK       I    between atoms: C_22  and  N_24 
REMARK    8  A    between atoms: N_24  and  N_25 
REMARK    9  A    between atoms: C_26  and  C_27 
REMARK   10  A    between atoms: C_31  and  O_32 
REMARK   11  A    between atoms: C_34  and  O_35 
ROOT
ATOM      1  C   UNL d   1      25.649 -12.301  -3.316  0.00  0.00     0.046 C 
ATOM      2  C   UNL d   1      26.258 -13.521  -3.443  0.00  0.00     0.106 C 
ENDROOT
BRANCH   2   3
ATOM      3  N   UNL d   1      25.987 -14.569  -2.544  0.00  0.00    -0.318 N 
ATOM      4  C   UNL d   1      25.546 -15.855  -2.831  0.00  0.00     0.258 C 
ATOM      5  O   UNL d   1      25.347 -16.327  -3.962  0.00  0.00    -0.267 OA
ATOM      6  H   UNL d   1      26.134 -14.360  -1.565  0.00  0.00     0.169 HD
BRANCH   4   7
ATOM      7  C   UNL d   1      25.277 -16.796  -1.713  0.00  0.00     0.054 A 
ATOM      8  C   UNL d   1      23.936 -17.188  -1.504  0.00  0.00     0.019 A 
ATOM      9  C   UNL d   1      23.555 -17.855  -0.337  0.00  0.00     0.001 A 
ATOM     10  C   UNL d   1      24.519 -18.199   0.604  0.00  0.00     0.002 A 
ATOM     11  C   UNL d   1      25.853 -17.846   0.393  0.00  0.00     0.025 A 
ATOM     12  C   UNL d   1      26.237 -17.144  -0.758  0.00  0.00     0.049 A 
ATOM     13 CL   UNL d   1      27.906 -16.720  -0.894  0.00  0.00    -0.083 Cl
ENDBRANCH   4   7
ENDBRANCH   2   3
BRANCH   2  14
ATOM     14  C   UNL d   1      27.219 -13.821  -4.626  0.00  0.00     0.288 C 
ATOM     15  O   UNL d   1      28.059 -13.000  -4.991  0.00  0.00    -0.264 OA
ATOM     16  N   UNL d   1      27.098 -14.971  -5.397  0.00  0.00    -0.242 N 
ATOM     17  H   UNL d   1      26.300 -15.581  -5.440  0.00  0.00     0.192 HD
BRANCH  16  18
ATOM     18  N   UNL d   1      28.157 -15.168  -6.258  0.00  0.00    -0.183 NA
ATOM     19  C   UNL d   1      29.264 -15.700  -5.866  0.00  0.00     0.153 C 
BRANCH  19  20
ATOM     20  C   UNL d   1      30.417 -15.827  -6.801  0.00  0.00     0.019 A 
ATOM     21  C   UNL d   1      30.957 -17.093  -7.039  0.00  0.00     0.016 A 
ATOM     22  C   UNL d   1      32.144 -17.211  -7.761  0.00  0.00     0.004 A 
ATOM     23  C   UNL d   1      32.743 -16.072  -8.312  0.00  0.00     0.040 A 
ATOM     24  C   UNL d   1      32.196 -14.790  -8.112  0.00  0.00     0.102 A 
ATOM     25  C   UNL d   1      31.028 -14.675  -7.338  0.00  0.00     0.110 A 
BRANCH  24  26
ATOM     26  O   UNL d   1      32.964 -13.799  -8.671  0.00  0.00    -0.353 OA
ATOM     27  C   UNL d   1      32.322 -12.601  -9.071  0.00  0.00     0.210 C 
ENDBRANCH  24  26
BRANCH  25  28
ATOM     28  O   UNL d   1      30.483 -13.489  -6.929  0.00  0.00    -0.357 OA
ATOM     29  H   UNL d   1      29.636 -13.594  -6.485  0.00  0.00     0.217 HD
ENDBRANCH  25  28
ENDBRANCH  19  20
ENDBRANCH  16  18
ENDBRANCH   2  14
BRANCH   1  30
ATOM     30  C   UNL d   1      25.714 -11.033  -4.097  0.00  0.00    -0.034 C 
ATOM     31  C   UNL d   1      25.614  -9.763  -3.525  0.00  0.00     0.013 C 
ATOM     32  C   UNL d   1      25.495  -8.612  -4.347  0.00  0.00     0.030 C 
ATOM     33  C   UNL d   1      25.456  -8.695  -5.752  0.00  0.00     0.030 C 
ATOM     34  C   UNL d   1      25.616  -9.960  -6.285  0.00  0.00     0.030 C 
ATOM     35  C   UNL d   1      25.907 -11.037  -5.464  0.00  0.00     0.013 C 
BRANCH  33  36
ATOM     36  N   UNL d   1      25.394  -7.554  -6.589  0.00  0.00    -0.382 N 
BRANCH  36  37
ATOM     37  C   UNL d   1      24.026  -7.090  -6.917  0.00  0.00     0.118 C 
ATOM     38  C   UNL d   1      23.054  -6.881  -5.778  0.00  0.00     0.026 C 
ENDBRANCH  36  37
BRANCH  36  39
ATOM     39  C   UNL d   1      26.629  -7.376  -7.377  0.00  0.00     0.118 C 
ATOM     40  C   UNL d   1      27.472  -6.152  -7.092  0.00  0.00     0.026 C 
ENDBRANCH  36  39
ENDBRANCH  33  36
ENDBRANCH   1  30
TORSDOF 11
ENDMDL
