MODEL 1
REMARK VINA RESULT:    -8.158      0.000      0.000
REMARK INTER + INTRA:         -11.732
REMARK INTER:                 -10.246
REMARK INTRA:                  -1.486
REMARK CONF_INDEPENDENT:        2.088
REMARK UNBOUND:                -1.486
REMARK  7 active torsions:
REMARK  status: ('A' for Active; 'I' for Inactive)
REMARK    1  A    between atoms: C_6  and  O_7 
REMARK    2  A    between atoms: O_7  and  C_8 
REMARK    3  A    between atoms: C_8  and  C_9 
REMARK    4  A    between atoms: C_9  and  C_10 
REMARK    5  A    between atoms: C_10  and  C_11 
REMARK       I    between atoms: C_11  and  N_13 
REMARK    6  A    between atoms: N_13  and  N_14 
REMARK       I    between atoms: N_14  and  C_15 
REMARK       I    between atoms: C_15  and  N_17 
REMARK    7  A    between atoms: N_17  and  C_18 
ROOT
ATOM      1  C   UNL d   1      25.264 -17.703  -0.314  0.00  0.00     0.236 C 
ATOM      2  O   UNL d   1      25.734 -18.353   0.621  0.00  0.00    -0.272 OA
ATOM      3  N   UNL d   1      23.923 -17.802  -0.659  0.00  0.00    -0.266 N 
ATOM      4  H   UNL d   1      23.481 -17.293  -1.424  0.00  0.00     0.190 HD
ENDROOT
BRANCH   1   5
ATOM      5  C   UNL d   1      26.119 -16.742  -1.162  0.00  0.00     0.106 C 
BRANCH   5   6
ATOM      6  C   UNL d   1      25.410 -16.330  -2.474  0.00  0.00     0.036 C 
BRANCH   6   7
ATOM      7  C   UNL d   1      25.019 -14.847  -2.525  0.00  0.00     0.176 C 
BRANCH   7   8
ATOM      8  O   UNL d   1      24.756 -14.452  -3.884  0.00  0.00    -0.351 OA
BRANCH   8   9
ATOM      9  C   UNL d   1      25.835 -14.004  -4.611  0.00  0.00     0.069 A 
ATOM     10  C   UNL d   1      25.913 -12.624  -4.830  0.00  0.00     0.037 A 
ATOM     11  C   UNL d   1      26.971 -12.075  -5.567  0.00  0.00     0.003 A 
ATOM     12  C   UNL d   1      27.965 -12.903  -6.087  0.00  0.00     0.007 A 
ATOM     13  C   UNL d   1      27.908 -14.281  -5.869  0.00  0.00    -0.059 A 
ATOM     14  C   UNL d   1      28.971 -15.199  -6.397  0.00  0.00     0.048 C 
ATOM     15  C   UNL d   1      26.840 -14.820  -5.135  0.00  0.00     0.043 A 
ENDBRANCH   8   9
ENDBRANCH   7   8
ENDBRANCH   6   7
ENDBRANCH   5   6
ENDBRANCH   1   5
BRANCH   3  16
ATOM     16  N   UNL d   1      23.063 -18.686   0.079  0.00  0.00    -0.249 N 
ATOM     17  C   UNL d   1      21.694 -18.613  -0.113  0.00  0.00     0.335 C 
ATOM     18  O   UNL d   1      21.200 -17.799  -0.895  0.00  0.00    -0.246 OA
ATOM     19  N   UNL d   1      20.945 -19.532   0.602  0.00  0.00    -0.338 N 
ATOM     20  H   UNL d   1      21.405 -20.128   1.276  0.00  0.00     0.164 HD
ATOM     21  H   UNL d   1      23.519 -19.305   0.743  0.00  0.00     0.192 HD
BRANCH  19  22
ATOM     22  C   UNL d   1      19.475 -19.612   0.489  0.00  0.00     0.078 C 
ATOM     23  C   UNL d   1      19.032 -19.700  -0.974  0.00  0.00     0.032 C 
ATOM     24  C   UNL d   1      18.874 -20.813   1.237  0.00  0.00     0.032 C 
ENDBRANCH  19  22
ENDBRANCH   3  16
TORSDOF 7
ENDMDL
MODEL 2
REMARK VINA RESULT:    -8.117      0.446      1.454
REMARK INTER + INTRA:         -11.551
REMARK INTER:                 -10.205
REMARK INTRA:                  -1.346
REMARK CONF_INDEPENDENT:        2.088
REMARK UNBOUND:                -1.346
REMARK  7 active torsions:
REMARK  status: ('A' for Active; 'I' for Inactive)
REMARK    1  A    between atoms: C_6  and  O_7 
REMARK    2  A    between atoms: O_7  and  C_8 
REMARK    3  A    between atoms: C_8  and  C_9 
REMARK    4  A    between atoms: C_9  and  C_10 
REMARK    5  A    between atoms: C_10  and  C_11 
REMARK       I    between atoms: C_11  and  N_13 
REMARK    6  A    between atoms: N_13  and  N_14 
REMARK       I    between atoms: N_14  and  C_15 
REMARK       I    between atoms: C_15  and  N_17 
REMARK    7  A    between atoms: N_17  and  C_18 
ROOT
ATOM      1  C   UNL d   1      25.089 -17.802  -0.367  0.00  0.00     0.236 C 
ATOM      2  O   UNL d   1      25.567 -18.392   0.603  0.00  0.00    -0.272 OA
ATOM      3  N   UNL d   1      23.764 -17.985  -0.742  0.00  0.00    -0.266 N 
ATOM      4  H   UNL d   1      23.317 -17.528  -1.537  0.00  0.00     0.190 HD
ENDROOT
BRANCH   1   5
ATOM      5  C   UNL d   1      25.915 -16.828  -1.229  0.00  0.00     0.106 C 
BRANCH   5   6
ATOM      6  C   UNL d   1      25.155 -16.383  -2.500  0.00  0.00     0.036 C 
BRANCH   6   7
ATOM      7  C   UNL d   1      24.798 -14.890  -2.515  0.00  0.00     0.176 C 
BRANCH   7   8
ATOM      8  O   UNL d   1      24.571 -14.450  -3.867  0.00  0.00    -0.351 OA
BRANCH   8   9
ATOM      9  C   UNL d   1      25.684 -14.076  -4.585  0.00  0.00     0.069 A 
ATOM     10  C   UNL d   1      26.520 -15.108  -5.026  0.00  0.00     0.037 A 
ATOM     11  C   UNL d   1      27.682 -14.825  -5.756  0.00  0.00     0.003 A 
ATOM     12  C   UNL d   1      28.014 -13.505  -6.059  0.00  0.00     0.007 A 
ATOM     13  C   UNL d   1      27.186 -12.464  -5.635  0.00  0.00    -0.059 A 
ATOM     14  C   UNL d   1      27.502 -11.034  -5.959  0.00  0.00     0.048 C 
ATOM     15  C   UNL d   1      26.028 -12.759  -4.898  0.00  0.00     0.043 A 
ENDBRANCH   8   9
ENDBRANCH   7   8
ENDBRANCH   6   7
ENDBRANCH   5   6
ENDBRANCH   1   5
BRANCH   3  16
ATOM     16  N   UNL d   1      22.932 -18.886   0.006  0.00  0.00    -0.249 N 
ATOM     17  C   UNL d   1      21.557 -18.803  -0.124  0.00  0.00     0.335 C 
ATOM     18  O   UNL d   1      21.035 -17.964  -0.861  0.00  0.00    -0.246 OA
ATOM     19  N   UNL d   1      20.835 -19.739   0.596  0.00  0.00    -0.338 N 
ATOM     20  H   UNL d   1      21.320 -20.357   1.231  0.00  0.00     0.164 HD
ATOM     21  H   UNL d   1      23.414 -19.526   0.632  0.00  0.00     0.192 HD
BRANCH  19  22
ATOM     22  C   UNL d   1      19.360 -19.809   0.544  0.00  0.00     0.078 C 
ATOM     23  C   UNL d   1      18.847 -19.700  -0.895  0.00  0.00     0.032 C 
ATOM     24  C   UNL d   1      18.794 -21.103   1.149  0.00  0.00     0.032 C 
ENDBRANCH  19  22
ENDBRANCH   3  16
TORSDOF 7
ENDMDL
MODEL 3
REMARK VINA RESULT:    -7.673      1.412      1.926
REMARK INTER + INTRA:         -11.200
REMARK INTER:                  -9.762
REMARK INTRA:                  -1.439
REMARK CONF_INDEPENDENT:        2.088
REMARK UNBOUND:                -1.439
REMARK  7 active torsions:
REMARK  status: ('A' for Active; 'I' for Inactive)
REMARK    1  A    between atoms: C_6  and  O_7 
REMARK    2  A    between atoms: O_7  and  C_8 
REMARK    3  A    between atoms: C_8  and  C_9 
REMARK    4  A    between atoms: C_9  and  C_10 
REMARK    5  A    between atoms: C_10  and  C_11 
REMARK       I    between atoms: C_11  and  N_13 
REMARK    6  A    between atoms: N_13  and  N_14 
REMARK       I    between atoms: N_14  and  C_15 
REMARK       I    between atoms: C_15  and  N_17 
REMARK    7  A    between atoms: N_17  and  C_18 
ROOT
ATOM      1  C   UNL d   1      25.225 -17.751  -0.454  0.00  0.00     0.236 C 
ATOM      2  O   UNL d   1      25.740 -18.483   0.392  0.00  0.00    -0.272 OA
ATOM      3  N   UNL d   1      23.858 -17.773  -0.693  0.00  0.00    -0.266 N 
ATOM      4  H   UNL d   1      23.379 -17.195  -1.383  0.00  0.00     0.190 HD
ENDROOT
BRANCH   1   5
ATOM      5  C   UNL d   1      26.051 -16.765  -1.304  0.00  0.00     0.106 C 
BRANCH   5   6
ATOM      6  C   UNL d   1      25.156 -15.837  -2.158  0.00  0.00     0.036 C 
BRANCH   6   7
ATOM      7  C   UNL d   1      25.751 -15.500  -3.532  0.00  0.00     0.176 C 
BRANCH   7   8
ATOM      8  O   UNL d   1      24.973 -14.469  -4.168  0.00  0.00    -0.351 OA
BRANCH   8   9
ATOM      9  C   UNL d   1      25.503 -13.199  -4.146  0.00  0.00     0.069 A 
ATOM     10  C   UNL d   1      25.825 -12.677  -2.888  0.00  0.00     0.037 A 
ATOM     11  C   UNL d   1      26.362 -11.389  -2.765  0.00  0.00     0.003 A 
ATOM     12  C   UNL d   1      26.589 -10.613  -3.901  0.00  0.00     0.007 A 
ATOM     13  C   UNL d   1      26.283 -11.123  -5.164  0.00  0.00    -0.059 A 
ATOM     14  C   UNL d   1      26.532 -10.324  -6.409  0.00  0.00     0.048 C 
ATOM     15  C   UNL d   1      25.740 -12.412  -5.275  0.00  0.00     0.043 A 
ENDBRANCH   8   9
ENDBRANCH   7   8
ENDBRANCH   6   7
ENDBRANCH   5   6
ENDBRANCH   1   5
BRANCH   3  16
ATOM     16  N   UNL d   1      23.022 -18.673   0.053  0.00  0.00    -0.249 N 
ATOM     17  C   UNL d   1      21.649 -18.615  -0.113  0.00  0.00     0.335 C 
ATOM     18  O   UNL d   1      21.132 -17.799  -0.879  0.00  0.00    -0.246 OA
ATOM     19  N   UNL d   1      20.924 -19.549   0.607  0.00  0.00    -0.338 N 
ATOM     20  H   UNL d   1      21.403 -20.146   1.266  0.00  0.00     0.164 HD
ATOM     21  H   UNL d   1      23.497 -19.293   0.702  0.00  0.00     0.192 HD
BRANCH  19  22
ATOM     22  C   UNL d   1      19.452 -19.644   0.520  0.00  0.00     0.078 C 
ATOM     23  C   UNL d   1      18.982 -19.700  -0.936  0.00  0.00     0.032 C 
ATOM     24  C   UNL d   1      18.881 -20.872   1.248  0.00  0.00     0.032 C 
ENDBRANCH  19  22
ENDBRANCH   3  16
TORSDOF 7
ENDMDL
MODEL 4
REMARK VINA RESULT:    -7.515      1.764      9.243
REMARK INTER + INTRA:         -11.115
REMARK INTER:                  -9.603
REMARK INTRA:                  -1.512
REMARK CONF_INDEPENDENT:        2.088
REMARK UNBOUND:                -1.512
REMARK  7 active torsions:
REMARK  status: ('A' for Active; 'I' for Inactive)
REMARK    1  A    between atoms: C_6  and  O_7 
REMARK    2  A    between atoms: O_7  and  C_8 
REMARK    3  A    between atoms: C_8  and  C_9 
REMARK    4  A    between atoms: C_9  and  C_10 
REMARK    5  A    between atoms: C_10  and  C_11 
REMARK       I    between atoms: C_11  and  N_13 
REMARK    6  A    between atoms: N_13  and  N_14 
REMARK       I    between atoms: N_14  and  C_15 
REMARK       I    between atoms: C_15  and  N_17 
REMARK    7  A    between atoms: N_17  and  C_18 
ROOT
ATOM      1  C   UNL d   1      25.143 -17.861  -0.480  0.00  0.00     0.236 C 
ATOM      2  O   UNL d   1      26.266 -18.202  -0.107  0.00  0.00    -0.272 OA
ATOM      3  N   UNL d   1      24.971 -16.942  -1.506  0.00  0.00    -0.266 N 
ATOM      4  H   UNL d   1      24.067 -16.620  -1.853  0.00  0.00     0.190 HD
ENDROOT
BRANCH   1   5
ATOM      5  C   UNL d   1      23.857 -18.424   0.156  0.00  0.00     0.106 C 
BRANCH   5   6
ATOM      6  C   UNL d   1      22.585 -17.729  -0.383  0.00  0.00     0.036 C 
BRANCH   6   7
ATOM      7  C   UNL d   1      21.692 -18.647  -1.230  0.00  0.00     0.176 C 
BRANCH   7   8
ATOM      8  O   UNL d   1      20.306 -18.417  -0.914  0.00  0.00    -0.351 OA
BRANCH   8   9
ATOM      9  C   UNL d   1      19.729 -19.289  -0.019  0.00  0.00     0.069 A 
ATOM     10  C   UNL d   1      18.697 -20.096  -0.508  0.00  0.00     0.037 A 
ATOM     11  C   UNL d   1      18.044 -21.009   0.331  0.00  0.00     0.003 A 
ATOM     12  C   UNL d   1      18.423 -21.126   1.667  0.00  0.00     0.007 A 
ATOM     13  C   UNL d   1      19.458 -20.335   2.169  0.00  0.00    -0.059 A 
ATOM     14  C   UNL d   1      19.905 -20.449   3.597  0.00  0.00     0.048 C 
ATOM     15  C   UNL d   1      20.101 -19.420   1.321  0.00  0.00     0.043 A 
ENDBRANCH   8   9
ENDBRANCH   7   8
ENDBRANCH   6   7
ENDBRANCH   5   6
ENDBRANCH   1   5
BRANCH   3  16
ATOM     16  N   UNL d   1      26.122 -16.365  -2.143  0.00  0.00    -0.249 N 
ATOM     17  C   UNL d   1      25.941 -15.440  -3.158  0.00  0.00     0.335 C 
ATOM     18  O   UNL d   1      24.813 -15.113  -3.530  0.00  0.00    -0.246 OA
ATOM     19  N   UNL d   1      27.103 -14.900  -3.682  0.00  0.00    -0.338 N 
ATOM     20  H   UNL d   1      27.997 -15.259  -3.378  0.00  0.00     0.164 HD
ATOM     21  H   UNL d   1      27.026 -16.704  -1.828  0.00  0.00     0.192 HD
BRANCH  19  22
ATOM     22  C   UNL d   1      27.088 -13.877  -4.748  0.00  0.00     0.078 C 
ATOM     23  C   UNL d   1      26.104 -12.749  -4.424  0.00  0.00     0.032 C 
ATOM     24  C   UNL d   1      28.466 -13.244  -4.999  0.00  0.00     0.032 C 
ENDBRANCH  19  22
ENDBRANCH   3  16
TORSDOF 7
ENDMDL
MODEL 5
REMARK VINA RESULT:    -7.120      1.491      2.387
REMARK INTER + INTRA:         -10.685
REMARK INTER:                  -9.208
REMARK INTRA:                  -1.477
REMARK CONF_INDEPENDENT:        2.088
REMARK UNBOUND:                -1.477
REMARK  7 active torsions:
REMARK  status: ('A' for Active; 'I' for Inactive)
REMARK    1  A    between atoms: C_6  and  O_7 
REMARK    2  A    between atoms: O_7  and  C_8 
REMARK    3  A    between atoms: C_8  and  C_9 
REMARK    4  A    between atoms: C_9  and  C_10 
REMARK    5  A    between atoms: C_10  and  C_11 
REMARK       I    between atoms: C_11  and  N_13 
REMARK    6  A    between atoms: N_13  and  N_14 
REMARK       I    between atoms: N_14  and  C_15 
REMARK       I    between atoms: C_15  and  N_17 
REMARK    7  A    between atoms: N_17  and  C_18 
ROOT
ATOM      1  C   UNL d   1      25.060 -17.842  -0.345  0.00  0.00     0.236 C 
ATOM      2  O   UNL d   1      25.524 -18.451   0.619  0.00  0.00    -0.272 OA
ATOM      3  N   UNL d   1      23.722 -17.957  -0.696  0.00  0.00    -0.266 N 
ATOM      4  H   UNL d   1      23.286 -17.481  -1.486  0.00  0.00     0.190 HD
ENDROOT
BRANCH   1   5
ATOM      5  C   UNL d   1      25.920 -16.914  -1.225  0.00  0.00     0.106 C 
BRANCH   5   6
ATOM      6  C   UNL d   1      27.425 -17.009  -0.880  0.00  0.00     0.036 C 
BRANCH   6   7
ATOM      7  C   UNL d   1      28.088 -15.647  -0.630  0.00  0.00     0.176 C 
BRANCH   7   8
ATOM      8  O   UNL d   1      28.809 -15.226  -1.804  0.00  0.00    -0.351 OA
BRANCH   8   9
ATOM      9  C   UNL d   1      28.060 -15.007  -2.937  0.00  0.00     0.069 A 
ATOM     10  C   UNL d   1      28.646 -15.371  -4.155  0.00  0.00     0.037 A 
ATOM     11  C   UNL d   1      27.963 -15.178  -5.363  0.00  0.00     0.003 A 
ATOM     12  C   UNL d   1      26.683 -14.625  -5.363  0.00  0.00     0.007 A 
ATOM     13  C   UNL d   1      26.080 -14.266  -4.156  0.00  0.00    -0.059 A 
ATOM     14  C   UNL d   1      24.696 -13.688  -4.118  0.00  0.00     0.048 C 
ATOM     15  C   UNL d   1      26.775 -14.458  -2.952  0.00  0.00     0.043 A 
ENDBRANCH   8   9
ENDBRANCH   7   8
ENDBRANCH   6   7
ENDBRANCH   5   6
ENDBRANCH   1   5
BRANCH   3  16
ATOM     16  N   UNL d   1      22.858 -18.812   0.070  0.00  0.00    -0.249 N 
ATOM     17  C   UNL d   1      21.488 -18.715  -0.099  0.00  0.00     0.335 C 
ATOM     18  O   UNL d   1      20.997 -17.903  -0.885  0.00  0.00    -0.246 OA
ATOM     19  N   UNL d   1      20.734 -19.607   0.644  0.00  0.00    -0.338 N 
ATOM     20  H   UNL d   1      21.193 -20.202   1.319  0.00  0.00     0.164 HD
ATOM     21  H   UNL d   1      23.314 -19.430   0.736  0.00  0.00     0.192 HD
BRANCH  19  22
ATOM     22  C   UNL d   1      19.260 -19.659   0.558  0.00  0.00     0.078 C 
ATOM     23  C   UNL d   1      18.787 -19.697  -0.899  0.00  0.00     0.032 C 
ATOM     24  C   UNL d   1      18.653 -20.870   1.283  0.00  0.00     0.032 C 
ENDBRANCH  19  22
ENDBRANCH   3  16
TORSDOF 7
ENDMDL
MODEL 6
REMARK VINA RESULT:    -6.996      3.524      5.223
REMARK INTER + INTRA:         -10.471
REMARK INTER:                  -9.084
REMARK INTRA:                  -1.387
REMARK CONF_INDEPENDENT:        2.088
REMARK UNBOUND:                -1.387
REMARK  7 active torsions:
REMARK  status: ('A' for Active; 'I' for Inactive)
REMARK    1  A    between atoms: C_6  and  O_7 
REMARK    2  A    between atoms: O_7  and  C_8 
REMARK    3  A    between atoms: C_8  and  C_9 
REMARK    4  A    between atoms: C_9  and  C_10 
REMARK    5  A    between atoms: C_10  and  C_11 
REMARK       I    between atoms: C_11  and  N_13 
REMARK    6  A    between atoms: N_13  and  N_14 
REMARK       I    between atoms: N_14  and  C_15 
REMARK       I    between atoms: C_15  and  N_17 
REMARK    7  A    between atoms: N_17  and  C_18 
ROOT
ATOM      1  C   UNL d   1      24.589 -17.869  -0.784  0.00  0.00     0.236 C 
ATOM      2  O   UNL d   1      25.187 -18.340   0.185  0.00  0.00    -0.272 OA
ATOM      3  N   UNL d   1      23.239 -18.116  -0.990  0.00  0.00    -0.266 N 
ATOM      4  H   UNL d   1      22.695 -17.757  -1.775  0.00  0.00     0.190 HD
ENDROOT
BRANCH   1   5
ATOM      5  C   UNL d   1      25.288 -16.979  -1.830  0.00  0.00     0.106 C 
BRANCH   5   6
ATOM      6  C   UNL d   1      26.568 -16.314  -1.272  0.00  0.00     0.036 C 
BRANCH   6   7
ATOM      7  C   UNL d   1      26.325 -15.467  -0.016  0.00  0.00     0.176 C 
BRANCH   7   8
ATOM      8  O   UNL d   1      27.444 -14.590   0.213  0.00  0.00    -0.351 OA
BRANCH   8   9
ATOM      9  C   UNL d   1      27.455 -13.910   1.410  0.00  0.00     0.069 A 
ATOM     10  C   UNL d   1      27.048 -12.572   1.374  0.00  0.00     0.037 A 
ATOM     11  C   UNL d   1      27.034 -11.797   2.541  0.00  0.00     0.003 A 
ATOM     12  C   UNL d   1      27.421 -12.357   3.758  0.00  0.00     0.007 A 
ATOM     13  C   UNL d   1      27.821 -13.694   3.813  0.00  0.00    -0.059 A 
ATOM     14  C   UNL d   1      28.224 -14.334   5.108  0.00  0.00     0.048 C 
ATOM     15  C   UNL d   1      27.836 -14.459   2.636  0.00  0.00     0.043 A 
ENDBRANCH   8   9
ENDBRANCH   7   8
ENDBRANCH   6   7
ENDBRANCH   5   6
ENDBRANCH   1   5
BRANCH   3  16
ATOM     16  N   UNL d   1      22.520 -18.945  -0.062  0.00  0.00    -0.249 N 
ATOM     17  C   UNL d   1      21.136 -18.951  -0.093  0.00  0.00     0.335 C 
ATOM     18  O   UNL d   1      20.511 -18.251  -0.892  0.00  0.00    -0.246 OA
ATOM     19  N   UNL d   1      20.526 -19.813   0.802  0.00  0.00    -0.338 N 
ATOM     20  H   UNL d   1      21.093 -20.311   1.475  0.00  0.00     0.164 HD
ATOM     21  H   UNL d   1      23.083 -19.466   0.604  0.00  0.00     0.192 HD
BRANCH  19  22
ATOM     22  C   UNL d   1      19.059 -19.966   0.878  0.00  0.00     0.078 C 
ATOM     23  C   UNL d   1      18.440 -20.105  -0.516  0.00  0.00     0.032 C 
ATOM     24  C   UNL d   1      18.618 -21.178   1.713  0.00  0.00     0.032 C 
ENDBRANCH  19  22
ENDBRANCH   3  16
TORSDOF 7
ENDMDL
MODEL 7
REMARK VINA RESULT:    -6.979      0.992      1.243
REMARK INTER + INTRA:         -10.562
REMARK INTER:                  -9.067
REMARK INTRA:                  -1.495
REMARK CONF_INDEPENDENT:        2.088
REMARK UNBOUND:                -1.495
REMARK  7 active torsions:
REMARK  status: ('A' for Active; 'I' for Inactive)
REMARK    1  A    between atoms: C_6  and  O_7 
REMARK    2  A    between atoms: O_7  and  C_8 
REMARK    3  A    between atoms: C_8  and  C_9 
REMARK    4  A    between atoms: C_9  and  C_10 
REMARK    5  A    between atoms: C_10  and  C_11 
REMARK       I    between atoms: C_11  and  N_13 
REMARK    6  A    between atoms: N_13  and  N_14 
REMARK       I    between atoms: N_14  and  C_15 
REMARK       I    between atoms: C_15  and  N_17 
REMARK    7  A    between atoms: N_17  and  C_18 
ROOT
ATOM      1  C   UNL d   1      25.317 -17.865  -0.419  0.00  0.00     0.236 C 
ATOM      2  O   UNL d   1      25.775 -18.531   0.511  0.00  0.00    -0.272 OA
ATOM      3  N   UNL d   1      23.971 -17.923  -0.754  0.00  0.00    -0.266 N 
ATOM      4  H   UNL d   1      23.539 -17.399  -1.515  0.00  0.00     0.190 HD
ENDROOT
BRANCH   1   5
ATOM      5  C   UNL d   1      26.194 -16.928  -1.271  0.00  0.00     0.106 C 
BRANCH   5   6
ATOM      6  C   UNL d   1      25.421 -16.335  -2.473  0.00  0.00     0.036 C 
BRANCH   6   7
ATOM      7  C   UNL d   1      25.667 -14.834  -2.684  0.00  0.00     0.176 C 
BRANCH   7   8
ATOM      8  O   UNL d   1      27.081 -14.568  -2.734  0.00  0.00    -0.351 OA
BRANCH   8   9
ATOM      9  C   UNL d   1      27.669 -14.614  -3.978  0.00  0.00     0.069 A 
ATOM     10  C   UNL d   1      27.291 -13.620  -4.887  0.00  0.00     0.037 A 
ATOM     11  C   UNL d   1      27.830 -13.590  -6.179  0.00  0.00     0.003 A 
ATOM     12  C   UNL d   1      28.760 -14.552  -6.573  0.00  0.00     0.007 A 
ATOM     13  C   UNL d   1      29.155 -15.545  -5.675  0.00  0.00    -0.059 A 
ATOM     14  C   UNL d   1      30.168 -16.584  -6.057  0.00  0.00     0.048 C 
ATOM     15  C   UNL d   1      28.604 -15.569  -4.384  0.00  0.00     0.043 A 
ENDBRANCH   8   9
ENDBRANCH   7   8
ENDBRANCH   6   7
ENDBRANCH   5   6
ENDBRANCH   1   5
BRANCH   3  16
ATOM     16  N   UNL d   1      23.090 -18.782  -0.012  0.00  0.00    -0.249 N 
ATOM     17  C   UNL d   1      21.722 -18.612  -0.130  0.00  0.00     0.335 C 
ATOM     18  O   UNL d   1      21.247 -17.731  -0.850  0.00  0.00    -0.246 OA
ATOM     19  N   UNL d   1      20.949 -19.512   0.583  0.00  0.00    -0.338 N 
ATOM     20  H   UNL d   1      21.399 -20.168   1.205  0.00  0.00     0.164 HD
ATOM     21  H   UNL d   1      23.536 -19.459   0.600  0.00  0.00     0.192 HD
BRANCH  19  22
ATOM     22  C   UNL d   1      19.472 -19.491   0.542  0.00  0.00     0.078 C 
ATOM     23  C   UNL d   1      18.950 -19.707  -0.881  0.00  0.00     0.032 C 
ATOM     24  C   UNL d   1      18.826 -20.552   1.447  0.00  0.00     0.032 C 
ENDBRANCH  19  22
ENDBRANCH   3  16
TORSDOF 7
ENDMDL
MODEL 8
REMARK VINA RESULT:    -6.698      1.318      1.989
REMARK INTER + INTRA:         -10.972
REMARK INTER:                  -8.786
REMARK INTRA:                  -2.186
REMARK CONF_INDEPENDENT:        2.088
REMARK UNBOUND:                -2.186
REMARK  7 active torsions:
REMARK  status: ('A' for Active; 'I' for Inactive)
REMARK    1  A    between atoms: C_6  and  O_7 
REMARK    2  A    between atoms: O_7  and  C_8 
REMARK    3  A    between atoms: C_8  and  C_9 
REMARK    4  A    between atoms: C_9  and  C_10 
REMARK    5  A    between atoms: C_10  and  C_11 
REMARK       I    between atoms: C_11  and  N_13 
REMARK    6  A    between atoms: N_13  and  N_14 
REMARK       I    between atoms: N_14  and  C_15 
REMARK       I    between atoms: C_15  and  N_17 
REMARK    7  A    between atoms: N_17  and  C_18 
ROOT
ATOM      1  C   UNL d   1      26.103 -18.125   0.347  0.00  0.00     0.236 C 
ATOM      2  O   UNL d   1      26.181 -18.548   1.501  0.00  0.00    -0.272 OA
ATOM      3  N   UNL d   1      24.887 -18.065  -0.319  0.00  0.00    -0.266 N 
ATOM      4  H   UNL d   1      24.763 -17.730  -1.275  0.00  0.00     0.190 HD
ENDROOT
BRANCH   1   5
ATOM      5  C   UNL d   1      27.336 -17.636  -0.437  0.00  0.00     0.106 C 
BRANCH   5   6
ATOM      6  C   UNL d   1      27.484 -16.097  -0.394  0.00  0.00     0.036 C 
BRANCH   6   7
ATOM      7  C   UNL d   1      26.145 -15.350  -0.331  0.00  0.00     0.176 C 
BRANCH   7   8
ATOM      8  O   UNL d   1      25.334 -15.693  -1.470  0.00  0.00    -0.351 OA
BRANCH   8   9
ATOM      9  C   UNL d   1      25.576 -14.989  -2.628  0.00  0.00     0.069 A 
ATOM     10  C   UNL d   1      24.603 -14.059  -3.010  0.00  0.00     0.037 A 
ATOM     11  C   UNL d   1      24.757 -13.302  -4.179  0.00  0.00     0.003 A 
ATOM     12  C   UNL d   1      25.892 -13.463  -4.973  0.00  0.00     0.007 A 
ATOM     13  C   UNL d   1      26.878 -14.380  -4.601  0.00  0.00    -0.059 A 
ATOM     14  C   UNL d   1      28.120 -14.565  -5.420  0.00  0.00     0.048 C 
ATOM     15  C   UNL d   1      26.709 -15.138  -3.431  0.00  0.00     0.043 A 
ENDBRANCH   8   9
ENDBRANCH   7   8
ENDBRANCH   6   7
ENDBRANCH   5   6
ENDBRANCH   1   5
BRANCH   3  16
ATOM     16  N   UNL d   1      23.692 -18.513   0.342  0.00  0.00    -0.249 N 
ATOM     17  C   UNL d   1      22.629 -18.970  -0.418  0.00  0.00     0.335 C 
ATOM     18  O   UNL d   1      22.686 -18.990  -1.649  0.00  0.00    -0.246 OA
ATOM     19  N   UNL d   1      21.538 -19.426   0.302  0.00  0.00    -0.338 N 
ATOM     20  H   UNL d   1      21.529 -19.322   1.307  0.00  0.00     0.164 HD
ATOM     21  H   UNL d   1      23.683 -18.433   1.355  0.00  0.00     0.192 HD
BRANCH  19  22
ATOM     22  C   UNL d   1      20.334 -19.977  -0.353  0.00  0.00     0.078 C 
ATOM     23  C   UNL d   1      19.594 -20.951   0.568  0.00  0.00     0.032 C 
ATOM     24  C   UNL d   1      19.336 -18.894  -0.794  0.00  0.00     0.032 C 
ENDBRANCH  19  22
ENDBRANCH   3  16
TORSDOF 7
ENDMDL
MODEL 9
REMARK VINA RESULT:    -6.110      4.191      7.527
REMARK INTER + INTRA:         -10.738
REMARK INTER:                  -8.198
REMARK INTRA:                  -2.540
REMARK CONF_INDEPENDENT:        2.088
REMARK UNBOUND:                -2.540
REMARK  7 active torsions:
REMARK  status: ('A' for Active; 'I' for Inactive)
REMARK    1  A    between atoms: C_6  and  O_7 
REMARK    2  A    between atoms: O_7  and  C_8 
REMARK    3  A    between atoms: C_8  and  C_9 
REMARK    4  A    between atoms: C_9  and  C_10 
REMARK    5  A    between atoms: C_10  and  C_11 
REMARK       I    between atoms: C_11  and  N_13 
REMARK    6  A    between atoms: N_13  and  N_14 
REMARK       I    between atoms: N_14  and  C_15 
REMARK       I    between atoms: C_15  and  N_17 
REMARK    7  A    between atoms: N_17  and  C_18 
ROOT
ATOM      1  C   UNL d   1      28.634 -15.254  -1.263  0.00  0.00     0.236 C 
ATOM      2  O   UNL d   1      29.616 -15.980  -1.105  0.00  0.00    -0.272 OA
ATOM      3  N   UNL d   1      27.920 -14.760  -0.180  0.00  0.00    -0.266 N 
ATOM      4  H   UNL d   1      27.099 -14.159  -0.250  0.00  0.00     0.190 HD
ENDROOT
BRANCH   1   5
ATOM      5  C   UNL d   1      28.129 -14.841  -2.659  0.00  0.00     0.106 C 
BRANCH   5   6
ATOM      6  C   UNL d   1      26.807 -15.548  -3.037  0.00  0.00     0.036 C 
BRANCH   6   7
ATOM      7  C   UNL d   1      25.554 -14.831  -2.518  0.00  0.00     0.176 C 
BRANCH   7   8
ATOM      8  O   UNL d   1      25.363 -15.119  -1.120  0.00  0.00    -0.351 OA
BRANCH   8   9
ATOM      9  C   UNL d   1      24.840 -16.355  -0.815  0.00  0.00     0.069 A 
ATOM     10  C   UNL d   1      25.722 -17.287  -0.258  0.00  0.00     0.037 A 
ATOM     11  C   UNL d   1      25.284 -18.575   0.077  0.00  0.00     0.003 A 
ATOM     12  C   UNL d   1      23.955 -18.939  -0.135  0.00  0.00     0.007 A 
ATOM     13  C   UNL d   1      23.059 -18.018  -0.681  0.00  0.00    -0.059 A 
ATOM     14  C   UNL d   1      21.618 -18.369  -0.905  0.00  0.00     0.048 C 
ATOM     15  C   UNL d   1      23.511 -16.732  -1.019  0.00  0.00     0.043 A 
ENDBRANCH   8   9
ENDBRANCH   7   8
ENDBRANCH   6   7
ENDBRANCH   5   6
ENDBRANCH   1   5
BRANCH   3  16
ATOM     16  N   UNL d   1      28.323 -15.109   1.155  0.00  0.00    -0.249 N 
ATOM     17  C   UNL d   1      27.803 -14.401   2.225  0.00  0.00     0.335 C 
ATOM     18  O   UNL d   1      27.011 -13.472   2.053  0.00  0.00    -0.246 OA
ATOM     19  N   UNL d   1      28.209 -14.834   3.476  0.00  0.00    -0.338 N 
ATOM     20  H   UNL d   1      28.910 -15.558   3.546  0.00  0.00     0.164 HD
ATOM     21  H   UNL d   1      29.012 -15.851   1.236  0.00  0.00     0.192 HD
BRANCH  19  22
ATOM     22  C   UNL d   1      27.723 -14.210   4.724  0.00  0.00     0.078 C 
ATOM     23  C   UNL d   1      28.527 -14.689   5.936  0.00  0.00     0.032 C 
ATOM     24  C   UNL d   1      27.783 -12.674   4.695  0.00  0.00     0.032 C 
ENDBRANCH  19  22
ENDBRANCH   3  16
TORSDOF 7
ENDMDL
