MODEL 1
REMARK VINA RESULT:    -8.820      0.000      0.000
REMARK INTER + INTRA:         -12.830
REMARK INTER:                 -11.504
REMARK INTRA:                  -1.325
REMARK CONF_INDEPENDENT:        2.685
REMARK UNBOUND:                -1.325
REMARK  9 active torsions:
REMARK  status: ('A' for Active; 'I' for Inactive)
REMARK    1  A    between atoms: C_2  and  C_3 
REMARK    2  A    between atoms: C_3  and  C_4 
REMARK    3  A    between atoms: C_4  and  CA_5 
REMARK    4  A    between atoms: CA_5  and  C_6 
REMARK    5  A    between atoms: CA_5  and  N_8 
REMARK    6  A    between atoms: C_6  and  O_7 
REMARK       I    between atoms: N_8  and  C_9 
REMARK    7  A    between atoms: C_9  and  C_11 
REMARK    8  A    between atoms: C_15  and  N_16 
REMARK       I    between atoms: N_16  and  C_17 
REMARK    9  A    between atoms: C_17  and  C_19 
ROOT
ATOM      1  C   UNL d   1      24.152 -17.437  -0.693  0.00  0.00     0.034 A 
ATOM      2  C   UNL d   1      25.187 -17.978   0.060  0.00  0.00     0.017 A 
ATOM      3  C   UNL d   1      26.434 -17.343   0.068  0.00  0.00     0.003 A 
ATOM      4  C   UNL d   1      26.661 -16.192  -0.711  0.00  0.00     0.029 A 
ATOM      5  C   UNL d   1      25.620 -15.645  -1.470  0.00  0.00     0.035 A 
ATOM      6  C   UNL d   1      24.381 -16.295  -1.444  0.00  0.00     0.046 A 
ENDROOT
BRANCH   1   7
ATOM      7  C   UNL d   1      22.759 -17.918  -0.568  0.00  0.00     0.252 C 
ATOM      8  N   UNL d   1      22.551 -19.225  -0.150  0.00  0.00    -0.350 N 
ATOM      9  H   UNL d   1      23.346 -19.827   0.039  0.00  0.00     0.163 HD
ATOM     10  O   UNL d   1      21.850 -17.138  -0.858  0.00  0.00    -0.268 OA
BRANCH   8  11
ATOM     11  CA  UNL d   1      21.194 -19.758   0.047  0.00  0.00     0.108 C 
BRANCH  11  12
ATOM     12  C   UNL d   1      20.617 -19.326   1.420  0.00  0.00     0.027 C 
BRANCH  12  13
ATOM     13  C   UNL d   1      19.652 -20.356   2.012  0.00  0.00     0.002 C 
BRANCH  13  14
ATOM     14  C   UNL d   1      18.336 -20.459   1.260  0.00  0.00    -0.004 C 
ATOM     15  C   UNL d   1      18.030 -21.925   0.981  0.00  0.00     0.005 C 
ENDBRANCH  13  14
ENDBRANCH  12  13
ENDBRANCH  11  12
BRANCH  11  16
ATOM     16  C   UNL d   1      20.273 -19.324  -1.126  0.00  0.00     0.189 C 
BRANCH  16  17
ATOM     17  O   UNL d   1      19.522 -18.139  -0.894  0.00  0.00    -0.399 OA
ATOM     18  H   UNL d   1      19.833 -17.466  -1.524  0.00  0.00     0.209 HD
ENDBRANCH  16  17
ENDBRANCH  11  16
ENDBRANCH   8  11
ENDBRANCH   1   7
BRANCH   5  19
ATOM     19  N   UNL d   1      25.799 -14.437  -2.206  0.00  0.00    -0.327 N 
ATOM     20  C   UNL d   1      25.589 -14.340  -3.577  0.00  0.00     0.221 C 
ATOM     21  O   UNL d   1      25.250 -15.271  -4.307  0.00  0.00    -0.273 OA
ATOM     22  H   UNL d   1      26.053 -13.604  -1.684  0.00  0.00     0.169 HD
BRANCH  20  23
ATOM     23  C   UNL d   1      25.801 -12.986  -4.212  0.00  0.00     0.098 C 
ATOM     24  C   UNL d   1      26.945 -13.123  -5.227  0.00  0.00     0.014 C 
ENDBRANCH  20  23
ENDBRANCH   5  19
TORSDOF 9
ENDMDL
MODEL 2
REMARK VINA RESULT:    -7.784      1.493      7.818
REMARK INTER + INTRA:         -11.883
REMARK INTER:                 -10.468
REMARK INTRA:                  -1.414
REMARK CONF_INDEPENDENT:        2.685
REMARK UNBOUND:                -1.414
REMARK  9 active torsions:
REMARK  status: ('A' for Active; 'I' for Inactive)
REMARK    1  A    between atoms: C_2  and  C_3 
REMARK    2  A    between atoms: C_3  and  C_4 
REMARK    3  A    between atoms: C_4  and  CA_5 
REMARK    4  A    between atoms: CA_5  and  C_6 
REMARK    5  A    between atoms: CA_5  and  N_8 
REMARK    6  A    between atoms: C_6  and  O_7 
REMARK       I    between atoms: N_8  and  C_9 
REMARK    7  A    between atoms: C_9  and  C_11 
REMARK    8  A    between atoms: C_15  and  N_16 
REMARK       I    between atoms: N_16  and  C_17 
REMARK    9  A    between atoms: C_17  and  C_19 
ROOT
ATOM      1  C   UNL d   1      25.341 -16.229  -1.605  0.00  0.00     0.034 A 
ATOM      2  C   UNL d   1      26.361 -16.915  -0.957  0.00  0.00     0.017 A 
ATOM      3  C   UNL d   1      26.036 -17.919  -0.037  0.00  0.00     0.003 A 
ATOM      4  C   UNL d   1      24.692 -18.207   0.269  0.00  0.00     0.029 A 
ATOM      5  C   UNL d   1      23.663 -17.517  -0.383  0.00  0.00     0.035 A 
ATOM      6  C   UNL d   1      24.022 -16.531  -1.308  0.00  0.00     0.046 A 
ENDROOT
BRANCH   1   7
ATOM      7  C   UNL d   1      25.607 -15.326  -2.746  0.00  0.00     0.252 C 
ATOM      8  N   UNL d   1      26.022 -14.031  -2.475  0.00  0.00    -0.350 N 
ATOM      9  H   UNL d   1      26.114 -13.721  -1.513  0.00  0.00     0.163 HD
ATOM     10  O   UNL d   1      25.430 -15.767  -3.884  0.00  0.00    -0.268 OA
BRANCH   8  11
ATOM     11  CA  UNL d   1      26.355 -13.091  -3.558  0.00  0.00     0.108 C 
BRANCH  11  12
ATOM     12  C   UNL d   1      27.651 -13.522  -4.292  0.00  0.00     0.027 C 
BRANCH  12  13
ATOM     13  C   UNL d   1      27.386 -14.485  -5.453  0.00  0.00     0.002 C 
BRANCH  13  14
ATOM     14  C   UNL d   1      28.630 -15.202  -5.946  0.00  0.00    -0.004 C 
ATOM     15  C   UNL d   1      29.280 -15.940  -4.782  0.00  0.00     0.005 C 
ENDBRANCH  13  14
ENDBRANCH  12  13
ENDBRANCH  11  12
BRANCH  11  16
ATOM     16  C   UNL d   1      25.157 -12.958  -4.537  0.00  0.00     0.189 C 
BRANCH  16  17
ATOM     17  O   UNL d   1      24.023 -13.751  -4.211  0.00  0.00    -0.399 OA
ATOM     18  H   UNL d   1      23.948 -14.448  -4.885  0.00  0.00     0.209 HD
ENDBRANCH  16  17
ENDBRANCH  11  16
ENDBRANCH   8  11
ENDBRANCH   1   7
BRANCH   5  19
ATOM     19  N   UNL d   1      22.294 -17.842  -0.149  0.00  0.00    -0.327 N 
ATOM     20  C   UNL d   1      21.578 -18.736  -0.938  0.00  0.00     0.221 C 
ATOM     21  O   UNL d   1      22.023 -19.324  -1.923  0.00  0.00    -0.273 OA
ATOM     22  H   UNL d   1      21.845 -17.426   0.660  0.00  0.00     0.169 HD
BRANCH  20  23
ATOM     23  C   UNL d   1      20.140 -18.994  -0.553  0.00  0.00     0.098 C 
ATOM     24  C   UNL d   1      20.128 -20.156   0.448  0.00  0.00     0.014 C 
ENDBRANCH  20  23
ENDBRANCH   5  19
TORSDOF 9
ENDMDL
MODEL 3
REMARK VINA RESULT:    -7.549      1.614      8.200
REMARK INTER + INTRA:         -11.761
REMARK INTER:                 -10.234
REMARK INTRA:                  -1.527
REMARK CONF_INDEPENDENT:        2.685
REMARK UNBOUND:                -1.527
REMARK  9 active torsions:
REMARK  status: ('A' for Active; 'I' for Inactive)
REMARK    1  A    between atoms: C_2  and  C_3 
REMARK    2  A    between atoms: C_3  and  C_4 
REMARK    3  A    between atoms: C_4  and  CA_5 
REMARK    4  A    between atoms: CA_5  and  C_6 
REMARK    5  A    between atoms: CA_5  and  N_8 
REMARK    6  A    between atoms: C_6  and  O_7 
REMARK       I    between atoms: N_8  and  C_9 
REMARK    7  A    between atoms: C_9  and  C_11 
REMARK    8  A    between atoms: C_15  and  N_16 
REMARK       I    between atoms: N_16  and  C_17 
REMARK    9  A    between atoms: C_17  and  C_19 
ROOT
ATOM      1  C   UNL d   1      24.843 -16.225  -1.637  0.00  0.00     0.034 A 
ATOM      2  C   UNL d   1      25.980 -16.840  -1.126  0.00  0.00     0.017 A 
ATOM      3  C   UNL d   1      25.839 -17.889  -0.210  0.00  0.00     0.003 A 
ATOM      4  C   UNL d   1      24.564 -18.293   0.230  0.00  0.00     0.029 A 
ATOM      5  C   UNL d   1      23.418 -17.675  -0.283  0.00  0.00     0.035 A 
ATOM      6  C   UNL d   1      23.593 -16.641  -1.209  0.00  0.00     0.046 A 
ENDROOT
BRANCH   1   7
ATOM      7  C   UNL d   1      24.910 -15.276  -2.770  0.00  0.00     0.252 C 
ATOM      8  N   UNL d   1      25.996 -15.355  -3.629  0.00  0.00    -0.350 N 
ATOM      9  H   UNL d   1      26.728 -16.037  -3.457  0.00  0.00     0.163 HD
ATOM     10  O   UNL d   1      24.003 -14.450  -2.885  0.00  0.00    -0.268 OA
BRANCH   8  11
ATOM     11  CA  UNL d   1      26.106 -14.479  -4.807  0.00  0.00     0.108 C 
BRANCH  11  12
ATOM     12  C   UNL d   1      25.968 -12.987  -4.409  0.00  0.00     0.027 C 
BRANCH  12  13
ATOM     13  C   UNL d   1      26.739 -12.048  -5.342  0.00  0.00     0.002 C 
BRANCH  13  14
ATOM     14  C   UNL d   1      25.905 -10.894  -5.869  0.00  0.00    -0.004 C 
ATOM     15  C   UNL d   1      25.567  -9.951  -4.721  0.00  0.00     0.005 C 
ENDBRANCH  13  14
ENDBRANCH  12  13
ENDBRANCH  11  12
BRANCH  11  16
ATOM     16  C   UNL d   1      27.438 -14.754  -5.555  0.00  0.00     0.189 C 
BRANCH  16  17
ATOM     17  O   UNL d   1      28.160 -15.892  -5.099  0.00  0.00    -0.399 OA
ATOM     18  H   UNL d   1      28.832 -16.101  -5.769  0.00  0.00     0.209 HD
ENDBRANCH  16  17
ENDBRANCH  11  16
ENDBRANCH   8  11
ENDBRANCH   1   7
BRANCH   5  19
ATOM     19  N   UNL d   1      22.113 -18.116   0.086  0.00  0.00    -0.327 N 
ATOM     20  C   UNL d   1      21.323 -18.922  -0.726  0.00  0.00     0.221 C 
ATOM     21  O   UNL d   1      21.638 -19.325  -1.845  0.00  0.00    -0.273 OA
ATOM     22  H   UNL d   1      21.774 -17.857   1.006  0.00  0.00     0.169 HD
BRANCH  20  23
ATOM     23  C   UNL d   1      19.969 -19.325  -0.188  0.00  0.00     0.098 C 
ATOM     24  C   UNL d   1      20.195 -20.035   1.154  0.00  0.00     0.014 C 
ENDBRANCH  20  23
ENDBRANCH   5  19
TORSDOF 9
ENDMDL
MODEL 4
REMARK VINA RESULT:    -7.192      1.569      7.760
REMARK INTER + INTRA:         -11.660
REMARK INTER:                  -9.877
REMARK INTRA:                  -1.784
REMARK CONF_INDEPENDENT:        2.685
REMARK UNBOUND:                -1.784
REMARK  9 active torsions:
REMARK  status: ('A' for Active; 'I' for Inactive)
REMARK    1  A    between atoms: C_2  and  C_3 
REMARK    2  A    between atoms: C_3  and  C_4 
REMARK    3  A    between atoms: C_4  and  CA_5 
REMARK    4  A    between atoms: CA_5  and  C_6 
REMARK    5  A    between atoms: CA_5  and  N_8 
REMARK    6  A    between atoms: C_6  and  O_7 
REMARK       I    between atoms: N_8  and  C_9 
REMARK    7  A    between atoms: C_9  and  C_11 
REMARK    8  A    between atoms: C_15  and  N_16 
REMARK       I    between atoms: N_16  and  C_17 
REMARK    9  A    between atoms: C_17  and  C_19 
ROOT
ATOM      1  C   UNL d   1      24.748 -16.110  -1.620  0.00  0.00     0.034 A 
ATOM      2  C   UNL d   1      25.908 -16.706  -1.139  0.00  0.00     0.017 A 
ATOM      3  C   UNL d   1      25.810 -17.772  -0.238  0.00  0.00     0.003 A 
ATOM      4  C   UNL d   1      24.554 -18.215   0.218  0.00  0.00     0.029 A 
ATOM      5  C   UNL d   1      23.383 -17.617  -0.264  0.00  0.00     0.035 A 
ATOM      6  C   UNL d   1      23.516 -16.565  -1.176  0.00  0.00     0.046 A 
ENDROOT
BRANCH   1   7
ATOM      7  C   UNL d   1      24.770 -15.143  -2.738  0.00  0.00     0.252 C 
ATOM      8  N   UNL d   1      25.919 -15.058  -3.510  0.00  0.00    -0.350 N 
ATOM      9  H   UNL d   1      26.722 -15.638  -3.286  0.00  0.00     0.163 HD
ATOM     10  O   UNL d   1      23.769 -14.445  -2.917  0.00  0.00    -0.268 OA
BRANCH   8  11
ATOM     11  CA  UNL d   1      25.996 -14.156  -4.671  0.00  0.00     0.108 C 
BRANCH  11  12
ATOM     12  C   UNL d   1      25.899 -12.672  -4.232  0.00  0.00     0.027 C 
BRANCH  12  13
ATOM     13  C   UNL d   1      26.289 -12.458  -2.767  0.00  0.00     0.002 C 
BRANCH  13  14
ATOM     14  C   UNL d   1      27.713 -12.878  -2.449  0.00  0.00    -0.004 C 
ATOM     15  C   UNL d   1      27.735 -13.612  -1.114  0.00  0.00     0.005 C 
ENDBRANCH  13  14
ENDBRANCH  12  13
ENDBRANCH  11  12
BRANCH  11  16
ATOM     16  C   UNL d   1      27.295 -14.433  -5.476  0.00  0.00     0.189 C 
BRANCH  16  17
ATOM     17  O   UNL d   1      28.027 -15.579  -5.061  0.00  0.00    -0.399 OA
ATOM     18  H   UNL d   1      28.788 -15.674  -5.658  0.00  0.00     0.209 HD
ENDBRANCH  16  17
ENDBRANCH  11  16
ENDBRANCH   8  11
ENDBRANCH   1   7
BRANCH   5  19
ATOM     19  N   UNL d   1      22.097 -18.098   0.121  0.00  0.00    -0.327 N 
ATOM     20  C   UNL d   1      21.322 -18.928  -0.680  0.00  0.00     0.221 C 
ATOM     21  O   UNL d   1      21.636 -19.323  -1.803  0.00  0.00    -0.273 OA
ATOM     22  H   UNL d   1      21.762 -17.847   1.045  0.00  0.00     0.169 HD
BRANCH  20  23
ATOM     23  C   UNL d   1      19.988 -19.371  -0.125  0.00  0.00     0.098 C 
ATOM     24  C   UNL d   1      20.194 -19.727   1.353  0.00  0.00     0.014 C 
ENDBRANCH  20  23
ENDBRANCH   5  19
TORSDOF 9
ENDMDL
MODEL 5
REMARK VINA RESULT:    -6.928      2.581      7.977
REMARK INTER + INTRA:         -10.722
REMARK INTER:                  -9.613
REMARK INTRA:                  -1.109
REMARK CONF_INDEPENDENT:        2.685
REMARK UNBOUND:                -1.109
REMARK  9 active torsions:
REMARK  status: ('A' for Active; 'I' for Inactive)
REMARK    1  A    between atoms: C_2  and  C_3 
REMARK    2  A    between atoms: C_3  and  C_4 
REMARK    3  A    between atoms: C_4  and  CA_5 
REMARK    4  A    between atoms: CA_5  and  C_6 
REMARK    5  A    between atoms: CA_5  and  N_8 
REMARK    6  A    between atoms: C_6  and  O_7 
REMARK       I    between atoms: N_8  and  C_9 
REMARK    7  A    between atoms: C_9  and  C_11 
REMARK    8  A    between atoms: C_15  and  N_16 
REMARK       I    between atoms: N_16  and  C_17 
REMARK    9  A    between atoms: C_17  and  C_19 
ROOT
ATOM      1  C   UNL d   1      24.922 -17.500  -0.556  0.00  0.00     0.034 A 
ATOM      2  C   UNL d   1      24.501 -16.318  -1.155  0.00  0.00     0.017 A 
ATOM      3  C   UNL d   1      23.131 -16.055  -1.265  0.00  0.00     0.003 A 
ATOM      4  C   UNL d   1      22.179 -16.992  -0.818  0.00  0.00     0.029 A 
ATOM      5  C   UNL d   1      22.601 -18.183  -0.215  0.00  0.00     0.035 A 
ATOM      6  C   UNL d   1      23.977 -18.408  -0.106  0.00  0.00     0.046 A 
ENDROOT
BRANCH   1   7
ATOM      7  C   UNL d   1      26.338 -17.736  -0.202  0.00  0.00     0.252 C 
ATOM      8  N   UNL d   1      27.285 -16.822  -0.639  0.00  0.00    -0.350 N 
ATOM      9  H   UNL d   1      26.999 -16.029  -1.205  0.00  0.00     0.163 HD
ATOM     10  O   UNL d   1      26.608 -18.745   0.452  0.00  0.00    -0.268 OA
BRANCH   8  11
ATOM     11  CA  UNL d   1      28.706 -16.963  -0.282  0.00  0.00     0.108 C 
BRANCH  11  12
ATOM     12  C   UNL d   1      29.575 -17.220  -1.540  0.00  0.00     0.027 C 
BRANCH  12  13
ATOM     13  C   UNL d   1      28.930 -16.697  -2.826  0.00  0.00     0.002 C 
BRANCH  13  14
ATOM     14  C   UNL d   1      28.590 -15.218  -2.779  0.00  0.00    -0.004 C 
ATOM     15  C   UNL d   1      27.567 -14.901  -3.862  0.00  0.00     0.005 C 
ENDBRANCH  13  14
ENDBRANCH  12  13
ENDBRANCH  11  12
BRANCH  11  16
ATOM     16  C   UNL d   1      29.186 -15.711   0.502  0.00  0.00     0.189 C 
BRANCH  16  17
ATOM     17  O   UNL d   1      28.280 -15.237   1.490  0.00  0.00    -0.399 OA
ATOM     18  H   UNL d   1      28.636 -15.485   2.360  0.00  0.00     0.209 HD
ENDBRANCH  16  17
ENDBRANCH  11  16
ENDBRANCH   8  11
ENDBRANCH   1   7
BRANCH   5  19
ATOM     19  N   UNL d   1      21.660 -19.113   0.316  0.00  0.00    -0.327 N 
ATOM     20  C   UNL d   1      20.656 -19.702  -0.445  0.00  0.00     0.221 C 
ATOM     21  O   UNL d   1      20.450 -19.479  -1.638  0.00  0.00    -0.273 OA
ATOM     22  H   UNL d   1      21.765 -19.381   1.289  0.00  0.00     0.169 HD
BRANCH  20  23
ATOM     23  C   UNL d   1      19.747 -20.684   0.256  0.00  0.00     0.098 C 
ATOM     24  C   UNL d   1      19.445 -20.124   1.652  0.00  0.00     0.014 C 
ENDBRANCH  20  23
ENDBRANCH   5  19
TORSDOF 9
ENDMDL
MODEL 6
REMARK VINA RESULT:    -6.359      2.549      4.841
REMARK INTER + INTRA:         -10.473
REMARK INTER:                  -9.044
REMARK INTRA:                  -1.429
REMARK CONF_INDEPENDENT:        2.685
REMARK UNBOUND:                -1.429
REMARK  9 active torsions:
REMARK  status: ('A' for Active; 'I' for Inactive)
REMARK    1  A    between atoms: C_2  and  C_3 
REMARK    2  A    between atoms: C_3  and  C_4 
REMARK    3  A    between atoms: C_4  and  CA_5 
REMARK    4  A    between atoms: CA_5  and  C_6 
REMARK    5  A    between atoms: CA_5  and  N_8 
REMARK    6  A    between atoms: C_6  and  O_7 
REMARK       I    between atoms: N_8  and  C_9 
REMARK    7  A    between atoms: C_9  and  C_11 
REMARK    8  A    between atoms: C_15  and  N_16 
REMARK       I    between atoms: N_16  and  C_17 
REMARK    9  A    between atoms: C_17  and  C_19 
ROOT
ATOM      1  C   UNL d   1      25.849 -15.037  -3.439  0.00  0.00     0.034 A 
ATOM      2  C   UNL d   1      26.993 -15.513  -4.069  0.00  0.00     0.017 A 
ATOM      3  C   UNL d   1      27.663 -14.695  -4.985  0.00  0.00     0.003 A 
ATOM      4  C   UNL d   1      27.165 -13.417  -5.307  0.00  0.00     0.029 A 
ATOM      5  C   UNL d   1      26.012 -12.936  -4.675  0.00  0.00     0.035 A 
ATOM      6  C   UNL d   1      25.376 -13.773  -3.752  0.00  0.00     0.046 A 
ENDROOT
BRANCH   1   7
ATOM      7  C   UNL d   1      25.229 -15.750  -2.301  0.00  0.00     0.252 C 
ATOM      8  N   UNL d   1      25.992 -16.683  -1.615  0.00  0.00    -0.350 N 
ATOM      9  H   UNL d   1      26.944 -16.874  -1.914  0.00  0.00     0.163 HD
ATOM     10  O   UNL d   1      24.055 -15.490  -2.029  0.00  0.00    -0.268 OA
BRANCH   8  11
ATOM     11  CA  UNL d   1      25.461 -17.393  -0.441  0.00  0.00     0.108 C 
BRANCH  11  12
ATOM     12  C   UNL d   1      24.344 -18.388  -0.849  0.00  0.00     0.027 C 
BRANCH  12  13
ATOM     13  C   UNL d   1      23.051 -18.191  -0.053  0.00  0.00     0.002 C 
BRANCH  13  14
ATOM     14  C   UNL d   1      21.794 -18.288  -0.900  0.00  0.00    -0.004 C 
ATOM     15  C   UNL d   1      20.861 -19.332  -0.298  0.00  0.00     0.005 C 
ENDBRANCH  13  14
ENDBRANCH  12  13
ENDBRANCH  11  12
BRANCH  11  16
ATOM     16  C   UNL d   1      26.613 -18.103   0.320  0.00  0.00     0.189 C 
BRANCH  16  17
ATOM     17  O   UNL d   1      27.894 -17.989  -0.285  0.00  0.00    -0.399 OA
ATOM     18  H   UNL d   1      28.560 -18.072   0.418  0.00  0.00     0.209 HD
ENDBRANCH  16  17
ENDBRANCH  11  16
ENDBRANCH   8  11
ENDBRANCH   1   7
BRANCH   5  19
ATOM     19  N   UNL d   1      25.531 -11.617  -4.924  0.00  0.00    -0.327 N 
ATOM     20  C   UNL d   1      25.907 -10.864  -6.031  0.00  0.00     0.221 C 
ATOM     21  O   UNL d   1      26.700 -11.229  -6.898  0.00  0.00    -0.273 OA
ATOM     22  H   UNL d   1      24.849 -11.238  -4.276  0.00  0.00     0.169 HD
BRANCH  20  23
ATOM     23  C   UNL d   1      25.296  -9.489  -6.168  0.00  0.00     0.098 C 
ATOM     24  C   UNL d   1      24.930  -9.000  -4.761  0.00  0.00     0.014 C 
ENDBRANCH  20  23
ENDBRANCH   5  19
TORSDOF 9
ENDMDL
MODEL 7
REMARK VINA RESULT:    -6.082      3.243      6.025
REMARK INTER + INTRA:         -10.250
REMARK INTER:                  -8.767
REMARK INTRA:                  -1.483
REMARK CONF_INDEPENDENT:        2.685
REMARK UNBOUND:                -1.483
REMARK  9 active torsions:
REMARK  status: ('A' for Active; 'I' for Inactive)
REMARK    1  A    between atoms: C_2  and  C_3 
REMARK    2  A    between atoms: C_3  and  C_4 
REMARK    3  A    between atoms: C_4  and  CA_5 
REMARK    4  A    between atoms: CA_5  and  C_6 
REMARK    5  A    between atoms: CA_5  and  N_8 
REMARK    6  A    between atoms: C_6  and  O_7 
REMARK       I    between atoms: N_8  and  C_9 
REMARK    7  A    between atoms: C_9  and  C_11 
REMARK    8  A    between atoms: C_15  and  N_16 
REMARK       I    between atoms: N_16  and  C_17 
REMARK    9  A    between atoms: C_17  and  C_19 
ROOT
ATOM      1  C   UNL d   1      26.782 -14.399  -4.148  0.00  0.00     0.034 A 
ATOM      2  C   UNL d   1      26.543 -13.098  -4.576  0.00  0.00     0.017 A 
ATOM      3  C   UNL d   1      27.207 -12.616  -5.709  0.00  0.00     0.003 A 
ATOM      4  C   UNL d   1      28.144 -13.417  -6.390  0.00  0.00     0.029 A 
ATOM      5  C   UNL d   1      28.387 -14.727  -5.961  0.00  0.00     0.035 A 
ATOM      6  C   UNL d   1      27.696 -15.184  -4.834  0.00  0.00     0.046 A 
ENDROOT
BRANCH   1   7
ATOM      7  C   UNL d   1      25.954 -15.045  -3.108  0.00  0.00     0.252 C 
ATOM      8  N   UNL d   1      26.587 -15.844  -2.166  0.00  0.00    -0.350 N 
ATOM      9  H   UNL d   1      27.591 -15.986  -2.219  0.00  0.00     0.163 HD
ATOM     10  O   UNL d   1      24.736 -14.856  -3.139  0.00  0.00    -0.268 OA
BRANCH   8  11
ATOM     11  CA  UNL d   1      25.836 -16.478  -1.071  0.00  0.00     0.108 C 
BRANCH  11  12
ATOM     12  C   UNL d   1      24.699 -17.377  -1.621  0.00  0.00     0.027 C 
BRANCH  12  13
ATOM     13  C   UNL d   1      23.599 -17.642  -0.590  0.00  0.00     0.002 C 
BRANCH  13  14
ATOM     14  C   UNL d   1      22.879 -18.964  -0.793  0.00  0.00    -0.004 C 
ATOM     15  C   UNL d   1      21.380 -18.712  -0.895  0.00  0.00     0.005 C 
ENDBRANCH  13  14
ENDBRANCH  12  13
ENDBRANCH  11  12
BRANCH  11  16
ATOM     16  C   UNL d   1      26.803 -17.273  -0.151  0.00  0.00     0.189 C 
BRANCH  16  17
ATOM     17  O   UNL d   1      28.141 -17.368  -0.624  0.00  0.00    -0.399 OA
ATOM     18  H   UNL d   1      28.677 -17.753   0.089  0.00  0.00     0.209 HD
ENDBRANCH  16  17
ENDBRANCH  11  16
ENDBRANCH   8  11
ENDBRANCH   1   7
BRANCH   5  19
ATOM     19  N   UNL d   1      29.273 -15.585  -6.677  0.00  0.00    -0.327 N 
ATOM     20  C   UNL d   1      30.038 -16.573  -6.067  0.00  0.00     0.221 C 
ATOM     21  O   UNL d   1      30.059 -16.805  -4.858  0.00  0.00    -0.273 OA
ATOM     22  H   UNL d   1      29.305 -15.487  -7.686  0.00  0.00     0.169 HD
BRANCH  20  23
ATOM     23  C   UNL d   1      30.914 -17.417  -6.962  0.00  0.00     0.098 C 
ATOM     24  C   UNL d   1      30.757 -18.879  -6.523  0.00  0.00     0.014 C 
ENDBRANCH  20  23
ENDBRANCH   5  19
TORSDOF 9
ENDMDL
MODEL 8
REMARK VINA RESULT:    -5.835      2.988      8.438
REMARK INTER + INTRA:          -9.904
REMARK INTER:                  -8.520
REMARK INTRA:                  -1.385
REMARK CONF_INDEPENDENT:        2.685
REMARK UNBOUND:                -1.385
REMARK  9 active torsions:
REMARK  status: ('A' for Active; 'I' for Inactive)
REMARK    1  A    between atoms: C_2  and  C_3 
REMARK    2  A    between atoms: C_3  and  C_4 
REMARK    3  A    between atoms: C_4  and  CA_5 
REMARK    4  A    between atoms: CA_5  and  C_6 
REMARK    5  A    between atoms: CA_5  and  N_8 
REMARK    6  A    between atoms: C_6  and  O_7 
REMARK       I    between atoms: N_8  and  C_9 
REMARK    7  A    between atoms: C_9  and  C_11 
REMARK    8  A    between atoms: C_15  and  N_16 
REMARK       I    between atoms: N_16  and  C_17 
REMARK    9  A    between atoms: C_17  and  C_19 
ROOT
ATOM      1  C   UNL d   1      25.125 -17.538  -0.480  0.00  0.00     0.034 A 
ATOM      2  C   UNL d   1      24.608 -16.349  -0.979  0.00  0.00     0.017 A 
ATOM      3  C   UNL d   1      23.223 -16.209  -1.123  0.00  0.00     0.003 A 
ATOM      4  C   UNL d   1      22.356 -17.274  -0.810  0.00  0.00     0.029 A 
ATOM      5  C   UNL d   1      22.874 -18.473  -0.307  0.00  0.00     0.035 A 
ATOM      6  C   UNL d   1      24.262 -18.574  -0.161  0.00  0.00     0.046 A 
ENDROOT
BRANCH   1   7
ATOM      7  C   UNL d   1      26.545 -17.671  -0.089  0.00  0.00     0.252 C 
ATOM      8  N   UNL d   1      27.438 -16.700  -0.519  0.00  0.00    -0.350 N 
ATOM      9  H   UNL d   1      27.112 -15.937  -1.104  0.00  0.00     0.163 HD
ATOM     10  O   UNL d   1      26.868 -18.650   0.587  0.00  0.00    -0.268 OA
BRANCH   8  11
ATOM     11  CA  UNL d   1      28.856 -16.737  -0.127  0.00  0.00     0.108 C 
BRANCH  11  12
ATOM     12  C   UNL d   1      29.615 -17.858  -0.883  0.00  0.00     0.027 C 
BRANCH  12  13
ATOM     13  C   UNL d   1      30.953 -17.387  -1.460  0.00  0.00     0.002 C 
BRANCH  13  14
ATOM     14  C   UNL d   1      32.161 -18.030  -0.801  0.00  0.00    -0.004 C 
ATOM     15  C   UNL d   1      32.261 -17.553   0.642  0.00  0.00     0.005 C 
ENDBRANCH  13  14
ENDBRANCH  12  13
ENDBRANCH  11  12
BRANCH  11  16
ATOM     16  C   UNL d   1      29.509 -15.347  -0.354  0.00  0.00     0.189 C 
BRANCH  16  17
ATOM     17  O   UNL d   1      28.719 -14.424  -1.093  0.00  0.00    -0.399 OA
ATOM     18  H   UNL d   1      29.305 -13.710  -1.393  0.00  0.00     0.209 HD
ENDBRANCH  16  17
ENDBRANCH  11  16
ENDBRANCH   8  11
ENDBRANCH   1   7
BRANCH   5  19
ATOM     19  N   UNL d   1      22.014 -19.539   0.091  0.00  0.00    -0.327 N 
ATOM     20  C   UNL d   1      20.665 -19.594  -0.241  0.00  0.00     0.221 C 
ATOM     21  O   UNL d   1      20.059 -18.738  -0.885  0.00  0.00    -0.273 OA
ATOM     22  H   UNL d   1      22.430 -20.309   0.605  0.00  0.00     0.169 HD
BRANCH  20  23
ATOM     23  C   UNL d   1      19.887 -20.798   0.237  0.00  0.00     0.098 C 
ATOM     24  C   UNL d   1      18.396 -20.446   0.169  0.00  0.00     0.014 C 
ENDBRANCH  20  23
ENDBRANCH   5  19
TORSDOF 9
ENDMDL
MODEL 9
REMARK VINA RESULT:    -5.829      4.656      8.271
REMARK INTER + INTRA:          -9.956
REMARK INTER:                  -8.514
REMARK INTRA:                  -1.443
REMARK CONF_INDEPENDENT:        2.685
REMARK UNBOUND:                -1.443
REMARK  9 active torsions:
REMARK  status: ('A' for Active; 'I' for Inactive)
REMARK    1  A    between atoms: C_2  and  C_3 
REMARK    2  A    between atoms: C_3  and  C_4 
REMARK    3  A    between atoms: C_4  and  CA_5 
REMARK    4  A    between atoms: CA_5  and  C_6 
REMARK    5  A    between atoms: CA_5  and  N_8 
REMARK    6  A    between atoms: C_6  and  O_7 
REMARK       I    between atoms: N_8  and  C_9 
REMARK    7  A    between atoms: C_9  and  C_11 
REMARK    8  A    between atoms: C_15  and  N_16 
REMARK       I    between atoms: N_16  and  C_17 
REMARK    9  A    between atoms: C_17  and  C_19 
ROOT
ATOM      1  C   UNL d   1      26.739 -14.681   0.083  0.00  0.00     0.034 A 
ATOM      2  C   UNL d   1      26.875 -13.968  -1.102  0.00  0.00     0.017 A 
ATOM      3  C   UNL d   1      26.305 -14.472  -2.276  0.00  0.00     0.003 A 
ATOM      4  C   UNL d   1      25.639 -15.713  -2.277  0.00  0.00     0.029 A 
ATOM      5  C   UNL d   1      25.501 -16.434  -1.085  0.00  0.00     0.035 A 
ATOM      6  C   UNL d   1      26.068 -15.894   0.074  0.00  0.00     0.046 A 
ENDROOT
BRANCH   1   7
ATOM      7  C   UNL d   1      27.111 -14.103   1.392  0.00  0.00     0.252 C 
ATOM      8  N   UNL d   1      28.203 -14.636   2.059  0.00  0.00    -0.350 N 
ATOM      9  H   UNL d   1      28.710 -15.418   1.654  0.00  0.00     0.163 HD
ATOM     10  O   UNL d   1      26.418 -13.184   1.835  0.00  0.00    -0.268 OA
BRANCH   8  11
ATOM     11  CA  UNL d   1      28.665 -14.080   3.342  0.00  0.00     0.108 C 
BRANCH  11  12
ATOM     12  C   UNL d   1      27.852 -14.662   4.527  0.00  0.00     0.027 C 
BRANCH  12  13
ATOM     13  C   UNL d   1      28.202 -14.007   5.867  0.00  0.00     0.002 C 
BRANCH  13  14
ATOM     14  C   UNL d   1      27.956 -12.509   5.895  0.00  0.00    -0.004 C 
ATOM     15  C   UNL d   1      28.530 -11.929   7.181  0.00  0.00     0.005 C 
ENDBRANCH  13  14
ENDBRANCH  12  13
ENDBRANCH  11  12
BRANCH  11  16
ATOM     16  C   UNL d   1      30.188 -14.325   3.513  0.00  0.00     0.189 C 
BRANCH  16  17
ATOM     17  O   UNL d   1      30.807 -15.035   2.448  0.00  0.00    -0.399 OA
ATOM     18  H   UNL d   1      30.487 -15.953   2.481  0.00  0.00     0.209 HD
ENDBRANCH  16  17
ENDBRANCH  11  16
ENDBRANCH   8  11
ENDBRANCH   1   7
BRANCH   5  19
ATOM     19  N   UNL d   1      24.763 -17.654  -1.043  0.00  0.00    -0.327 N 
ATOM     20  C   UNL d   1      23.400 -17.711  -0.778  0.00  0.00     0.221 C 
ATOM     21  O   UNL d   1      22.685 -16.740  -0.533  0.00  0.00    -0.273 OA
ATOM     22  H   UNL d   1      25.262 -18.510  -1.259  0.00  0.00     0.169 HD
BRANCH  20  23
ATOM     23  C   UNL d   1      22.754 -19.077  -0.787  0.00  0.00     0.098 C 
ATOM     24  C   UNL d   1      21.389 -18.951  -0.097  0.00  0.00     0.014 C 
ENDBRANCH  20  23
ENDBRANCH   5  19
TORSDOF 9
ENDMDL
