MODEL 1
REMARK VINA RESULT:    -9.579      0.000      0.000
REMARK INTER + INTRA:         -11.830
REMARK INTER:                 -11.070
REMARK INTRA:                  -0.760
REMARK CONF_INDEPENDENT:        1.492
REMARK UNBOUND:                -0.760
REMARK  5 active torsions:
REMARK  status: ('A' for Active; 'I' for Inactive)
REMARK    1  A    between atoms: C_10  and  O_11 
REMARK    2  A    between atoms: C_13  and  C_14 
REMARK    3  A    between atoms: C_17  and  O_18 
REMARK    4  A    between atoms: O_18  and  C_19 
REMARK    5  A    between atoms: C_19  and  C_21 
ROOT
ATOM      1  C   UNL d   1      29.121 -10.253  -0.277  0.00  0.00     0.270 C 
ATOM      2  N   UNL d   1      27.614 -10.291  -0.367  0.00  0.00    -0.070 N 
ATOM      3  C   UNL d   1      26.960 -10.908   0.864  0.00  0.00     0.239 C 
ATOM      4  C   UNL d   1      27.483 -12.328   1.077  0.00  0.00     0.068 C 
ATOM      5  C   UNL d   1      27.469 -13.119  -0.192  0.00  0.00    -0.024 A 
ATOM      6  C   UNL d   1      27.303 -12.507  -1.430  0.00  0.00     0.018 A 
ATOM      7  S   UNL d   1      27.323 -13.631  -2.712  0.00  0.00    -0.074 SA
ATOM      8  C   UNL d   1      27.555 -14.925  -1.633  0.00  0.00     0.087 A 
ATOM      9  C   UNL d   1      27.651 -14.527  -0.316  0.00  0.00     0.057 A 
ATOM     10  C   UNL d   1      27.844 -15.571   0.682  0.00  0.00     0.173 C 
ATOM     11  N   UNL d   1      27.681 -16.817   0.444  0.00  0.00    -0.235 NA
ATOM     12  C   UNL d   1      27.206 -17.160  -0.899  0.00  0.00     0.243 C 
ATOM     13  N   UNL d   1      27.595 -16.231  -1.955  0.00  0.00    -0.357 N 
ATOM     14  C   UNL d   1      27.145 -11.028  -1.631  0.00  0.00     0.281 C 
ATOM     15  H   UNL d   1      27.287  -9.319  -0.434  0.00  0.00     0.279 HD
ATOM     16  H   UNL d   1      27.580 -16.593  -2.902  0.00  0.00     0.162 HD
ENDROOT
BRANCH  12  17
ATOM     17  C   UNL d   1      25.684 -17.362  -0.862  0.00  0.00    -0.014 A 
ATOM     18  C   UNL d   1      24.765 -16.443  -1.413  0.00  0.00     0.014 A 
ATOM     19  C   UNL d   1      23.374 -16.562  -1.214  0.00  0.00     0.038 A 
ATOM     20  C   UNL d   1      22.870 -17.661  -0.514  0.00  0.00     0.079 A 
ATOM     21  C   UNL d   1      23.775 -18.575   0.022  0.00  0.00     0.038 A 
ATOM     22  C   UNL d   1      25.157 -18.433  -0.146  0.00  0.00     0.014 A 
BRANCH  20  23
ATOM     23  O   UNL d   1      21.447 -17.823  -0.399  0.00  0.00    -0.275 OA
BRANCH  23  24
ATOM     24  C   UNL d   1      20.740 -18.976  -0.838  0.00  0.00     0.305 C 
ATOM     25  O   UNL d   1      20.841 -19.476  -1.965  0.00  0.00    -0.258 OA
BRANCH  24  26
ATOM     26  C   UNL d   1      19.853 -19.545   0.159  0.00  0.00     0.080 A 
ATOM     27  C   UNL d   1      20.058 -19.634   1.532  0.00  0.00     0.025 A 
ATOM     28  C   UNL d   1      19.083 -20.449   2.185  0.00  0.00     0.009 A 
ATOM     29  C   UNL d   1      18.187 -20.980   1.286  0.00  0.00     0.050 A 
ATOM     30  S   UNL d   1      18.483 -20.451  -0.315  0.00  0.00    -0.096 SA
ENDBRANCH  24  26
ENDBRANCH  23  24
ENDBRANCH  20  23
ENDBRANCH  12  17
BRANCH  10  31
ATOM     31  O   UNL d   1      28.195 -15.214   1.933  0.00  0.00    -0.344 OA
ATOM     32  H   UNL d   1      29.137 -15.242   2.107  0.00  0.00     0.219 HD
ENDBRANCH  10  31
TORSDOF 5
ENDMDL
MODEL 2
REMARK VINA RESULT:    -9.506      2.626      3.843
REMARK INTER + INTRA:         -11.768
REMARK INTER:                 -10.998
REMARK INTRA:                  -0.771
REMARK CONF_INDEPENDENT:        1.492
REMARK UNBOUND:                -0.771
REMARK  5 active torsions:
REMARK  status: ('A' for Active; 'I' for Inactive)
REMARK    1  A    between atoms: C_10  and  O_11 
REMARK    2  A    between atoms: C_13  and  C_14 
REMARK    3  A    between atoms: C_17  and  O_18 
REMARK    4  A    between atoms: O_18  and  C_19 
REMARK    5  A    between atoms: C_19  and  C_21 
ROOT
ATOM      1  C   UNL d   1      30.560 -14.039  -6.126  0.00  0.00     0.270 C 
ATOM      2  N   UNL d   1      29.441 -15.004  -6.441  0.00  0.00    -0.070 N 
ATOM      3  C   UNL d   1      28.057 -14.389  -6.263  0.00  0.00     0.239 C 
ATOM      4  C   UNL d   1      27.892 -13.884  -4.830  0.00  0.00     0.068 C 
ATOM      5  C   UNL d   1      28.339 -14.902  -3.829  0.00  0.00    -0.024 A 
ATOM      6  C   UNL d   1      29.095 -16.008  -4.203  0.00  0.00     0.018 A 
ATOM      7  S   UNL d   1      29.470 -17.010  -2.875  0.00  0.00    -0.074 SA
ATOM      8  C   UNL d   1      28.638 -15.982  -1.807  0.00  0.00     0.087 A 
ATOM      9  C   UNL d   1      28.102 -14.871  -2.424  0.00  0.00     0.057 A 
ATOM     10  C   UNL d   1      27.364 -13.935  -1.585  0.00  0.00     0.173 C 
ATOM     11  N   UNL d   1      26.978 -14.203  -0.396  0.00  0.00    -0.235 NA
ATOM     12  C   UNL d   1      27.254 -15.560   0.081  0.00  0.00     0.243 C 
ATOM     13  N   UNL d   1      28.435 -16.195  -0.494  0.00  0.00    -0.357 N 
ATOM     14  C   UNL d   1      29.554 -16.288  -5.605  0.00  0.00     0.281 C 
ATOM     15  H   UNL d   1      29.534 -15.268  -7.430  0.00  0.00     0.279 HD
ATOM     16  H   UNL d   1      28.837 -16.962   0.036  0.00  0.00     0.162 HD
ENDROOT
BRANCH  12  17
ATOM     17  C   UNL d   1      26.002 -16.428  -0.108  0.00  0.00    -0.014 A 
ATOM     18  C   UNL d   1      25.955 -17.804   0.206  0.00  0.00     0.014 A 
ATOM     19  C   UNL d   1      24.854 -18.615  -0.137  0.00  0.00     0.038 A 
ATOM     20  C   UNL d   1      23.735 -18.038  -0.742  0.00  0.00     0.079 A 
ATOM     21  C   UNL d   1      23.775 -16.678  -1.044  0.00  0.00     0.038 A 
ATOM     22  C   UNL d   1      24.884 -15.883  -0.735  0.00  0.00     0.014 A 
BRANCH  20  23
ATOM     23  O   UNL d   1      22.582 -18.854  -1.001  0.00  0.00    -0.275 OA
BRANCH  23  24
ATOM     24  C   UNL d   1      21.241 -18.414  -0.828  0.00  0.00     0.305 C 
ATOM     25  O   UNL d   1      20.787 -17.353  -1.270  0.00  0.00    -0.258 OA
BRANCH  24  26
ATOM     26  C   UNL d   1      20.409 -19.325  -0.063  0.00  0.00     0.080 A 
ATOM     27  C   UNL d   1      19.350 -20.102  -0.521  0.00  0.00     0.025 A 
ATOM     28  C   UNL d   1      18.613 -20.712   0.539  0.00  0.00     0.009 A 
ATOM     29  C   UNL d   1      19.114 -20.357   1.770  0.00  0.00     0.050 A 
ATOM     30  S   UNL d   1      20.493 -19.350   1.644  0.00  0.00    -0.096 SA
ENDBRANCH  24  26
ENDBRANCH  23  24
ENDBRANCH  20  23
ENDBRANCH  12  17
BRANCH  10  31
ATOM     31  O   UNL d   1      27.049 -12.725  -2.088  0.00  0.00    -0.344 OA
ATOM     32  H   UNL d   1      27.801 -12.190  -2.344  0.00  0.00     0.219 HD
ENDBRANCH  10  31
TORSDOF 5
ENDMDL
MODEL 3
REMARK VINA RESULT:    -9.352      2.896      4.451
REMARK INTER + INTRA:         -11.533
REMARK INTER:                 -10.843
REMARK INTRA:                  -0.690
REMARK CONF_INDEPENDENT:        1.492
REMARK UNBOUND:                -0.690
REMARK  5 active torsions:
REMARK  status: ('A' for Active; 'I' for Inactive)
REMARK    1  A    between atoms: C_10  and  O_11 
REMARK    2  A    between atoms: C_13  and  C_14 
REMARK    3  A    between atoms: C_17  and  O_18 
REMARK    4  A    between atoms: O_18  and  C_19 
REMARK    5  A    between atoms: C_19  and  C_21 
ROOT
ATOM      1  C   UNL d   1      32.751 -16.832  -4.250  0.00  0.00     0.270 C 
ATOM      2  N   UNL d   1      31.741 -17.921  -4.526  0.00  0.00    -0.070 N 
ATOM      3  C   UNL d   1      30.497 -17.410  -5.243  0.00  0.00     0.239 C 
ATOM      4  C   UNL d   1      29.832 -16.311  -4.415  0.00  0.00     0.068 C 
ATOM      5  C   UNL d   1      29.699 -16.705  -2.978  0.00  0.00    -0.024 A 
ATOM      6  C   UNL d   1      30.391 -17.791  -2.453  0.00  0.00     0.018 A 
ATOM      7  S   UNL d   1      30.063 -18.023  -0.796  0.00  0.00    -0.074 SA
ATOM      8  C   UNL d   1      29.010 -16.688  -0.771  0.00  0.00     0.087 A 
ATOM      9  C   UNL d   1      28.919 -16.041  -1.986  0.00  0.00     0.057 A 
ATOM     10  C   UNL d   1      28.033 -14.887  -2.060  0.00  0.00     0.173 C 
ATOM     11  N   UNL d   1      27.167 -14.600  -1.165  0.00  0.00    -0.235 NA
ATOM     12  C   UNL d   1      27.047 -15.551  -0.056  0.00  0.00     0.243 C 
ATOM     13  N   UNL d   1      28.267 -16.281   0.274  0.00  0.00    -0.357 N 
ATOM     14  C   UNL d   1      31.338 -18.652  -3.236  0.00  0.00     0.281 C 
ATOM     15  H   UNL d   1      32.193 -18.607  -5.144  0.00  0.00     0.279 HD
ATOM     16  H   UNL d   1      28.317 -16.676   1.207  0.00  0.00     0.162 HD
ENDROOT
BRANCH  12  17
ATOM     17  C   UNL d   1      25.878 -16.507  -0.332  0.00  0.00    -0.014 A 
ATOM     18  C   UNL d   1      24.763 -16.160  -1.126  0.00  0.00     0.014 A 
ATOM     19  C   UNL d   1      23.624 -16.988  -1.223  0.00  0.00     0.038 A 
ATOM     20  C   UNL d   1      23.616 -18.226  -0.577  0.00  0.00     0.079 A 
ATOM     21  C   UNL d   1      24.720 -18.575   0.198  0.00  0.00     0.038 A 
ATOM     22  C   UNL d   1      25.832 -17.735   0.322  0.00  0.00     0.014 A 
BRANCH  20  23
ATOM     23  O   UNL d   1      22.492 -19.101  -0.760  0.00  0.00    -0.275 OA
BRANCH  23  24
ATOM     24  C   UNL d   1      21.136 -18.682  -0.683  0.00  0.00     0.305 C 
ATOM     25  O   UNL d   1      20.670 -17.699  -1.272  0.00  0.00    -0.258 OA
BRANCH  24  26
ATOM     26  C   UNL d   1      20.303 -19.510   0.169  0.00  0.00     0.080 A 
ATOM     27  C   UNL d   1      19.251 -20.337  -0.212  0.00  0.00     0.025 A 
ATOM     28  C   UNL d   1      18.509 -20.835   0.902  0.00  0.00     0.009 A 
ATOM     29  C   UNL d   1      18.999 -20.349   2.092  0.00  0.00     0.050 A 
ATOM     30  S   UNL d   1      20.374 -19.353   1.869  0.00  0.00    -0.096 SA
ENDBRANCH  24  26
ENDBRANCH  23  24
ENDBRANCH  20  23
ENDBRANCH  12  17
BRANCH  10  31
ATOM     31  O   UNL d   1      28.108 -14.082  -3.139  0.00  0.00    -0.344 OA
ATOM     32  H   UNL d   1      28.841 -14.269  -3.727  0.00  0.00     0.219 HD
ENDBRANCH  10  31
TORSDOF 5
ENDMDL
MODEL 4
REMARK VINA RESULT:    -9.268      2.583      3.372
REMARK INTER + INTRA:         -11.462
REMARK INTER:                 -10.759
REMARK INTRA:                  -0.703
REMARK CONF_INDEPENDENT:        1.492
REMARK UNBOUND:                -0.703
REMARK  5 active torsions:
REMARK  status: ('A' for Active; 'I' for Inactive)
REMARK    1  A    between atoms: C_10  and  O_11 
REMARK    2  A    between atoms: C_13  and  C_14 
REMARK    3  A    between atoms: C_17  and  O_18 
REMARK    4  A    between atoms: O_18  and  C_19 
REMARK    5  A    between atoms: C_19  and  C_21 
ROOT
ATOM      1  C   UNL d   1      32.414 -12.814   2.860  0.00  0.00     0.270 C 
ATOM      2  N   UNL d   1      31.433 -13.699   3.594  0.00  0.00    -0.070 N 
ATOM      3  C   UNL d   1      31.461 -15.145   3.112  0.00  0.00     0.239 C 
ATOM      4  C   UNL d   1      31.161 -15.201   1.615  0.00  0.00     0.068 C 
ATOM      5  C   UNL d   1      29.971 -14.368   1.257  0.00  0.00    -0.024 A 
ATOM      6  C   UNL d   1      29.444 -13.433   2.142  0.00  0.00     0.018 A 
ATOM      7  S   UNL d   1      28.094 -12.621   1.491  0.00  0.00    -0.074 SA
ATOM      8  C   UNL d   1      28.207 -13.500   0.040  0.00  0.00     0.087 A 
ATOM      9  C   UNL d   1      29.268 -14.381   0.017  0.00  0.00     0.057 A 
ATOM     10  C   UNL d   1      29.440 -15.184  -1.186  0.00  0.00     0.173 C 
ATOM     11  N   UNL d   1      28.546 -15.302  -2.093  0.00  0.00    -0.235 NA
ATOM     12  C   UNL d   1      27.270 -14.631  -1.831  0.00  0.00     0.243 C 
ATOM     13  N   UNL d   1      27.354 -13.436  -0.998  0.00  0.00    -0.357 N 
ATOM     14  C   UNL d   1      30.003 -13.145   3.505  0.00  0.00     0.281 C 
ATOM     15  H   UNL d   1      31.705 -13.700   4.585  0.00  0.00     0.279 HD
ATOM     16  H   UNL d   1      26.582 -12.781  -1.072  0.00  0.00     0.162 HD
ENDROOT
BRANCH  12  17
ATOM     17  C   UNL d   1      26.273 -15.647  -1.257  0.00  0.00    -0.014 A 
ATOM     18  C   UNL d   1      26.655 -16.737  -0.445  0.00  0.00     0.014 A 
ATOM     19  C   UNL d   1      25.748 -17.752  -0.075  0.00  0.00     0.038 A 
ATOM     20  C   UNL d   1      24.408 -17.650  -0.456  0.00  0.00     0.079 A 
ATOM     21  C   UNL d   1      24.026 -16.569  -1.249  0.00  0.00     0.038 A 
ATOM     22  C   UNL d   1      24.937 -15.584  -1.645  0.00  0.00     0.014 A 
BRANCH  20  23
ATOM     23  O   UNL d   1      23.473 -18.639   0.006  0.00  0.00    -0.275 OA
BRANCH  23  24
ATOM     24  C   UNL d   1      22.319 -19.041  -0.719  0.00  0.00     0.305 C 
ATOM     25  O   UNL d   1      22.278 -19.202  -1.944  0.00  0.00    -0.258 OA
BRANCH  24  26
ATOM     26  C   UNL d   1      21.142 -19.252   0.105  0.00  0.00     0.080 A 
ATOM     27  C   UNL d   1      21.010 -19.038   1.474  0.00  0.00     0.025 A 
ATOM     28  C   UNL d   1      19.787 -19.557   1.998  0.00  0.00     0.009 A 
ATOM     29  C   UNL d   1      19.041 -20.174   1.020  0.00  0.00     0.050 A 
ATOM     30  S   UNL d   1      19.781 -20.075  -0.520  0.00  0.00    -0.096 SA
ENDBRANCH  24  26
ENDBRANCH  23  24
ENDBRANCH  20  23
ENDBRANCH  12  17
BRANCH  10  31
ATOM     31  O   UNL d   1      30.594 -15.861  -1.354  0.00  0.00    -0.344 OA
ATOM     32  H   UNL d   1      31.385 -15.324  -1.287  0.00  0.00     0.219 HD
ENDBRANCH  10  31
TORSDOF 5
ENDMDL
MODEL 5
REMARK VINA RESULT:    -8.957      2.715      3.351
REMARK INTER + INTRA:         -11.072
REMARK INTER:                 -10.449
REMARK INTRA:                  -0.623
REMARK CONF_INDEPENDENT:        1.492
REMARK UNBOUND:                -0.623
REMARK  5 active torsions:
REMARK  status: ('A' for Active; 'I' for Inactive)
REMARK    1  A    between atoms: C_10  and  O_11 
REMARK    2  A    between atoms: C_13  and  C_14 
REMARK    3  A    between atoms: C_17  and  O_18 
REMARK    4  A    between atoms: O_18  and  C_19 
REMARK    5  A    between atoms: C_19  and  C_21 
ROOT
ATOM      1  C   UNL d   1      30.658 -12.207   4.952  0.00  0.00     0.270 C 
ATOM      2  N   UNL d   1      29.434 -12.977   5.392  0.00  0.00    -0.070 N 
ATOM      3  C   UNL d   1      29.589 -14.484   5.226  0.00  0.00     0.239 C 
ATOM      4  C   UNL d   1      29.892 -14.819   3.766  0.00  0.00     0.068 C 
ATOM      5  C   UNL d   1      28.969 -14.104   2.831  0.00  0.00    -0.024 A 
ATOM      6  C   UNL d   1      28.178 -13.043   3.258  0.00  0.00     0.018 A 
ATOM      7  S   UNL d   1      27.220 -12.407   1.998  0.00  0.00    -0.074 SA
ATOM      8  C   UNL d   1      27.853 -13.529   0.889  0.00  0.00     0.087 A 
ATOM      9  C   UNL d   1      28.803 -14.364   1.439  0.00  0.00     0.057 A 
ATOM     10  C   UNL d   1      29.397 -15.365   0.562  0.00  0.00     0.173 C 
ATOM     11  N   UNL d   1      28.922 -15.674  -0.584  0.00  0.00    -0.235 NA
ATOM     12  C   UNL d   1      27.672 -15.009  -0.964  0.00  0.00     0.243 C 
ATOM     13  N   UNL d   1      27.473 -13.681  -0.393  0.00  0.00    -0.357 N 
ATOM     14  C   UNL d   1      28.174 -12.496   4.655  0.00  0.00     0.281 C 
ATOM     15  H   UNL d   1      29.299 -12.790   6.394  0.00  0.00     0.279 HD
ATOM     16  H   UNL d   1      26.818 -13.077  -0.877  0.00  0.00     0.162 HD
ENDROOT
BRANCH  12  17
ATOM     17  C   UNL d   1      26.490 -15.938  -0.652  0.00  0.00    -0.014 A 
ATOM     18  C   UNL d   1      25.162 -15.663  -1.044  0.00  0.00     0.014 A 
ATOM     19  C   UNL d   1      24.072 -16.439  -0.598  0.00  0.00     0.038 A 
ATOM     20  C   UNL d   1      24.306 -17.563   0.198  0.00  0.00     0.079 A 
ATOM     21  C   UNL d   1      25.618 -17.842   0.578  0.00  0.00     0.038 A 
ATOM     22  C   UNL d   1      26.693 -17.048   0.164  0.00  0.00     0.014 A 
BRANCH  20  23
ATOM     23  O   UNL d   1      23.199 -18.400   0.568  0.00  0.00    -0.275 OA
BRANCH  23  24
ATOM     24  C   UNL d   1      21.924 -18.356  -0.059  0.00  0.00     0.305 C 
ATOM     25  O   UNL d   1      21.617 -17.585  -0.976  0.00  0.00    -0.258 OA
BRANCH  24  26
ATOM     26  C   UNL d   1      20.966 -19.308   0.472  0.00  0.00     0.080 A 
ATOM     27  C   UNL d   1      20.109 -20.143  -0.239  0.00  0.00     0.025 A 
ATOM     28  C   UNL d   1      19.148 -20.789   0.597  0.00  0.00     0.009 A 
ATOM     29  C   UNL d   1      19.283 -20.403   1.911  0.00  0.00     0.050 A 
ATOM     30  S   UNL d   1      20.591 -19.323   2.140  0.00  0.00    -0.096 SA
ENDBRANCH  24  26
ENDBRANCH  23  24
ENDBRANCH  20  23
ENDBRANCH  12  17
BRANCH  10  31
ATOM     31  O   UNL d   1      30.497 -16.022   0.981  0.00  0.00    -0.344 OA
ATOM     32  H   UNL d   1      30.409 -16.975   1.004  0.00  0.00     0.219 HD
ENDBRANCH  10  31
TORSDOF 5
ENDMDL
MODEL 6
REMARK VINA RESULT:    -8.747      2.874      4.371
REMARK INTER + INTRA:         -10.908
REMARK INTER:                 -10.239
REMARK INTRA:                  -0.669
REMARK CONF_INDEPENDENT:        1.492
REMARK UNBOUND:                -0.669
REMARK  5 active torsions:
REMARK  status: ('A' for Active; 'I' for Inactive)
REMARK    1  A    between atoms: C_10  and  O_11 
REMARK    2  A    between atoms: C_13  and  C_14 
REMARK    3  A    between atoms: C_17  and  O_18 
REMARK    4  A    between atoms: O_18  and  C_19 
REMARK    5  A    between atoms: C_19  and  C_21 
ROOT
ATOM      1  C   UNL d   1      33.684 -17.087  -0.387  0.00  0.00     0.270 C 
ATOM      2  N   UNL d   1      32.701 -17.952   0.367  0.00  0.00    -0.070 N 
ATOM      3  C   UNL d   1      31.946 -18.920  -0.537  0.00  0.00     0.239 C 
ATOM      4  C   UNL d   1      31.200 -18.147  -1.623  0.00  0.00     0.068 C 
ATOM      5  C   UNL d   1      30.444 -16.987  -1.056  0.00  0.00    -0.024 A 
ATOM      6  C   UNL d   1      30.681 -16.524   0.235  0.00  0.00     0.018 A 
ATOM      7  S   UNL d   1      29.688 -15.197   0.634  0.00  0.00    -0.074 SA
ATOM      8  C   UNL d   1      28.949 -15.231  -0.897  0.00  0.00     0.087 A 
ATOM      9  C   UNL d   1      29.457 -16.208  -1.727  0.00  0.00     0.057 A 
ATOM     10  C   UNL d   1      28.877 -16.316  -3.059  0.00  0.00     0.173 C 
ATOM     11  N   UNL d   1      27.787 -15.745  -3.406  0.00  0.00    -0.235 NA
ATOM     12  C   UNL d   1      27.082 -15.009  -2.353  0.00  0.00     0.243 C 
ATOM     13  N   UNL d   1      27.931 -14.452  -1.306  0.00  0.00    -0.357 N 
ATOM     14  C   UNL d   1      31.704 -17.102   1.169  0.00  0.00     0.281 C 
ATOM     15  H   UNL d   1      33.240 -18.514   1.037  0.00  0.00     0.279 HD
ATOM     16  H   UNL d   1      27.540 -13.684  -0.770  0.00  0.00     0.162 HD
ENDROOT
BRANCH  12  17
ATOM     17  C   UNL d   1      25.978 -15.900  -1.767  0.00  0.00    -0.014 A 
ATOM     18  C   UNL d   1      24.600 -15.657  -1.959  0.00  0.00     0.014 A 
ATOM     19  C   UNL d   1      23.606 -16.384  -1.270  0.00  0.00     0.038 A 
ATOM     20  C   UNL d   1      23.980 -17.430  -0.423  0.00  0.00     0.079 A 
ATOM     21  C   UNL d   1      25.340 -17.678  -0.240  0.00  0.00     0.038 A 
ATOM     22  C   UNL d   1      26.324 -16.930  -0.896  0.00  0.00     0.014 A 
BRANCH  20  23
ATOM     23  O   UNL d   1      22.959 -18.225   0.199  0.00  0.00    -0.275 OA
BRANCH  23  24
ATOM     24  C   UNL d   1      21.980 -18.965  -0.517  0.00  0.00     0.305 C 
ATOM     25  O   UNL d   1      22.094 -19.325  -1.695  0.00  0.00    -0.258 OA
BRANCH  24  26
ATOM     26  C   UNL d   1      20.789 -19.278   0.251  0.00  0.00     0.080 A 
ATOM     27  C   UNL d   1      20.656 -19.325   1.635  0.00  0.00     0.025 A 
ATOM     28  C   UNL d   1      19.407 -19.880   2.051  0.00  0.00     0.009 A 
ATOM     29  C   UNL d   1      18.643 -20.266   0.973  0.00  0.00     0.050 A 
ATOM     30  S   UNL d   1      19.399 -19.906  -0.521  0.00  0.00    -0.096 SA
ENDBRANCH  24  26
ENDBRANCH  23  24
ENDBRANCH  20  23
ENDBRANCH  12  17
BRANCH  10  31
ATOM     31  O   UNL d   1      29.507 -17.074  -3.980  0.00  0.00    -0.344 OA
ATOM     32  H   UNL d   1      30.420 -16.833  -4.139  0.00  0.00     0.219 HD
ENDBRANCH  10  31
TORSDOF 5
ENDMDL
MODEL 7
REMARK VINA RESULT:    -7.839      1.993      2.697
REMARK INTER + INTRA:          -9.948
REMARK INTER:                  -9.331
REMARK INTRA:                  -0.618
REMARK CONF_INDEPENDENT:        1.492
REMARK UNBOUND:                -0.618
REMARK  5 active torsions:
REMARK  status: ('A' for Active; 'I' for Inactive)
REMARK    1  A    between atoms: C_10  and  O_11 
REMARK    2  A    between atoms: C_13  and  C_14 
REMARK    3  A    between atoms: C_17  and  O_18 
REMARK    4  A    between atoms: O_18  and  C_19 
REMARK    5  A    between atoms: C_19  and  C_21 
ROOT
ATOM      1  C   UNL d   1      27.523  -8.514  -4.193  0.00  0.00     0.270 C 
ATOM      2  N   UNL d   1      26.109  -8.946  -3.879  0.00  0.00    -0.070 N 
ATOM      3  C   UNL d   1      25.877  -9.185  -2.391  0.00  0.00     0.239 C 
ATOM      4  C   UNL d   1      26.849 -10.245  -1.875  0.00  0.00     0.068 C 
ATOM      5  C   UNL d   1      26.896 -11.438  -2.776  0.00  0.00    -0.024 A 
ATOM      6  C   UNL d   1      26.361 -11.403  -4.060  0.00  0.00     0.018 A 
ATOM      7  S   UNL d   1      26.544 -12.891  -4.873  0.00  0.00    -0.074 SA
ATOM      8  C   UNL d   1      27.333 -13.578  -3.534  0.00  0.00     0.087 A 
ATOM      9  C   UNL d   1      27.494 -12.699  -2.484  0.00  0.00     0.057 A 
ATOM     10  C   UNL d   1      28.156 -13.204  -1.288  0.00  0.00     0.173 C 
ATOM     11  N   UNL d   1      28.362 -14.446  -1.064  0.00  0.00    -0.235 NA
ATOM     12  C   UNL d   1      27.825 -15.378  -2.059  0.00  0.00     0.243 C 
ATOM     13  N   UNL d   1      27.737 -14.857  -3.418  0.00  0.00    -0.357 N 
ATOM     14  C   UNL d   1      25.715 -10.198  -4.677  0.00  0.00     0.281 C 
ATOM     15  H   UNL d   1      25.485  -8.182  -4.168  0.00  0.00     0.279 HD
ATOM     16  H   UNL d   1      27.695 -15.545  -4.163  0.00  0.00     0.162 HD
ENDROOT
BRANCH  12  17
ATOM     17  C   UNL d   1      26.469 -15.911  -1.572  0.00  0.00    -0.014 A 
ATOM     18  C   UNL d   1      26.323 -17.114  -0.848  0.00  0.00     0.014 A 
ATOM     19  C   UNL d   1      25.058 -17.670  -0.564  0.00  0.00     0.038 A 
ATOM     20  C   UNL d   1      23.902 -16.982  -0.942  0.00  0.00     0.079 A 
ATOM     21  C   UNL d   1      24.045 -15.788  -1.648  0.00  0.00     0.038 A 
ATOM     22  C   UNL d   1      25.302 -15.259  -1.960  0.00  0.00     0.014 A 
BRANCH  20  23
ATOM     23  O   UNL d   1      22.621 -17.508  -0.565  0.00  0.00    -0.275 OA
BRANCH  23  24
ATOM     24  C   UNL d   1      22.328 -18.895  -0.468  0.00  0.00     0.305 C 
ATOM     25  O   UNL d   1      23.095 -19.802  -0.813  0.00  0.00    -0.258 OA
BRANCH  24  26
ATOM     26  C   UNL d   1      21.015 -19.191   0.075  0.00  0.00     0.080 A 
ATOM     27  C   UNL d   1      20.656 -19.322   1.413  0.00  0.00     0.025 A 
ATOM     28  C   UNL d   1      19.332 -19.832   1.583  0.00  0.00     0.009 A 
ATOM     29  C   UNL d   1      18.738 -20.101   0.372  0.00  0.00     0.050 A 
ATOM     30  S   UNL d   1      19.741 -19.686  -0.952  0.00  0.00    -0.096 SA
ENDBRANCH  24  26
ENDBRANCH  23  24
ENDBRANCH  20  23
ENDBRANCH  12  17
BRANCH  10  31
ATOM     31  O   UNL d   1      28.559 -12.323  -0.350  0.00  0.00    -0.344 OA
ATOM     32  H   UNL d   1      28.581 -12.672   0.542  0.00  0.00     0.219 HD
ENDBRANCH  10  31
TORSDOF 5
ENDMDL
MODEL 8
REMARK VINA RESULT:    -7.610      4.341      8.737
REMARK INTER + INTRA:          -9.852
REMARK INTER:                  -9.102
REMARK INTRA:                  -0.751
REMARK CONF_INDEPENDENT:        1.492
REMARK UNBOUND:                -0.751
REMARK  5 active torsions:
REMARK  status: ('A' for Active; 'I' for Inactive)
REMARK    1  A    between atoms: C_10  and  O_11 
REMARK    2  A    between atoms: C_13  and  C_14 
REMARK    3  A    between atoms: C_17  and  O_18 
REMARK    4  A    between atoms: O_18  and  C_19 
REMARK    5  A    between atoms: C_19  and  C_21 
ROOT
ATOM      1  C   UNL d   1      22.869 -18.810  -1.718  0.00  0.00     0.270 C 
ATOM      2  N   UNL d   1      22.756 -18.098  -0.389  0.00  0.00    -0.070 N 
ATOM      3  C   UNL d   1      22.809 -16.581  -0.522  0.00  0.00     0.239 C 
ATOM      4  C   UNL d   1      24.111 -16.162  -1.204  0.00  0.00     0.068 C 
ATOM      5  C   UNL d   1      25.295 -16.853  -0.607  0.00  0.00    -0.024 A 
ATOM      6  C   UNL d   1      25.151 -17.957   0.228  0.00  0.00     0.018 A 
ATOM      7  S   UNL d   1      26.653 -18.553   0.771  0.00  0.00    -0.074 SA
ATOM      8  C   UNL d   1      27.493 -17.357  -0.097  0.00  0.00     0.087 A 
ATOM      9  C   UNL d   1      26.666 -16.526  -0.823  0.00  0.00     0.057 A 
ATOM     10  C   UNL d   1      27.300 -15.465  -1.594  0.00  0.00     0.173 C 
ATOM     11  N   UNL d   1      28.519 -15.111  -1.443  0.00  0.00    -0.235 NA
ATOM     12  C   UNL d   1      29.259 -15.789  -0.376  0.00  0.00     0.243 C 
ATOM     13  N   UNL d   1      28.823 -17.150  -0.082  0.00  0.00    -0.357 N 
ATOM     14  C   UNL d   1      23.834 -18.575   0.596  0.00  0.00     0.281 C 
ATOM     15  H   UNL d   1      21.840 -18.340   0.010  0.00  0.00     0.279 HD
ATOM     16  H   UNL d   1      29.495 -17.747   0.388  0.00  0.00     0.162 HD
ENDROOT
BRANCH  12  17
ATOM     17  C   UNL d   1      29.251 -14.911   0.883  0.00  0.00    -0.014 A 
ATOM     18  C   UNL d   1      30.375 -14.743   1.721  0.00  0.00     0.014 A 
ATOM     19  C   UNL d   1      30.295 -14.075   2.961  0.00  0.00     0.038 A 
ATOM     20  C   UNL d   1      29.087 -13.493   3.352  0.00  0.00     0.079 A 
ATOM     21  C   UNL d   1      27.979 -13.648   2.522  0.00  0.00     0.038 A 
ATOM     22  C   UNL d   1      28.053 -14.344   1.310  0.00  0.00     0.014 A 
BRANCH  20  23
ATOM     23  O   UNL d   1      29.040 -12.734   4.570  0.00  0.00    -0.275 OA
BRANCH  23  24
ATOM     24  C   UNL d   1      28.253 -13.089   5.699  0.00  0.00     0.305 C 
ATOM     25  O   UNL d   1      27.039 -13.322   5.665  0.00  0.00    -0.258 OA
BRANCH  24  26
ATOM     26  C   UNL d   1      28.995 -13.157   6.945  0.00  0.00     0.080 A 
ATOM     27  C   UNL d   1      29.977 -14.076   7.303  0.00  0.00     0.025 A 
ATOM     28  C   UNL d   1      30.339 -13.987   8.682  0.00  0.00     0.009 A 
ATOM     29  C   UNL d   1      29.601 -13.027   9.336  0.00  0.00     0.050 A 
ATOM     30  S   UNL d   1      28.529 -12.203   8.285  0.00  0.00    -0.096 SA
ENDBRANCH  24  26
ENDBRANCH  23  24
ENDBRANCH  20  23
ENDBRANCH  12  17
BRANCH  10  31
ATOM     31  O   UNL d   1      26.563 -14.800  -2.507  0.00  0.00    -0.344 OA
ATOM     32  H   UNL d   1      26.459 -13.864  -2.331  0.00  0.00     0.219 HD
ENDBRANCH  10  31
TORSDOF 5
ENDMDL
MODEL 9
REMARK VINA RESULT:    -7.436      3.433      8.230
REMARK INTER + INTRA:          -9.813
REMARK INTER:                  -8.927
REMARK INTRA:                  -0.885
REMARK CONF_INDEPENDENT:        1.492
REMARK UNBOUND:                -0.885
REMARK  5 active torsions:
REMARK  status: ('A' for Active; 'I' for Inactive)
REMARK    1  A    between atoms: C_10  and  O_11 
REMARK    2  A    between atoms: C_13  and  C_14 
REMARK    3  A    between atoms: C_17  and  O_18 
REMARK    4  A    between atoms: O_18  and  C_19 
REMARK    5  A    between atoms: C_19  and  C_21 
ROOT
ATOM      1  C   UNL d   1      22.981 -19.321  -1.273  0.00  0.00     0.270 C 
ATOM      2  N   UNL d   1      23.103 -18.513  -0.002  0.00  0.00    -0.070 N 
ATOM      3  C   UNL d   1      22.551 -17.099  -0.140  0.00  0.00     0.239 C 
ATOM      4  C   UNL d   1      23.273 -16.365  -1.269  0.00  0.00     0.068 C 
ATOM      5  C   UNL d   1      24.757 -16.530  -1.177  0.00  0.00    -0.024 A 
ATOM      6  C   UNL d   1      25.333 -17.493  -0.354  0.00  0.00     0.018 A 
ATOM      7  S   UNL d   1      27.036 -17.469  -0.432  0.00  0.00    -0.074 SA
ATOM      8  C   UNL d   1      27.012 -16.192  -1.554  0.00  0.00     0.087 A 
ATOM      9  C   UNL d   1      25.739 -15.795  -1.903  0.00  0.00     0.057 A 
ATOM     10  C   UNL d   1      25.621 -14.699  -2.856  0.00  0.00     0.173 C 
ATOM     11  N   UNL d   1      26.595 -13.939  -3.185  0.00  0.00    -0.235 NA
ATOM     12  C   UNL d   1      27.862 -14.176  -2.487  0.00  0.00     0.243 C 
ATOM     13  N   UNL d   1      28.086 -15.551  -2.051  0.00  0.00    -0.357 N 
ATOM     14  C   UNL d   1      24.557 -18.460   0.492  0.00  0.00     0.281 C 
ATOM     15  H   UNL d   1      22.547 -18.991   0.719  0.00  0.00     0.279 HD
ATOM     16  H   UNL d   1      29.049 -15.817  -1.878  0.00  0.00     0.162 HD
ENDROOT
BRANCH  12  17
ATOM     17  C   UNL d   1      27.989 -13.188  -1.319  0.00  0.00    -0.014 A 
ATOM     18  C   UNL d   1      29.199 -12.549  -0.970  0.00  0.00     0.014 A 
ATOM     19  C   UNL d   1      29.332 -11.784   0.207  0.00  0.00     0.038 A 
ATOM     20  C   UNL d   1      28.219 -11.582   1.026  0.00  0.00     0.079 A 
ATOM     21  C   UNL d   1      27.020 -12.203   0.678  0.00  0.00     0.038 A 
ATOM     22  C   UNL d   1      26.902 -12.992  -0.471  0.00  0.00     0.014 A 
BRANCH  20  23
ATOM     23  O   UNL d   1      28.340 -10.723   2.171  0.00  0.00    -0.275 OA
BRANCH  23  24
ATOM     24  C   UNL d   1      27.504 -10.803   3.318  0.00  0.00     0.305 C 
ATOM     25  O   UNL d   1      26.607  -9.996   3.591  0.00  0.00    -0.258 OA
BRANCH  24  26
ATOM     26  C   UNL d   1      27.787 -11.932   4.184  0.00  0.00     0.080 A 
ATOM     27  C   UNL d   1      27.459 -13.269   3.977  0.00  0.00     0.025 A 
ATOM     28  C   UNL d   1      27.691 -14.079   5.130  0.00  0.00     0.009 A 
ATOM     29  C   UNL d   1      28.158 -13.331   6.186  0.00  0.00     0.050 A 
ATOM     30  S   UNL d   1      28.370 -11.684   5.771  0.00  0.00    -0.096 SA
ENDBRANCH  24  26
ENDBRANCH  23  24
ENDBRANCH  20  23
ENDBRANCH  12  17
BRANCH  10  31
ATOM     31  O   UNL d   1      24.419 -14.452  -3.413  0.00  0.00    -0.344 OA
ATOM     32  H   UNL d   1      24.429 -13.794  -4.109  0.00  0.00     0.219 HD
ENDBRANCH  10  31
TORSDOF 5
ENDMDL
