MODEL 1
REMARK VINA RESULT:    -7.390      0.000      0.000
REMARK INTER + INTRA:          -9.496
REMARK INTER:                  -8.583
REMARK INTRA:                  -0.913
REMARK CONF_INDEPENDENT:        1.193
REMARK UNBOUND:                -0.913
REMARK  4 active torsions:
REMARK  status: ('A' for Active; 'I' for Inactive)
REMARK       I    between atoms: C_2  and  N_3 
REMARK    1  A    between atoms: C_2  and  C_13 
REMARK    2  A    between atoms: N_3  and  N_4 
REMARK    3  A    between atoms: C_5  and  C_6 
REMARK    4  A    between atoms: C_9  and  O_10 
ROOT
ATOM      1  O   UNL d   1      28.466 -16.744  -2.424  0.00  0.00    -0.266 OA
ATOM      2  C   UNL d   1      27.375 -16.200  -2.265  0.00  0.00     0.274 C 
ATOM      3  N   UNL d   1      26.466 -16.489  -1.257  0.00  0.00    -0.243 N 
ATOM      4  H   UNL d   1      25.567 -16.032  -1.270  0.00  0.00     0.192 HD
ENDROOT
BRANCH   2   5
ATOM      5  C   UNL d   1      26.919 -15.165  -3.241  0.00  0.00     0.061 A 
ATOM      6  C   UNL d   1      25.715 -14.469  -3.017  0.00  0.00     0.019 A 
ATOM      7  C   UNL d   1      25.281 -13.463  -3.884  0.00  0.00     0.002 A 
ATOM      8  C   UNL d   1      26.023 -13.135  -5.020  0.00  0.00     0.014 A 
ATOM      9  C   UNL d   1      27.197 -13.856  -5.306  0.00  0.00    -0.007 A 
ATOM     10  C   UNL d   1      28.116 -13.817  -6.387  0.00  0.00     0.030 A 
ATOM     11  C   UNL d   1      27.626 -14.852  -4.420  0.00  0.00     0.058 A 
ATOM     12  C   UNL d   1      29.056 -14.795  -6.168  0.00  0.00     0.089 A 
ATOM     13  N   UNL d   1      28.756 -15.411  -4.984  0.00  0.00    -0.364 N 
ATOM     14  H   UNL d   1      29.265 -16.195  -4.596  0.00  0.00     0.165 HD
ENDBRANCH   2   5
BRANCH   3  15
ATOM     15  N   UNL d   1      26.708 -17.456  -0.315  0.00  0.00    -0.183 NA
ATOM     16  C   UNL d   1      25.710 -18.135   0.180  0.00  0.00     0.150 C 
BRANCH  16  17
ATOM     17  C   UNL d   1      24.285 -18.073  -0.210  0.00  0.00    -0.017 A 
ATOM     18  C   UNL d   1      23.655 -16.826  -0.291  0.00  0.00     0.015 A 
ATOM     19  C   UNL d   1      22.301 -16.736  -0.595  0.00  0.00     0.037 A 
ATOM     20  C   UNL d   1      21.599 -17.897  -0.895  0.00  0.00     0.065 A 
ATOM     21  C   UNL d   1      22.225 -19.142  -0.865  0.00  0.00     0.037 A 
ATOM     22  C   UNL d   1      23.578 -19.239  -0.520  0.00  0.00     0.015 A 
BRANCH  20  23
ATOM     23  O   UNL d   1      20.284 -17.856  -1.248  0.00  0.00    -0.361 OA
ATOM     24  H   UNL d   1      20.095 -17.001  -1.669  0.00  0.00     0.217 HD
ENDBRANCH  20  23
ENDBRANCH  16  17
ENDBRANCH   3  15
TORSDOF 4
ENDMDL
MODEL 2
REMARK VINA RESULT:    -7.041      1.687      2.474
REMARK INTER + INTRA:          -9.300
REMARK INTER:                  -8.234
REMARK INTRA:                  -1.065
REMARK CONF_INDEPENDENT:        1.193
REMARK UNBOUND:                -1.065
REMARK  4 active torsions:
REMARK  status: ('A' for Active; 'I' for Inactive)
REMARK       I    between atoms: C_2  and  N_3 
REMARK    1  A    between atoms: C_2  and  C_13 
REMARK    2  A    between atoms: N_3  and  N_4 
REMARK    3  A    between atoms: C_5  and  C_6 
REMARK    4  A    between atoms: C_9  and  O_10 
ROOT
ATOM      1  O   UNL d   1      26.699 -14.831  -0.239  0.00  0.00    -0.266 OA
ATOM      2  C   UNL d   1      26.553 -15.440  -1.296  0.00  0.00     0.274 C 
ATOM      3  N   UNL d   1      26.569 -16.820  -1.445  0.00  0.00    -0.243 N 
ATOM      4  H   UNL d   1      26.516 -17.208  -2.374  0.00  0.00     0.192 HD
ENDROOT
BRANCH   2   5
ATOM      5  C   UNL d   1      26.388 -14.676  -2.569  0.00  0.00     0.061 A 
ATOM      6  C   UNL d   1      26.106 -15.359  -3.769  0.00  0.00     0.019 A 
ATOM      7  C   UNL d   1      25.900 -14.674  -4.969  0.00  0.00     0.002 A 
ATOM      8  C   UNL d   1      25.994 -13.282  -5.017  0.00  0.00     0.014 A 
ATOM      9  C   UNL d   1      26.337 -12.575  -3.850  0.00  0.00    -0.007 A 
ATOM     10  C   UNL d   1      26.573 -11.201  -3.586  0.00  0.00     0.030 A 
ATOM     11  C   UNL d   1      26.527 -13.275  -2.652  0.00  0.00     0.058 A 
ATOM     12  C   UNL d   1      26.933 -11.087  -2.265  0.00  0.00     0.089 A 
ATOM     13  N   UNL d   1      26.900 -12.337  -1.710  0.00  0.00    -0.364 N 
ATOM     14  H   UNL d   1      27.156 -12.551  -0.754  0.00  0.00     0.165 HD
ENDBRANCH   2   5
BRANCH   3  15
ATOM     15  N   UNL d   1      26.770 -17.663  -0.382  0.00  0.00    -0.183 NA
ATOM     16  C   UNL d   1      25.743 -18.195   0.221  0.00  0.00     0.150 C 
BRANCH  16  17
ATOM     17  C   UNL d   1      24.314 -18.086  -0.150  0.00  0.00    -0.017 A 
ATOM     18  C   UNL d   1      23.603 -19.248  -0.467  0.00  0.00     0.015 A 
ATOM     19  C   UNL d   1      22.277 -19.175  -0.879  0.00  0.00     0.037 A 
ATOM     20  C   UNL d   1      21.643 -17.939  -0.895  0.00  0.00     0.065 A 
ATOM     21  C   UNL d   1      22.326 -16.778  -0.536  0.00  0.00     0.037 A 
ATOM     22  C   UNL d   1      23.673 -16.844  -0.160  0.00  0.00     0.015 A 
BRANCH  20  23
ATOM     23  O   UNL d   1      20.332 -17.821  -1.242  0.00  0.00    -0.361 OA
ATOM     24  H   UNL d   1      20.197 -16.971  -1.694  0.00  0.00     0.217 HD
ENDBRANCH  20  23
ENDBRANCH  16  17
ENDBRANCH   3  15
TORSDOF 4
ENDMDL
MODEL 3
REMARK VINA RESULT:    -6.953      1.183      2.159
REMARK INTER + INTRA:          -8.956
REMARK INTER:                  -8.146
REMARK INTRA:                  -0.809
REMARK CONF_INDEPENDENT:        1.193
REMARK UNBOUND:                -0.809
REMARK  4 active torsions:
REMARK  status: ('A' for Active; 'I' for Inactive)
REMARK       I    between atoms: C_2  and  N_3 
REMARK    1  A    between atoms: C_2  and  C_13 
REMARK    2  A    between atoms: N_3  and  N_4 
REMARK    3  A    between atoms: C_5  and  C_6 
REMARK    4  A    between atoms: C_9  and  O_10 
ROOT
ATOM      1  O   UNL d   1      29.100 -16.185  -1.374  0.00  0.00    -0.266 OA
ATOM      2  C   UNL d   1      27.994 -16.277  -1.901  0.00  0.00     0.274 C 
ATOM      3  N   UNL d   1      26.936 -17.047  -1.435  0.00  0.00    -0.243 N 
ATOM      4  H   UNL d   1      26.098 -17.107  -1.993  0.00  0.00     0.192 HD
ENDROOT
BRANCH   2   5
ATOM      5  C   UNL d   1      27.725 -15.557  -3.182  0.00  0.00     0.061 A 
ATOM      6  C   UNL d   1      28.737 -15.455  -4.158  0.00  0.00     0.019 A 
ATOM      7  C   UNL d   1      28.507 -14.829  -5.385  0.00  0.00     0.002 A 
ATOM      8  C   UNL d   1      27.264 -14.261  -5.671  0.00  0.00     0.014 A 
ATOM      9  C   UNL d   1      26.253 -14.290  -4.693  0.00  0.00    -0.007 A 
ATOM     10  C   UNL d   1      24.939 -13.757  -4.646  0.00  0.00     0.030 A 
ATOM     11  C   UNL d   1      26.495 -14.933  -3.473  0.00  0.00     0.058 A 
ATOM     12  C   UNL d   1      24.419 -14.045  -3.407  0.00  0.00     0.089 A 
ATOM     13  N   UNL d   1      25.358 -14.754  -2.709  0.00  0.00    -0.364 N 
ATOM     14  H   UNL d   1      25.253 -15.065  -1.752  0.00  0.00     0.165 HD
ENDBRANCH   2   5
BRANCH   3  15
ATOM     15  N   UNL d   1      27.040 -17.815  -0.304  0.00  0.00    -0.183 NA
ATOM     16  C   UNL d   1      25.957 -18.218   0.302  0.00  0.00     0.150 C 
BRANCH  16  17
ATOM     17  C   UNL d   1      24.553 -18.031  -0.125  0.00  0.00    -0.017 A 
ATOM     18  C   UNL d   1      24.070 -16.734  -0.326  0.00  0.00     0.015 A 
ATOM     19  C   UNL d   1      22.739 -16.521  -0.668  0.00  0.00     0.037 A 
ATOM     20  C   UNL d   1      21.915 -17.617  -0.884  0.00  0.00     0.065 A 
ATOM     21  C   UNL d   1      22.395 -18.917  -0.734  0.00  0.00     0.037 A 
ATOM     22  C   UNL d   1      23.724 -19.134  -0.351  0.00  0.00     0.015 A 
BRANCH  20  23
ATOM     23  O   UNL d   1      20.617 -17.461  -1.270  0.00  0.00    -0.361 OA
ATOM     24  H   UNL d   1      20.517 -16.596  -1.703  0.00  0.00     0.217 HD
ENDBRANCH  20  23
ENDBRANCH  16  17
ENDBRANCH   3  15
TORSDOF 4
ENDMDL
MODEL 4
REMARK VINA RESULT:    -6.476      2.349      7.104
REMARK INTER + INTRA:          -8.262
REMARK INTER:                  -7.669
REMARK INTRA:                  -0.592
REMARK CONF_INDEPENDENT:        1.193
REMARK UNBOUND:                -0.592
REMARK  4 active torsions:
REMARK  status: ('A' for Active; 'I' for Inactive)
REMARK       I    between atoms: C_2  and  N_3 
REMARK    1  A    between atoms: C_2  and  C_13 
REMARK    2  A    between atoms: N_3  and  N_4 
REMARK    3  A    between atoms: C_5  and  C_6 
REMARK    4  A    between atoms: C_9  and  O_10 
ROOT
ATOM      1  O   UNL d   1      25.967 -13.974  -1.552  0.00  0.00    -0.266 OA
ATOM      2  C   UNL d   1      25.684 -15.074  -2.020  0.00  0.00     0.274 C 
ATOM      3  N   UNL d   1      25.285 -15.321  -3.327  0.00  0.00    -0.243 N 
ATOM      4  H   UNL d   1      25.003 -16.256  -3.579  0.00  0.00     0.192 HD
ENDROOT
BRANCH   2   5
ATOM      5  C   UNL d   1      25.707 -16.278  -1.136  0.00  0.00     0.061 A 
ATOM      6  C   UNL d   1      26.934 -16.772  -0.651  0.00  0.00     0.019 A 
ATOM      7  C   UNL d   1      26.990 -17.868   0.214  0.00  0.00     0.002 A 
ATOM      8  C   UNL d   1      25.822 -18.524   0.605  0.00  0.00     0.014 A 
ATOM      9  C   UNL d   1      24.586 -18.095   0.088  0.00  0.00    -0.007 A 
ATOM     10  C   UNL d   1      23.259 -18.578   0.230  0.00  0.00     0.030 A 
ATOM     11  C   UNL d   1      24.545 -16.988  -0.768  0.00  0.00     0.058 A 
ATOM     12  C   UNL d   1      22.446 -17.795  -0.554  0.00  0.00     0.089 A 
ATOM     13  N   UNL d   1      23.226 -16.841  -1.148  0.00  0.00    -0.364 N 
ATOM     14  H   UNL d   1      22.891 -16.151  -1.808  0.00  0.00     0.165 HD
ENDBRANCH   2   5
BRANCH   3  15
ATOM     15  N   UNL d   1      25.155 -14.314  -4.249  0.00  0.00    -0.183 NA
ATOM     16  C   UNL d   1      26.164 -14.014  -5.020  0.00  0.00     0.150 C 
BRANCH  16  17
ATOM     17  C   UNL d   1      27.473 -14.696  -5.112  0.00  0.00    -0.017 A 
ATOM     18  C   UNL d   1      28.144 -14.718  -6.339  0.00  0.00     0.015 A 
ATOM     19  C   UNL d   1      29.347 -15.403  -6.474  0.00  0.00     0.037 A 
ATOM     20  C   UNL d   1      29.913 -16.000  -5.355  0.00  0.00     0.065 A 
ATOM     21  C   UNL d   1      29.279 -15.946  -4.115  0.00  0.00     0.037 A 
ATOM     22  C   UNL d   1      28.048 -15.291  -3.984  0.00  0.00     0.015 A 
BRANCH  20  23
ATOM     23  O   UNL d   1      31.114 -16.639  -5.425  0.00  0.00    -0.361 OA
ATOM     24  H   UNL d   1      31.810 -16.045  -5.098  0.00  0.00     0.217 HD
ENDBRANCH  20  23
ENDBRANCH  16  17
ENDBRANCH   3  15
TORSDOF 4
ENDMDL
MODEL 5
REMARK VINA RESULT:    -6.444      2.377      7.112
REMARK INTER + INTRA:          -8.501
REMARK INTER:                  -7.637
REMARK INTRA:                  -0.864
REMARK CONF_INDEPENDENT:        1.193
REMARK UNBOUND:                -0.864
REMARK  4 active torsions:
REMARK  status: ('A' for Active; 'I' for Inactive)
REMARK       I    between atoms: C_2  and  N_3 
REMARK    1  A    between atoms: C_2  and  C_13 
REMARK    2  A    between atoms: N_3  and  N_4 
REMARK    3  A    between atoms: C_5  and  C_6 
REMARK    4  A    between atoms: C_9  and  O_10 
ROOT
ATOM      1  O   UNL d   1      23.988 -14.457  -3.145  0.00  0.00    -0.266 OA
ATOM      2  C   UNL d   1      25.014 -14.359  -2.475  0.00  0.00     0.274 C 
ATOM      3  N   UNL d   1      25.814 -13.228  -2.381  0.00  0.00    -0.243 N 
ATOM      4  H   UNL d   1      26.676 -13.287  -1.860  0.00  0.00     0.192 HD
ENDROOT
BRANCH   2   5
ATOM      5  C   UNL d   1      25.513 -15.543  -1.714  0.00  0.00     0.061 A 
ATOM      6  C   UNL d   1      26.898 -15.759  -1.576  0.00  0.00     0.019 A 
ATOM      7  C   UNL d   1      27.400 -16.830  -0.833  0.00  0.00     0.002 A 
ATOM      8  C   UNL d   1      26.534 -17.739  -0.222  0.00  0.00     0.014 A 
ATOM      9  C   UNL d   1      25.146 -17.588  -0.395  0.00  0.00    -0.007 A 
ATOM     10  C   UNL d   1      24.030 -18.358   0.025  0.00  0.00     0.030 A 
ATOM     11  C   UNL d   1      24.658 -16.502  -1.132  0.00  0.00     0.058 A 
ATOM     12  C   UNL d   1      22.900 -17.763  -0.482  0.00  0.00     0.089 A 
ATOM     13  N   UNL d   1      23.285 -16.647  -1.173  0.00  0.00    -0.364 N 
ATOM     14  H   UNL d   1      22.657 -16.037  -1.681  0.00  0.00     0.165 HD
ENDBRANCH   2   5
BRANCH   3  15
ATOM     15  N   UNL d   1      25.528 -12.075  -3.066  0.00  0.00    -0.183 NA
ATOM     16  C   UNL d   1      26.077 -11.866  -4.231  0.00  0.00     0.150 C 
BRANCH  16  17
ATOM     17  C   UNL d   1      26.943 -12.781  -5.005  0.00  0.00    -0.017 A 
ATOM     18  C   UNL d   1      26.648 -14.148  -5.021  0.00  0.00     0.015 A 
ATOM     19  C   UNL d   1      27.477 -15.043  -5.688  0.00  0.00     0.037 A 
ATOM     20  C   UNL d   1      28.560 -14.552  -6.406  0.00  0.00     0.065 A 
ATOM     21  C   UNL d   1      28.840 -13.187  -6.438  0.00  0.00     0.037 A 
ATOM     22  C   UNL d   1      28.030 -12.288  -5.734  0.00  0.00     0.015 A 
BRANCH  20  23
ATOM     23  O   UNL d   1      29.372 -15.383  -7.116  0.00  0.00    -0.361 OA
ATOM     24  H   UNL d   1      29.324 -15.145  -8.058  0.00  0.00     0.217 HD
ENDBRANCH  20  23
ENDBRANCH  16  17
ENDBRANCH   3  15
TORSDOF 4
ENDMDL
MODEL 6
REMARK VINA RESULT:    -6.231      2.695      4.587
REMARK INTER + INTRA:          -8.451
REMARK INTER:                  -7.424
REMARK INTRA:                  -1.027
REMARK CONF_INDEPENDENT:        1.193
REMARK UNBOUND:                -1.027
REMARK  4 active torsions:
REMARK  status: ('A' for Active; 'I' for Inactive)
REMARK       I    between atoms: C_2  and  N_3 
REMARK    1  A    between atoms: C_2  and  C_13 
REMARK    2  A    between atoms: N_3  and  N_4 
REMARK    3  A    between atoms: C_5  and  C_6 
REMARK    4  A    between atoms: C_9  and  O_10 
ROOT
ATOM      1  O   UNL d   1      24.361 -14.073  -3.857  0.00  0.00    -0.266 OA
ATOM      2  C   UNL d   1      25.399 -14.724  -3.961  0.00  0.00     0.274 C 
ATOM      3  N   UNL d   1      25.674 -15.918  -3.309  0.00  0.00    -0.243 N 
ATOM      4  H   UNL d   1      26.591 -16.325  -3.410  0.00  0.00     0.192 HD
ENDROOT
BRANCH   2   5
ATOM      5  C   UNL d   1      26.511 -14.205  -4.811  0.00  0.00     0.061 A 
ATOM      6  C   UNL d   1      27.651 -15.000  -5.042  0.00  0.00     0.019 A 
ATOM      7  C   UNL d   1      28.690 -14.565  -5.869  0.00  0.00     0.002 A 
ATOM      8  C   UNL d   1      28.637 -13.309  -6.475  0.00  0.00     0.014 A 
ATOM      9  C   UNL d   1      27.543 -12.465  -6.213  0.00  0.00    -0.007 A 
ATOM     10  C   UNL d   1      27.230 -11.137  -6.606  0.00  0.00     0.030 A 
ATOM     11  C   UNL d   1      26.503 -12.920  -5.392  0.00  0.00     0.058 A 
ATOM     12  C   UNL d   1      26.044 -10.794  -6.003  0.00  0.00     0.089 A 
ATOM     13  N   UNL d   1      25.612 -11.871  -5.278  0.00  0.00    -0.364 N 
ATOM     14  H   UNL d   1      24.780 -11.883  -4.702  0.00  0.00     0.165 HD
ENDBRANCH   2   5
BRANCH   3  15
ATOM     15  N   UNL d   1      24.780 -16.498  -2.445  0.00  0.00    -0.183 NA
ATOM     16  C   UNL d   1      25.113 -16.672  -1.196  0.00  0.00     0.150 C 
BRANCH  16  17
ATOM     17  C   UNL d   1      26.350 -16.231  -0.515  0.00  0.00    -0.017 A 
ATOM     18  C   UNL d   1      26.395 -14.954   0.055  0.00  0.00     0.015 A 
ATOM     19  C   UNL d   1      27.563 -14.487   0.649  0.00  0.00     0.037 A 
ATOM     20  C   UNL d   1      28.660 -15.333   0.738  0.00  0.00     0.065 A 
ATOM     21  C   UNL d   1      28.614 -16.625   0.217  0.00  0.00     0.037 A 
ATOM     22  C   UNL d   1      27.453 -17.085  -0.417  0.00  0.00     0.015 A 
BRANCH  20  23
ATOM     23  O   UNL d   1      29.809 -14.939   1.355  0.00  0.00    -0.361 OA
ATOM     24  H   UNL d   1      30.031 -15.579   2.052  0.00  0.00     0.217 HD
ENDBRANCH  20  23
ENDBRANCH  16  17
ENDBRANCH   3  15
TORSDOF 4
ENDMDL
MODEL 7
REMARK VINA RESULT:    -6.223      2.806      4.124
REMARK INTER + INTRA:          -8.145
REMARK INTER:                  -7.416
REMARK INTRA:                  -0.729
REMARK CONF_INDEPENDENT:        1.193
REMARK UNBOUND:                -0.729
REMARK  4 active torsions:
REMARK  status: ('A' for Active; 'I' for Inactive)
REMARK       I    between atoms: C_2  and  N_3 
REMARK    1  A    between atoms: C_2  and  C_13 
REMARK    2  A    between atoms: N_3  and  N_4 
REMARK    3  A    between atoms: C_5  and  C_6 
REMARK    4  A    between atoms: C_9  and  O_10 
ROOT
ATOM      1  O   UNL d   1      25.913 -15.951  -5.659  0.00  0.00    -0.266 OA
ATOM      2  C   UNL d   1      26.643 -15.182  -5.038  0.00  0.00     0.274 C 
ATOM      3  N   UNL d   1      26.226 -14.260  -4.088  0.00  0.00    -0.243 N 
ATOM      4  H   UNL d   1      26.906 -13.626  -3.697  0.00  0.00     0.192 HD
ENDROOT
BRANCH   2   5
ATOM      5  C   UNL d   1      28.108 -15.163  -5.327  0.00  0.00     0.061 A 
ATOM      6  C   UNL d   1      28.979 -16.004  -4.607  0.00  0.00     0.019 A 
ATOM      7  C   UNL d   1      30.348 -16.045  -4.882  0.00  0.00     0.002 A 
ATOM      8  C   UNL d   1      30.899 -15.229  -5.871  0.00  0.00     0.014 A 
ATOM      9  C   UNL d   1      30.066 -14.332  -6.565  0.00  0.00    -0.007 A 
ATOM     10  C   UNL d   1      30.319 -13.344  -7.553  0.00  0.00     0.030 A 
ATOM     11  C   UNL d   1      28.694 -14.311  -6.286  0.00  0.00     0.058 A 
ATOM     12  C   UNL d   1      29.127 -12.722  -7.833  0.00  0.00     0.089 A 
ATOM     13  N   UNL d   1      28.155 -13.310  -7.070  0.00  0.00    -0.364 N 
ATOM     14  H   UNL d   1      27.184 -13.023  -7.050  0.00  0.00     0.165 HD
ENDBRANCH   2   5
BRANCH   3  15
ATOM     15  N   UNL d   1      24.905 -14.110  -3.751  0.00  0.00    -0.183 NA
ATOM     16  C   UNL d   1      24.407 -14.814  -2.772  0.00  0.00     0.150 C 
BRANCH  16  17
ATOM     17  C   UNL d   1      25.119 -15.738  -1.862  0.00  0.00    -0.017 A 
ATOM     18  C   UNL d   1      24.520 -16.957  -1.525  0.00  0.00     0.015 A 
ATOM     19  C   UNL d   1      25.135 -17.821  -0.625  0.00  0.00     0.037 A 
ATOM     20  C   UNL d   1      26.388 -17.494  -0.125  0.00  0.00     0.065 A 
ATOM     21  C   UNL d   1      27.019 -16.305  -0.489  0.00  0.00     0.037 A 
ATOM     22  C   UNL d   1      26.385 -15.415  -1.364  0.00  0.00     0.015 A 
BRANCH  20  23
ATOM     23  O   UNL d   1      27.052 -18.331   0.720  0.00  0.00    -0.361 OA
ATOM     24  H   UNL d   1      28.009 -18.202   0.608  0.00  0.00     0.217 HD
ENDBRANCH  20  23
ENDBRANCH  16  17
ENDBRANCH   3  15
TORSDOF 4
ENDMDL
MODEL 8
REMARK VINA RESULT:    -6.139      2.667      4.270
REMARK INTER + INTRA:          -8.299
REMARK INTER:                  -7.332
REMARK INTRA:                  -0.967
REMARK CONF_INDEPENDENT:        1.193
REMARK UNBOUND:                -0.967
REMARK  4 active torsions:
REMARK  status: ('A' for Active; 'I' for Inactive)
REMARK       I    between atoms: C_2  and  N_3 
REMARK    1  A    between atoms: C_2  and  C_13 
REMARK    2  A    between atoms: N_3  and  N_4 
REMARK    3  A    between atoms: C_5  and  C_6 
REMARK    4  A    between atoms: C_9  and  O_10 
ROOT
ATOM      1  O   UNL d   1      25.861 -15.931  -5.738  0.00  0.00    -0.266 OA
ATOM      2  C   UNL d   1      26.609 -15.199  -5.094  0.00  0.00     0.274 C 
ATOM      3  N   UNL d   1      26.215 -14.303  -4.110  0.00  0.00    -0.243 N 
ATOM      4  H   UNL d   1      26.910 -13.696  -3.701  0.00  0.00     0.192 HD
ENDROOT
BRANCH   2   5
ATOM      5  C   UNL d   1      28.073 -15.200  -5.389  0.00  0.00     0.061 A 
ATOM      6  C   UNL d   1      28.547 -14.669  -6.606  0.00  0.00     0.019 A 
ATOM      7  C   UNL d   1      29.912 -14.612  -6.895  0.00  0.00     0.002 A 
ATOM      8  C   UNL d   1      30.852 -15.107  -5.989  0.00  0.00     0.014 A 
ATOM      9  C   UNL d   1      30.408 -15.701  -4.794  0.00  0.00    -0.007 A 
ATOM     10  C   UNL d   1      31.084 -16.344  -3.724  0.00  0.00     0.030 A 
ATOM     11  C   UNL d   1      29.037 -15.740  -4.512  0.00  0.00     0.058 A 
ATOM     12  C   UNL d   1      30.133 -16.789  -2.838  0.00  0.00     0.089 A 
ATOM     13  N   UNL d   1      28.905 -16.419  -3.317  0.00  0.00    -0.364 N 
ATOM     14  H   UNL d   1      28.022 -16.650  -2.880  0.00  0.00     0.165 HD
ENDBRANCH   2   5
BRANCH   3  15
ATOM     15  N   UNL d   1      24.899 -14.137  -3.762  0.00  0.00    -0.183 NA
ATOM     16  C   UNL d   1      24.405 -14.825  -2.770  0.00  0.00     0.150 C 
BRANCH  16  17
ATOM     17  C   UNL d   1      25.118 -15.745  -1.856  0.00  0.00    -0.017 A 
ATOM     18  C   UNL d   1      24.526 -16.968  -1.524  0.00  0.00     0.015 A 
ATOM     19  C   UNL d   1      25.142 -17.828  -0.621  0.00  0.00     0.037 A 
ATOM     20  C   UNL d   1      26.389 -17.492  -0.112  0.00  0.00     0.065 A 
ATOM     21  C   UNL d   1      27.013 -16.298  -0.471  0.00  0.00     0.037 A 
ATOM     22  C   UNL d   1      26.378 -15.411  -1.349  0.00  0.00     0.015 A 
BRANCH  20  23
ATOM     23  O   UNL d   1      27.054 -18.324   0.737  0.00  0.00    -0.361 OA
ATOM     24  H   UNL d   1      28.011 -18.200   0.618  0.00  0.00     0.217 HD
ENDBRANCH  20  23
ENDBRANCH  16  17
ENDBRANCH   3  15
TORSDOF 4
ENDMDL
MODEL 9
REMARK VINA RESULT:    -5.937      2.484      6.782
REMARK INTER + INTRA:          -8.105
REMARK INTER:                  -7.130
REMARK INTRA:                  -0.975
REMARK CONF_INDEPENDENT:        1.193
REMARK UNBOUND:                -0.975
REMARK  4 active torsions:
REMARK  status: ('A' for Active; 'I' for Inactive)
REMARK       I    between atoms: C_2  and  N_3 
REMARK    1  A    between atoms: C_2  and  C_13 
REMARK    2  A    between atoms: N_3  and  N_4 
REMARK    3  A    between atoms: C_5  and  C_6 
REMARK    4  A    between atoms: C_9  and  O_10 
ROOT
ATOM      1  O   UNL d   1      25.156 -15.206  -3.784  0.00  0.00    -0.266 OA
ATOM      2  C   UNL d   1      26.264 -15.583  -3.410  0.00  0.00     0.274 C 
ATOM      3  N   UNL d   1      27.423 -15.575  -4.175  0.00  0.00    -0.243 N 
ATOM      4  H   UNL d   1      28.261 -15.980  -3.789  0.00  0.00     0.192 HD
ENDROOT
BRANCH   2   5
ATOM      5  C   UNL d   1      26.425 -16.151  -2.038  0.00  0.00     0.061 A 
ATOM      6  C   UNL d   1      27.629 -15.957  -1.332  0.00  0.00     0.019 A 
ATOM      7  C   UNL d   1      27.798 -16.436  -0.031  0.00  0.00     0.002 A 
ATOM      8  C   UNL d   1      26.777 -17.146   0.603  0.00  0.00     0.014 A 
ATOM      9  C   UNL d   1      25.587 -17.412  -0.098  0.00  0.00    -0.007 A 
ATOM     10  C   UNL d   1      24.417 -18.147   0.227  0.00  0.00     0.030 A 
ATOM     11  C   UNL d   1      25.428 -16.915  -1.398  0.00  0.00     0.058 A 
ATOM     12  C   UNL d   1      23.590 -18.119  -0.870  0.00  0.00     0.089 A 
ATOM     13  N   UNL d   1      24.203 -17.375  -1.841  0.00  0.00    -0.364 N 
ATOM     14  H   UNL d   1      23.832 -17.219  -2.770  0.00  0.00     0.165 HD
ENDBRANCH   2   5
BRANCH   3  15
ATOM     15  N   UNL d   1      27.432 -15.140  -5.476  0.00  0.00    -0.183 NA
ATOM     16  C   UNL d   1      27.200 -13.882  -5.735  0.00  0.00     0.150 C 
BRANCH  16  17
ATOM     17  C   UNL d   1      27.005 -12.776  -4.772  0.00  0.00    -0.017 A 
ATOM     18  C   UNL d   1      27.952 -12.579  -3.761  0.00  0.00     0.015 A 
ATOM     19  C   UNL d   1      27.767 -11.588  -2.803  0.00  0.00     0.037 A 
ATOM     20  C   UNL d   1      26.669 -10.744  -2.910  0.00  0.00     0.065 A 
ATOM     21  C   UNL d   1      25.742 -10.898  -3.939  0.00  0.00     0.037 A 
ATOM     22  C   UNL d   1      25.904 -11.921  -4.881  0.00  0.00     0.015 A 
BRANCH  20  23
ATOM     23  O   UNL d   1      26.472  -9.727  -2.026  0.00  0.00    -0.361 OA
ATOM     24  H   UNL d   1      27.335  -9.389  -1.732  0.00  0.00     0.217 HD
ENDBRANCH  20  23
ENDBRANCH  16  17
ENDBRANCH   3  15
TORSDOF 4
ENDMDL
