MODEL 1
REMARK VINA RESULT:    -9.103      0.000      0.000
REMARK INTER + INTRA:         -13.559
REMARK INTER:                 -11.191
REMARK INTRA:                  -2.368
REMARK CONF_INDEPENDENT:        2.088
REMARK UNBOUND:                -2.368
REMARK  7 active torsions:
REMARK  status: ('A' for Active; 'I' for Inactive)
REMARK    1  A    between atoms: C_2  and  O_3 
REMARK    2  A    between atoms: O_3  and  C_4 
REMARK    3  A    between atoms: C_9  and  N_10 
REMARK    4  A    between atoms: C_11  and  N_12 
REMARK    5  A    between atoms: C_13  and  C_14 
REMARK       I    between atoms: C_14  and  N_16 
REMARK    6  A    between atoms: N_16  and  C_17 
REMARK    7  A    between atoms: C_18  and  C_17 
ROOT
ATOM      1  N   UNL d   1      28.060 -16.382  -1.499  0.00  0.00    -0.277 N 
ATOM      2  C   UNL d   1      27.251 -17.298  -0.775  0.00  0.00     0.126 C 
ATOM      3  C   UNL d   1      25.911 -17.054  -1.108  0.00  0.00     0.108 C 
ATOM      4  C   UNL d   1      26.010 -16.267  -2.254  0.00  0.00     0.123 C 
ATOM      5  N   UNL d   1      25.156 -15.939  -3.262  0.00  0.00    -0.242 NA
ATOM      6  C   UNL d   1      25.617 -14.858  -3.916  0.00  0.00     0.086 C 
ATOM      7  C   UNL d   1      26.516 -14.859  -4.999  0.00  0.00     0.034 C 
ATOM      8  C   UNL d   1      27.094 -13.640  -5.409  0.00  0.00     0.002 C 
ATOM      9  C   UNL d   1      26.472 -12.486  -4.965  0.00  0.00     0.002 C 
ATOM     10  C   UNL d   1      25.747 -12.644  -3.801  0.00  0.00     0.034 C 
ATOM     11  C   UNL d   1      26.006 -13.831  -3.140  0.00  0.00     0.088 C 
ATOM     12  N   UNL d   1      27.135 -14.163  -2.413  0.00  0.00    -0.226 NA
ATOM     13  C   UNL d   1      27.133 -15.477  -2.032  0.00  0.00     0.167 C 
ENDROOT
BRANCH   3  14
ATOM     14  C   UNL d   1      24.683 -17.470  -0.415  0.00  0.00     0.258 C 
ATOM     15  O   UNL d   1      24.696 -18.093   0.629  0.00  0.00    -0.267 OA
ATOM     16  N   UNL d   1      23.499 -17.011  -1.003  0.00  0.00    -0.354 N 
ATOM     17  H   UNL d   1      23.566 -16.445  -1.840  0.00  0.00     0.162 HD
BRANCH  16  18
ATOM     18  C   UNL d   1      22.159 -17.348  -0.503  0.00  0.00     0.155 C 
BRANCH  18  19
ATOM     19  C   UNL d   1      21.877 -18.876  -0.479  0.00  0.00     0.139 C 
ATOM     20  C   UNL d   1      21.029 -19.330   0.707  0.00  0.00     0.035 C 
ATOM     21  C   UNL d   1      19.621 -19.291   0.173  0.00  0.00     0.029 C 
ATOM     22  C   UNL d   1      19.818 -19.700  -1.269  0.00  0.00     0.168 C 
ATOM     23  O   UNL d   1      21.133 -19.263  -1.657  0.00  0.00    -0.384 OA
ENDBRANCH  18  19
ENDBRANCH  16  18
ENDBRANCH   3  14
BRANCH   2  24
ATOM     24  N   UNL d   1      27.766 -18.140   0.150  0.00  0.00    -0.384 N 
ATOM     25  H   UNL d   1      28.750 -18.162   0.407  0.00  0.00     0.157 HD
ATOM     26  H   UNL d   1      27.142 -18.574   0.833  0.00  0.00     0.157 HD
ENDBRANCH   2  24
BRANCH   1  27
ATOM     27  C   UNL d   1      29.506 -16.383  -1.574  0.00  0.00     0.076 A 
ATOM     28  C   UNL d   1      30.249 -15.877  -0.476  0.00  0.00     0.033 A 
ATOM     29  C   UNL d   1      31.659 -15.921  -0.455  0.00  0.00     0.002 A 
ATOM     30  C   UNL d   1      32.357 -16.443  -1.537  0.00  0.00     0.003 A 
ATOM     31  C   UNL d   1      31.640 -16.930  -2.625  0.00  0.00     0.039 A 
ATOM     32  C   UNL d   1      30.228 -16.904  -2.654  0.00  0.00     0.096 A 
BRANCH  32  33
ATOM     33  O   UNL d   1      29.716 -17.435  -3.797  0.00  0.00    -0.349 OA
BRANCH  33  34
ATOM     34  C   UNL d   1      30.565 -17.405  -4.942  0.00  0.00     0.171 C 
ATOM     35  C   UNL d   1      30.210 -16.139  -5.693  0.00  0.00     0.034 C 
ENDBRANCH  33  34
ENDBRANCH  32  33
ENDBRANCH   1  27
TORSDOF 7
ENDMDL
MODEL 2
REMARK VINA RESULT:    -9.029      1.416      2.371
REMARK INTER + INTRA:         -13.410
REMARK INTER:                 -11.117
REMARK INTRA:                  -2.293
REMARK CONF_INDEPENDENT:        2.088
REMARK UNBOUND:                -2.293
REMARK  7 active torsions:
REMARK  status: ('A' for Active; 'I' for Inactive)
REMARK    1  A    between atoms: C_2  and  O_3 
REMARK    2  A    between atoms: O_3  and  C_4 
REMARK    3  A    between atoms: C_9  and  N_10 
REMARK    4  A    between atoms: C_11  and  N_12 
REMARK    5  A    between atoms: C_13  and  C_14 
REMARK       I    between atoms: C_14  and  N_16 
REMARK    6  A    between atoms: N_16  and  C_17 
REMARK    7  A    between atoms: C_18  and  C_17 
ROOT
ATOM      1  N   UNL d   1      27.747 -16.455  -1.014  0.00  0.00    -0.277 N 
ATOM      2  C   UNL d   1      26.841 -17.360  -0.399  0.00  0.00     0.126 C 
ATOM      3  C   UNL d   1      25.569 -17.143  -0.948  0.00  0.00     0.108 C 
ATOM      4  C   UNL d   1      25.842 -16.389  -2.088  0.00  0.00     0.123 C 
ATOM      5  N   UNL d   1      25.156 -16.101  -3.228  0.00  0.00    -0.242 NA
ATOM      6  C   UNL d   1      25.707 -15.034  -3.834  0.00  0.00     0.086 C 
ATOM      7  C   UNL d   1      26.766 -15.055  -4.760  0.00  0.00     0.034 C 
ATOM      8  C   UNL d   1      27.392 -13.841  -5.111  0.00  0.00     0.002 C 
ATOM      9  C   UNL d   1      26.697 -12.682  -4.806  0.00  0.00     0.002 C 
ATOM     10  C   UNL d   1      25.798 -12.817  -3.768  0.00  0.00     0.034 C 
ATOM     11  C   UNL d   1      25.959 -13.980  -3.038  0.00  0.00     0.088 C 
ATOM     12  N   UNL d   1      26.961 -14.275  -2.132  0.00  0.00    -0.226 NA
ATOM     13  C   UNL d   1      26.909 -15.578  -1.715  0.00  0.00     0.167 C 
ENDROOT
BRANCH   3  14
ATOM     14  C   UNL d   1      24.249 -17.555  -0.446  0.00  0.00     0.258 C 
ATOM     15  O   UNL d   1      24.106 -18.193   0.579  0.00  0.00    -0.267 OA
ATOM     16  N   UNL d   1      23.167 -17.075  -1.191  0.00  0.00    -0.354 N 
ATOM     17  H   UNL d   1      23.360 -16.497  -2.001  0.00  0.00     0.162 HD
BRANCH  16  18
ATOM     18  C   UNL d   1      21.766 -17.404  -0.895  0.00  0.00     0.155 C 
BRANCH  18  19
ATOM     19  C   UNL d   1      21.508 -18.929  -0.753  0.00  0.00     0.139 C 
ATOM     20  C   UNL d   1      21.048 -19.352   0.640  0.00  0.00     0.035 C 
ATOM     21  C   UNL d   1      19.545 -19.320   0.542  0.00  0.00     0.029 C 
ATOM     22  C   UNL d   1      19.312 -19.764  -0.884  0.00  0.00     0.168 C 
ATOM     23  O   UNL d   1      20.453 -19.342  -1.651  0.00  0.00    -0.384 OA
ENDBRANCH  18  19
ENDBRANCH  16  18
ENDBRANCH   3  14
BRANCH   2  24
ATOM     24  N   UNL d   1      27.210 -18.168   0.621  0.00  0.00    -0.384 N 
ATOM     25  H   UNL d   1      26.603 -18.876   1.027  0.00  0.00     0.157 HD
ATOM     26  H   UNL d   1      28.204 -18.299   0.820  0.00  0.00     0.157 HD
ENDBRANCH   2  24
BRANCH   1  27
ATOM     27  C   UNL d   1      29.186 -16.439  -0.859  0.00  0.00     0.076 A 
ATOM     28  C   UNL d   1      29.955 -17.451  -1.489  0.00  0.00     0.033 A 
ATOM     29  C   UNL d   1      31.366 -17.446  -1.439  0.00  0.00     0.002 A 
ATOM     30  C   UNL d   1      32.036 -16.452  -0.739  0.00  0.00     0.003 A 
ATOM     31  C   UNL d   1      31.292 -15.462  -0.104  0.00  0.00     0.039 A 
ATOM     32  C   UNL d   1      29.881 -15.447  -0.156  0.00  0.00     0.096 A 
BRANCH  32  33
ATOM     33  O   UNL d   1      29.341 -14.394   0.515  0.00  0.00    -0.349 OA
BRANCH  33  34
ATOM     34  C   UNL d   1      28.417 -14.715   1.552  0.00  0.00     0.171 C 
ATOM     35  C   UNL d   1      27.450 -13.552   1.625  0.00  0.00     0.034 C 
ENDBRANCH  33  34
ENDBRANCH  32  33
ENDBRANCH   1  27
TORSDOF 7
ENDMDL
MODEL 3
REMARK VINA RESULT:    -7.998      2.061      3.078
REMARK INTER + INTRA:         -12.879
REMARK INTER:                 -10.086
REMARK INTRA:                  -2.793
REMARK CONF_INDEPENDENT:        2.088
REMARK UNBOUND:                -2.793
REMARK  7 active torsions:
REMARK  status: ('A' for Active; 'I' for Inactive)
REMARK    1  A    between atoms: C_2  and  O_3 
REMARK    2  A    between atoms: O_3  and  C_4 
REMARK    3  A    between atoms: C_9  and  N_10 
REMARK    4  A    between atoms: C_11  and  N_12 
REMARK    5  A    between atoms: C_13  and  C_14 
REMARK       I    between atoms: C_14  and  N_16 
REMARK    6  A    between atoms: N_16  and  C_17 
REMARK    7  A    between atoms: C_18  and  C_17 
ROOT
ATOM      1  N   UNL d   1      27.445 -15.610  -0.616  0.00  0.00    -0.277 N 
ATOM      2  C   UNL d   1      26.842 -16.780  -0.080  0.00  0.00     0.126 C 
ATOM      3  C   UNL d   1      25.709 -17.077  -0.850  0.00  0.00     0.108 C 
ATOM      4  C   UNL d   1      25.891 -16.301  -1.992  0.00  0.00     0.123 C 
ATOM      5  N   UNL d   1      25.375 -16.322  -3.252  0.00  0.00    -0.242 NA
ATOM      6  C   UNL d   1      25.593 -15.139  -3.853  0.00  0.00     0.086 C 
ATOM      7  C   UNL d   1      26.739 -14.773  -4.585  0.00  0.00     0.034 C 
ATOM      8  C   UNL d   1      26.921 -13.420  -4.937  0.00  0.00     0.002 C 
ATOM      9  C   UNL d   1      25.802 -12.609  -4.860  0.00  0.00     0.002 C 
ATOM     10  C   UNL d   1      24.839 -13.054  -3.977  0.00  0.00     0.034 C 
ATOM     11  C   UNL d   1      25.280 -14.051  -3.127  0.00  0.00     0.088 C 
ATOM     12  N   UNL d   1      26.130 -13.922  -2.044  0.00  0.00    -0.226 NA
ATOM     13  C   UNL d   1      26.489 -15.136  -1.524  0.00  0.00     0.167 C 
ENDROOT
BRANCH   3  14
ATOM     14  C   UNL d   1      24.568 -17.952  -0.538  0.00  0.00     0.258 C 
ATOM     15  O   UNL d   1      24.404 -18.453   0.558  0.00  0.00    -0.267 OA
ATOM     16  N   UNL d   1      23.637 -18.086  -1.574  0.00  0.00    -0.354 N 
ATOM     17  H   UNL d   1      23.808 -17.590  -2.441  0.00  0.00     0.162 HD
BRANCH  16  18
ATOM     18  C   UNL d   1      22.450 -18.947  -1.494  0.00  0.00     0.155 C 
BRANCH  18  19
ATOM     19  C   UNL d   1      21.332 -18.372  -0.581  0.00  0.00     0.139 C 
ATOM     20  C   UNL d   1      19.938 -18.910  -0.894  0.00  0.00     0.035 C 
ATOM     21  C   UNL d   1      19.797 -20.089   0.033  0.00  0.00     0.029 C 
ATOM     22  C   UNL d   1      20.556 -19.624   1.254  0.00  0.00     0.168 C 
ATOM     23  O   UNL d   1      21.583 -18.726   0.799  0.00  0.00    -0.384 OA
ENDBRANCH  18  19
ENDBRANCH  16  18
ENDBRANCH   3  14
BRANCH   2  24
ATOM     24  N   UNL d   1      27.286 -17.363   1.057  0.00  0.00    -0.384 N 
ATOM     25  H   UNL d   1      27.467 -18.360   1.146  0.00  0.00     0.157 HD
ATOM     26  H   UNL d   1      27.736 -16.787   1.771  0.00  0.00     0.157 HD
ENDBRANCH   2  24
BRANCH   1  27
ATOM     27  C   UNL d   1      28.718 -15.042  -0.226  0.00  0.00     0.076 A 
ATOM     28  C   UNL d   1      29.711 -14.839  -1.218  0.00  0.00     0.033 A 
ATOM     29  C   UNL d   1      30.942 -14.218  -0.916  0.00  0.00     0.002 A 
ATOM     30  C   UNL d   1      31.219 -13.814   0.383  0.00  0.00     0.003 A 
ATOM     31  C   UNL d   1      30.259 -14.021   1.369  0.00  0.00     0.039 A 
ATOM     32  C   UNL d   1      29.018 -14.629   1.078  0.00  0.00     0.096 A 
BRANCH  32  33
ATOM     33  O   UNL d   1      28.213 -14.730   2.170  0.00  0.00    -0.349 OA
BRANCH  33  34
ATOM     34  C   UNL d   1      27.635 -13.516   2.642  0.00  0.00     0.171 C 
ATOM     35  C   UNL d   1      26.678 -13.060   1.561  0.00  0.00     0.034 C 
ENDBRANCH  33  34
ENDBRANCH  32  33
ENDBRANCH   1  27
TORSDOF 7
ENDMDL
MODEL 4
REMARK VINA RESULT:    -7.821      2.184      2.941
REMARK INTER + INTRA:         -12.244
REMARK INTER:                  -9.909
REMARK INTRA:                  -2.336
REMARK CONF_INDEPENDENT:        2.088
REMARK UNBOUND:                -2.336
REMARK  7 active torsions:
REMARK  status: ('A' for Active; 'I' for Inactive)
REMARK    1  A    between atoms: C_2  and  O_3 
REMARK    2  A    between atoms: O_3  and  C_4 
REMARK    3  A    between atoms: C_9  and  N_10 
REMARK    4  A    between atoms: C_11  and  N_12 
REMARK    5  A    between atoms: C_13  and  C_14 
REMARK       I    between atoms: C_14  and  N_16 
REMARK    6  A    between atoms: N_16  and  C_17 
REMARK    7  A    between atoms: C_18  and  C_17 
ROOT
ATOM      1  N   UNL d   1      27.407 -15.247  -0.468  0.00  0.00    -0.277 N 
ATOM      2  C   UNL d   1      26.930 -16.429   0.159  0.00  0.00     0.126 C 
ATOM      3  C   UNL d   1      25.864 -16.927  -0.603  0.00  0.00     0.108 C 
ATOM      4  C   UNL d   1      25.987 -16.236  -1.807  0.00  0.00     0.123 C 
ATOM      5  N   UNL d   1      25.515 -16.429  -3.069  0.00  0.00    -0.242 NA
ATOM      6  C   UNL d   1      25.609 -15.285  -3.770  0.00  0.00     0.086 C 
ATOM      7  C   UNL d   1      26.725 -14.849  -4.509  0.00  0.00     0.034 C 
ATOM      8  C   UNL d   1      26.757 -13.519  -4.977  0.00  0.00     0.002 C 
ATOM      9  C   UNL d   1      25.548 -12.845  -4.995  0.00  0.00     0.002 C 
ATOM     10  C   UNL d   1      24.618 -13.325  -4.095  0.00  0.00     0.034 C 
ATOM     11  C   UNL d   1      25.149 -14.184  -3.150  0.00  0.00     0.088 C 
ATOM     12  N   UNL d   1      25.944 -13.860  -2.067  0.00  0.00    -0.226 NA
ATOM     13  C   UNL d   1      26.429 -14.971  -1.433  0.00  0.00     0.167 C 
ENDROOT
BRANCH   3  14
ATOM     14  C   UNL d   1      24.825 -17.902  -0.236  0.00  0.00     0.258 C 
ATOM     15  O   UNL d   1      24.695 -18.330   0.895  0.00  0.00    -0.267 OA
ATOM     16  N   UNL d   1      23.941 -18.228  -1.270  0.00  0.00    -0.354 N 
ATOM     17  H   UNL d   1      24.073 -17.786  -2.172  0.00  0.00     0.162 HD
BRANCH  16  18
ATOM     18  C   UNL d   1      22.860 -19.214  -1.135  0.00  0.00     0.155 C 
BRANCH  18  19
ATOM     19  C   UNL d   1      21.516 -18.594  -0.664  0.00  0.00     0.139 C 
ATOM     20  C   UNL d   1      20.280 -19.303  -1.213  0.00  0.00     0.035 C 
ATOM     21  C   UNL d   1      19.947 -20.312  -0.145  0.00  0.00     0.029 C 
ATOM     22  C   UNL d   1      20.333 -19.577   1.118  0.00  0.00     0.168 C 
ATOM     23  O   UNL d   1      21.405 -18.681   0.776  0.00  0.00    -0.384 OA
ENDBRANCH  18  19
ENDBRANCH  16  18
ENDBRANCH   3  14
BRANCH   2  24
ATOM     24  N   UNL d   1      27.405 -16.854   1.352  0.00  0.00    -0.384 N 
ATOM     25  H   UNL d   1      26.962 -17.581   1.909  0.00  0.00     0.157 HD
ATOM     26  H   UNL d   1      28.381 -16.672   1.595  0.00  0.00     0.157 HD
ENDBRANCH   2  24
BRANCH   1  27
ATOM     27  C   UNL d   1      28.590 -14.498  -0.106  0.00  0.00     0.076 A 
ATOM     28  C   UNL d   1      29.785 -15.204   0.190  0.00  0.00     0.033 A 
ATOM     29  C   UNL d   1      30.992 -14.530   0.474  0.00  0.00     0.002 A 
ATOM     30  C   UNL d   1      31.026 -13.141   0.497  0.00  0.00     0.003 A 
ATOM     31  C   UNL d   1      29.858 -12.437   0.222  0.00  0.00     0.039 A 
ATOM     32  C   UNL d   1      28.647 -13.099  -0.076  0.00  0.00     0.096 A 
BRANCH  32  33
ATOM     33  O   UNL d   1      27.625 -12.237  -0.326  0.00  0.00    -0.349 OA
BRANCH  33  34
ATOM     34  C   UNL d   1      27.959 -11.055  -1.049  0.00  0.00     0.171 C 
ATOM     35  C   UNL d   1      27.045 -11.029  -2.256  0.00  0.00     0.034 C 
ENDBRANCH  33  34
ENDBRANCH  32  33
ENDBRANCH   1  27
TORSDOF 7
ENDMDL
MODEL 5
REMARK VINA RESULT:    -7.794      2.993      6.081
REMARK INTER + INTRA:         -12.284
REMARK INTER:                  -9.882
REMARK INTRA:                  -2.401
REMARK CONF_INDEPENDENT:        2.088
REMARK UNBOUND:                -2.401
REMARK  7 active torsions:
REMARK  status: ('A' for Active; 'I' for Inactive)
REMARK    1  A    between atoms: C_2  and  O_3 
REMARK    2  A    between atoms: O_3  and  C_4 
REMARK    3  A    between atoms: C_9  and  N_10 
REMARK    4  A    between atoms: C_11  and  N_12 
REMARK    5  A    between atoms: C_13  and  C_14 
REMARK       I    between atoms: C_14  and  N_16 
REMARK    6  A    between atoms: N_16  and  C_17 
REMARK    7  A    between atoms: C_18  and  C_17 
ROOT
ATOM      1  N   UNL d   1      27.327 -13.283  -5.833  0.00  0.00    -0.277 N 
ATOM      2  C   UNL d   1      26.169 -13.159  -5.019  0.00  0.00     0.126 C 
ATOM      3  C   UNL d   1      26.238 -14.133  -4.013  0.00  0.00     0.108 C 
ATOM      4  C   UNL d   1      27.569 -14.541  -4.061  0.00  0.00     0.123 C 
ATOM      5  N   UNL d   1      28.396 -15.198  -3.201  0.00  0.00    -0.242 NA
ATOM      6  C   UNL d   1      29.463 -15.673  -3.869  0.00  0.00     0.086 C 
ATOM      7  C   UNL d   1      30.664 -14.983  -4.122  0.00  0.00     0.034 C 
ATOM      8  C   UNL d   1      31.581 -15.524  -5.046  0.00  0.00     0.002 C 
ATOM      9  C   UNL d   1      31.413 -16.861  -5.366  0.00  0.00     0.002 C 
ATOM     10  C   UNL d   1      30.126 -17.329  -5.191  0.00  0.00     0.034 C 
ATOM     11  C   UNL d   1      29.189 -16.329  -5.011  0.00  0.00     0.088 C 
ATOM     12  N   UNL d   1      28.682 -15.465  -5.965  0.00  0.00    -0.226 NA
ATOM     13  C   UNL d   1      27.896 -14.492  -5.412  0.00  0.00     0.167 C 
ENDROOT
BRANCH   3  14
ATOM     14  C   UNL d   1      25.176 -14.652  -3.138  0.00  0.00     0.258 C 
ATOM     15  O   UNL d   1      23.995 -14.448  -3.344  0.00  0.00    -0.267 OA
ATOM     16  N   UNL d   1      25.626 -15.478  -2.103  0.00  0.00    -0.354 N 
ATOM     17  H   UNL d   1      26.621 -15.654  -2.026  0.00  0.00     0.162 HD
BRANCH  16  18
ATOM     18  C   UNL d   1      24.742 -16.064  -1.086  0.00  0.00     0.155 C 
BRANCH  18  19
ATOM     19  C   UNL d   1      24.707 -17.617  -1.122  0.00  0.00     0.139 C 
ATOM     20  C   UNL d   1      24.409 -18.261   0.230  0.00  0.00     0.035 C 
ATOM     21  C   UNL d   1      22.912 -18.437   0.216  0.00  0.00     0.029 C 
ATOM     22  C   UNL d   1      22.642 -18.741  -1.239  0.00  0.00     0.168 C 
ATOM     23  O   UNL d   1      23.658 -18.071  -2.008  0.00  0.00    -0.384 OA
ENDBRANCH  18  19
ENDBRANCH  16  18
ENDBRANCH   3  14
BRANCH   2  24
ATOM     24  N   UNL d   1      25.166 -12.302  -5.318  0.00  0.00    -0.384 N 
ATOM     25  H   UNL d   1      24.275 -12.592  -5.712  0.00  0.00     0.157 HD
ATOM     26  H   UNL d   1      25.155 -11.376  -4.884  0.00  0.00     0.157 HD
ENDBRANCH   2  24
BRANCH   1  27
ATOM     27  C   UNL d   1      27.736 -12.383  -6.890  0.00  0.00     0.076 A 
ATOM     28  C   UNL d   1      28.515 -12.892  -7.961  0.00  0.00     0.033 A 
ATOM     29  C   UNL d   1      28.880 -12.084  -9.059  0.00  0.00     0.002 A 
ATOM     30  C   UNL d   1      28.502 -10.748  -9.099  0.00  0.00     0.003 A 
ATOM     31  C   UNL d   1      27.751 -10.233  -8.047  0.00  0.00     0.039 A 
ATOM     32  C   UNL d   1      27.367 -11.033  -6.948  0.00  0.00     0.096 A 
BRANCH  32  33
ATOM     33  O   UNL d   1      26.629 -10.350  -6.033  0.00  0.00    -0.349 OA
BRANCH  33  34
ATOM     34  C   UNL d   1      25.906  -9.222  -6.520  0.00  0.00     0.171 C 
ATOM     35  C   UNL d   1      24.963  -8.816  -5.407  0.00  0.00     0.034 C 
ENDBRANCH  33  34
ENDBRANCH  32  33
ENDBRANCH   1  27
TORSDOF 7
ENDMDL
MODEL 6
REMARK VINA RESULT:    -7.642      1.587      2.051
REMARK INTER + INTRA:         -12.407
REMARK INTER:                  -9.730
REMARK INTRA:                  -2.677
REMARK CONF_INDEPENDENT:        2.088
REMARK UNBOUND:                -2.677
REMARK  7 active torsions:
REMARK  status: ('A' for Active; 'I' for Inactive)
REMARK    1  A    between atoms: C_2  and  O_3 
REMARK    2  A    between atoms: O_3  and  C_4 
REMARK    3  A    between atoms: C_9  and  N_10 
REMARK    4  A    between atoms: C_11  and  N_12 
REMARK    5  A    between atoms: C_13  and  C_14 
REMARK       I    between atoms: C_14  and  N_16 
REMARK    6  A    between atoms: N_16  and  C_17 
REMARK    7  A    between atoms: C_18  and  C_17 
ROOT
ATOM      1  N   UNL d   1      27.568 -15.714  -0.780  0.00  0.00    -0.277 N 
ATOM      2  C   UNL d   1      26.936 -16.861  -0.228  0.00  0.00     0.126 C 
ATOM      3  C   UNL d   1      25.753 -17.093  -0.943  0.00  0.00     0.108 C 
ATOM      4  C   UNL d   1      25.916 -16.310  -2.084  0.00  0.00     0.123 C 
ATOM      5  N   UNL d   1      25.337 -16.289  -3.317  0.00  0.00    -0.242 NA
ATOM      6  C   UNL d   1      25.581 -15.109  -3.914  0.00  0.00     0.086 C 
ATOM      7  C   UNL d   1      26.705 -14.788  -4.698  0.00  0.00     0.034 C 
ATOM      8  C   UNL d   1      26.936 -13.440  -5.042  0.00  0.00     0.002 C 
ATOM      9  C   UNL d   1      25.861 -12.578  -4.899  0.00  0.00     0.002 C 
ATOM     10  C   UNL d   1      24.923 -12.989  -3.975  0.00  0.00     0.034 C 
ATOM     11  C   UNL d   1      25.358 -14.018  -3.160  0.00  0.00     0.088 C 
ATOM     12  N   UNL d   1      26.266 -13.945  -2.119  0.00  0.00    -0.226 NA
ATOM     13  C   UNL d   1      26.591 -15.181  -1.632  0.00  0.00     0.167 C 
ENDROOT
BRANCH   3  14
ATOM     14  C   UNL d   1      24.588 -17.917  -0.585  0.00  0.00     0.258 C 
ATOM     15  O   UNL d   1      24.389 -18.318   0.546  0.00  0.00    -0.267 OA
ATOM     16  N   UNL d   1      23.679 -18.124  -1.628  0.00  0.00    -0.354 N 
ATOM     17  H   UNL d   1      23.879 -17.709  -2.530  0.00  0.00     0.162 HD
BRANCH  16  18
ATOM     18  C   UNL d   1      22.473 -18.954  -1.502  0.00  0.00     0.155 C 
BRANCH  18  19
ATOM     19  C   UNL d   1      21.400 -18.343  -0.559  0.00  0.00     0.139 C 
ATOM     20  C   UNL d   1      19.970 -18.761  -0.894  0.00  0.00     0.035 C 
ATOM     21  C   UNL d   1      19.742 -19.970  -0.025  0.00  0.00     0.029 C 
ATOM     22  C   UNL d   1      20.532 -19.623   1.215  0.00  0.00     0.168 C 
ATOM     23  O   UNL d   1      21.624 -18.782   0.801  0.00  0.00    -0.384 OA
ENDBRANCH  18  19
ENDBRANCH  16  18
ENDBRANCH   3  14
BRANCH   2  24
ATOM     24  N   UNL d   1      27.407 -17.481   0.878  0.00  0.00    -0.384 N 
ATOM     25  H   UNL d   1      26.810 -17.898   1.588  0.00  0.00     0.157 HD
ATOM     26  H   UNL d   1      28.374 -17.812   0.892  0.00  0.00     0.157 HD
ENDBRANCH   2  24
BRANCH   1  27
ATOM     27  C   UNL d   1      28.884 -15.212  -0.448  0.00  0.00     0.076 A 
ATOM     28  C   UNL d   1      29.068 -13.813  -0.303  0.00  0.00     0.033 A 
ATOM     29  C   UNL d   1      30.307 -13.267   0.095  0.00  0.00     0.002 A 
ATOM     30  C   UNL d   1      31.393 -14.101   0.329  0.00  0.00     0.003 A 
ATOM     31  C   UNL d   1      31.229 -15.474   0.178  0.00  0.00     0.039 A 
ATOM     32  C   UNL d   1      29.992 -16.035  -0.208  0.00  0.00     0.096 A 
BRANCH  32  33
ATOM     33  O   UNL d   1      30.032 -17.392  -0.290  0.00  0.00    -0.349 OA
BRANCH  33  34
ATOM     34  C   UNL d   1      31.223 -17.955  -0.834  0.00  0.00     0.171 C 
ATOM     35  C   UNL d   1      30.837 -19.321  -1.361  0.00  0.00     0.034 C 
ENDBRANCH  33  34
ENDBRANCH  32  33
ENDBRANCH   1  27
TORSDOF 7
ENDMDL
MODEL 7
REMARK VINA RESULT:    -6.552      3.299      6.260
REMARK INTER + INTRA:         -11.977
REMARK INTER:                  -8.640
REMARK INTRA:                  -3.337
REMARK CONF_INDEPENDENT:        2.088
REMARK UNBOUND:                -3.337
REMARK  7 active torsions:
REMARK  status: ('A' for Active; 'I' for Inactive)
REMARK    1  A    between atoms: C_2  and  O_3 
REMARK    2  A    between atoms: O_3  and  C_4 
REMARK    3  A    between atoms: C_9  and  N_10 
REMARK    4  A    between atoms: C_11  and  N_12 
REMARK    5  A    between atoms: C_13  and  C_14 
REMARK       I    between atoms: C_14  and  N_16 
REMARK    6  A    between atoms: N_16  and  C_17 
REMARK    7  A    between atoms: C_18  and  C_17 
ROOT
ATOM      1  N   UNL d   1      27.924 -12.932  -5.865  0.00  0.00    -0.277 N 
ATOM      2  C   UNL d   1      26.679 -12.782  -5.198  0.00  0.00     0.126 C 
ATOM      3  C   UNL d   1      26.480 -13.910  -4.389  0.00  0.00     0.108 C 
ATOM      4  C   UNL d   1      27.746 -14.489  -4.339  0.00  0.00     0.123 C 
ATOM      5  N   UNL d   1      28.351 -15.390  -3.517  0.00  0.00    -0.242 NA
ATOM      6  C   UNL d   1      29.444 -15.894  -4.118  0.00  0.00     0.086 C 
ATOM      7  C   UNL d   1      30.741 -15.349  -4.083  0.00  0.00     0.034 C 
ATOM      8  C   UNL d   1      31.718 -15.854  -4.965  0.00  0.00     0.002 C 
ATOM      9  C   UNL d   1      31.446 -17.081  -5.546  0.00  0.00     0.002 C 
ATOM     10  C   UNL d   1      30.101 -17.384  -5.627  0.00  0.00     0.034 C 
ATOM     11  C   UNL d   1      29.271 -16.305  -5.387  0.00  0.00     0.088 C 
ATOM     12  N   UNL d   1      29.019 -15.232  -6.222  0.00  0.00    -0.226 NA
ATOM     13  C   UNL d   1      28.277 -14.262  -5.604  0.00  0.00     0.167 C 
ENDROOT
BRANCH   3  14
ATOM     14  C   UNL d   1      25.244 -14.411  -3.768  0.00  0.00     0.258 C 
ATOM     15  O   UNL d   1      24.137 -14.077  -4.144  0.00  0.00    -0.267 OA
ATOM     16  N   UNL d   1      25.442 -15.375  -2.774  0.00  0.00    -0.354 N 
ATOM     17  H   UNL d   1      26.392 -15.651  -2.553  0.00  0.00     0.162 HD
BRANCH  16  18
ATOM     18  C   UNL d   1      24.350 -15.974  -1.993  0.00  0.00     0.155 C 
BRANCH  18  19
ATOM     19  C   UNL d   1      24.733 -16.254  -0.514  0.00  0.00     0.139 C 
ATOM     20  C   UNL d   1      24.690 -17.732  -0.132  0.00  0.00     0.035 C 
ATOM     21  C   UNL d   1      26.103 -18.200  -0.367  0.00  0.00     0.029 C 
ATOM     22  C   UNL d   1      26.909 -16.980   0.017  0.00  0.00     0.168 C 
ATOM     23  O   UNL d   1      26.093 -15.829  -0.262  0.00  0.00    -0.384 OA
ENDBRANCH  18  19
ENDBRANCH  16  18
ENDBRANCH   3  14
BRANCH   2  24
ATOM     24  N   UNL d   1      25.840 -11.754  -5.459  0.00  0.00    -0.384 N 
ATOM     25  H   UNL d   1      25.782 -11.288  -6.361  0.00  0.00     0.157 HD
ATOM     26  H   UNL d   1      25.030 -11.604  -4.854  0.00  0.00     0.157 HD
ENDBRANCH   2  24
BRANCH   1  27
ATOM     27  C   UNL d   1      28.592 -11.936  -6.675  0.00  0.00     0.076 A 
ATOM     28  C   UNL d   1      29.967 -11.672  -6.443  0.00  0.00     0.033 A 
ATOM     29  C   UNL d   1      30.693 -10.770  -7.250  0.00  0.00     0.002 A 
ATOM     30  C   UNL d   1      30.059 -10.092  -8.283  0.00  0.00     0.003 A 
ATOM     31  C   UNL d   1      28.707 -10.331  -8.512  0.00  0.00     0.039 A 
ATOM     32  C   UNL d   1      27.971 -11.241  -7.721  0.00  0.00     0.096 A 
BRANCH  32  33
ATOM     33  O   UNL d   1      26.672 -11.343  -8.109  0.00  0.00    -0.349 OA
BRANCH  33  34
ATOM     34  C   UNL d   1      26.399 -11.061  -9.479  0.00  0.00     0.171 C 
ATOM     35  C   UNL d   1      26.974 -12.219 -10.268  0.00  0.00     0.034 C 
ENDBRANCH  33  34
ENDBRANCH  32  33
ENDBRANCH   1  27
TORSDOF 7
ENDMDL
MODEL 8
REMARK VINA RESULT:    -6.427      2.272      5.100
REMARK INTER + INTRA:         -11.718
REMARK INTER:                  -8.515
REMARK INTRA:                  -3.203
REMARK CONF_INDEPENDENT:        2.088
REMARK UNBOUND:                -3.203
REMARK  7 active torsions:
REMARK  status: ('A' for Active; 'I' for Inactive)
REMARK    1  A    between atoms: C_2  and  O_3 
REMARK    2  A    between atoms: O_3  and  C_4 
REMARK    3  A    between atoms: C_9  and  N_10 
REMARK    4  A    between atoms: C_11  and  N_12 
REMARK    5  A    between atoms: C_13  and  C_14 
REMARK       I    between atoms: C_14  and  N_16 
REMARK    6  A    between atoms: N_16  and  C_17 
REMARK    7  A    between atoms: C_18  and  C_17 
ROOT
ATOM      1  N   UNL d   1      29.539 -15.731  -5.082  0.00  0.00    -0.277 N 
ATOM      2  C   UNL d   1      28.233 -15.202  -5.260  0.00  0.00     0.126 C 
ATOM      3  C   UNL d   1      27.546 -15.320  -4.043  0.00  0.00     0.108 C 
ATOM      4  C   UNL d   1      28.566 -15.577  -3.129  0.00  0.00     0.123 C 
ATOM      5  N   UNL d   1      28.676 -15.490  -1.775  0.00  0.00    -0.242 NA
ATOM      6  C   UNL d   1      29.736 -16.206  -1.358  0.00  0.00     0.086 C 
ATOM      7  C   UNL d   1      31.064 -15.750  -1.257  0.00  0.00     0.034 C 
ATOM      8  C   UNL d   1      32.094 -16.688  -1.045  0.00  0.00     0.002 C 
ATOM      9  C   UNL d   1      31.704 -17.937  -0.592  0.00  0.00     0.002 C 
ATOM     10  C   UNL d   1      30.405 -18.276  -0.911  0.00  0.00     0.034 C 
ATOM     11  C   UNL d   1      29.831 -17.450  -1.860  0.00  0.00     0.088 C 
ATOM     12  N   UNL d   1      30.093 -17.414  -3.217  0.00  0.00    -0.226 NA
ATOM     13  C   UNL d   1      29.469 -16.365  -3.835  0.00  0.00     0.167 C 
ENDROOT
BRANCH   3  14
ATOM     14  C   UNL d   1      26.102 -15.244  -3.772  0.00  0.00     0.258 C 
ATOM     15  O   UNL d   1      25.288 -14.939  -4.622  0.00  0.00    -0.267 OA
ATOM     16  N   UNL d   1      25.731 -15.641  -2.483  0.00  0.00    -0.354 N 
ATOM     17  H   UNL d   1      26.458 -15.941  -1.844  0.00  0.00     0.162 HD
BRANCH  16  18
ATOM     18  C   UNL d   1      24.349 -15.599  -1.985  0.00  0.00     0.155 C 
BRANCH  18  19
ATOM     19  C   UNL d   1      24.179 -16.245  -0.583  0.00  0.00     0.139 C 
ATOM     20  C   UNL d   1      23.063 -17.284  -0.511  0.00  0.00     0.035 C 
ATOM     21  C   UNL d   1      23.770 -18.585  -0.793  0.00  0.00     0.029 C 
ATOM     22  C   UNL d   1      25.117 -18.359  -0.146  0.00  0.00     0.168 C 
ATOM     23  O   UNL d   1      25.387 -16.948  -0.209  0.00  0.00    -0.384 OA
ENDBRANCH  18  19
ENDBRANCH  16  18
ENDBRANCH   3  14
BRANCH   2  24
ATOM     24  N   UNL d   1      27.779 -14.792  -6.466  0.00  0.00    -0.384 N 
ATOM     25  H   UNL d   1      28.310 -14.881  -7.329  0.00  0.00     0.157 HD
ATOM     26  H   UNL d   1      26.775 -14.652  -6.601  0.00  0.00     0.157 HD
ENDBRANCH   2  24
BRANCH   1  27
ATOM     27  C   UNL d   1      30.630 -15.669  -6.032  0.00  0.00     0.076 A 
ATOM     28  C   UNL d   1      31.393 -14.477  -6.122  0.00  0.00     0.033 A 
ATOM     29  C   UNL d   1      32.516 -14.380  -6.972  0.00  0.00     0.002 A 
ATOM     30  C   UNL d   1      32.883 -15.458  -7.768  0.00  0.00     0.003 A 
ATOM     31  C   UNL d   1      32.133 -16.628  -7.699  0.00  0.00     0.039 A 
ATOM     32  C   UNL d   1      31.015 -16.743  -6.844  0.00  0.00     0.096 A 
BRANCH  32  33
ATOM     33  O   UNL d   1      30.425 -17.966  -6.912  0.00  0.00    -0.349 OA
BRANCH  33  34
ATOM     34  C   UNL d   1      31.212 -19.071  -6.475  0.00  0.00     0.171 C 
ATOM     35  C   UNL d   1      30.405 -19.760  -5.395  0.00  0.00     0.034 C 
ENDBRANCH  33  34
ENDBRANCH  32  33
ENDBRANCH   1  27
TORSDOF 7
ENDMDL
