MODEL 1
REMARK VINA RESULT:    -9.467      0.000      0.000
REMARK INTER + INTRA:         -13.281
REMARK INTER:                 -11.555
REMARK INTRA:                  -1.726
REMARK CONF_INDEPENDENT:        2.088
REMARK UNBOUND:                -1.726
REMARK  7 active torsions:
REMARK  status: ('A' for Active; 'I' for Inactive)
REMARK    1  A    between atoms: C_2  and  C_4 
REMARK    2  A    between atoms: C_7  and  N_8 
REMARK       I    between atoms: N_8  and  C_9 
REMARK       I    between atoms: C_9  and  N_11 
REMARK    3  A    between atoms: N_11  and  C_12 
REMARK    4  A    between atoms: C_15  and  N_16 
REMARK    5  A    between atoms: C_21  and  C_22 
REMARK       I    between atoms: C_22  and  N_24 
REMARK    6  A    between atoms: N_24  and  C_25 
REMARK    7  A    between atoms: C_25  and  C_27 
ROOT
ATOM      1  C   UNL d   1      26.852 -13.702  -2.897  0.00  0.00     0.037 A 
ATOM      2  C   UNL d   1      26.463 -12.389  -3.112  0.00  0.00     0.032 A 
ATOM      3  C   UNL d   1      26.831 -11.728  -4.312  0.00  0.00     0.032 A 
ATOM      4  C   UNL d   1      27.601 -12.324  -5.342  0.00  0.00     0.046 A 
ATOM      5  C   UNL d   1      27.975 -13.677  -5.115  0.00  0.00     0.060 A 
ATOM      6  C   UNL d   1      27.612 -14.316  -3.899  0.00  0.00     0.049 A 
ENDROOT
BRANCH   1   7
ATOM      7  N   UNL d   1      26.469 -14.442  -1.724  0.00  0.00    -0.309 N 
ATOM      8  C   UNL d   1      25.381 -15.305  -1.783  0.00  0.00     0.325 C 
ATOM      9  N   UNL d   1      25.024 -15.945  -0.598  0.00  0.00    -0.309 N 
ATOM     10  O   UNL d   1      24.805 -15.471  -2.855  0.00  0.00    -0.247 OA
ATOM     11  H   UNL d   1      25.575 -15.807   0.238  0.00  0.00     0.170 HD
ATOM     12  H   UNL d   1      27.138 -14.535  -0.975  0.00  0.00     0.170 HD
BRANCH   9  13
ATOM     13  C   UNL d   1      23.963 -16.912  -0.520  0.00  0.00     0.036 A 
ATOM     14  C   UNL d   1      24.188 -18.234  -0.109  0.00  0.00     0.030 A 
ATOM     15  C   UNL d   1      23.142 -19.189  -0.143  0.00  0.00     0.010 A 
ATOM     16  C   UNL d   1      21.832 -18.816  -0.486  0.00  0.00    -0.055 A 
ATOM     17  C   UNL d   1      21.627 -17.507  -0.895  0.00  0.00     0.010 A 
ATOM     18  C   UNL d   1      22.658 -16.585  -0.886  0.00  0.00     0.030 A 
BRANCH  16  19
ATOM     19  C   UNL d   1      20.645 -19.744  -0.271  0.00  0.00     0.010 C 
ATOM     20  C   UNL d   1      20.300 -19.743   1.223  0.00  0.00     0.015 C 
ATOM     21  C   UNL d   1      19.393 -19.325  -1.060  0.00  0.00     0.015 C 
ENDBRANCH  16  19
ENDBRANCH   9  13
ENDBRANCH   1   7
BRANCH   5  22
ATOM     22  C   UNL d   1      28.733 -14.494  -6.110  0.00  0.00     0.254 C 
ATOM     23  O   UNL d   1      28.149 -15.200  -6.932  0.00  0.00    -0.268 OA
ATOM     24  N   UNL d   1      30.113 -14.507  -6.141  0.00  0.00    -0.349 N 
ATOM     25  H   UNL d   1      30.688 -13.973  -5.509  0.00  0.00     0.163 HD
BRANCH  24  26
ATOM     26  C   UNL d   1      30.786 -15.329  -7.136  0.00  0.00     0.114 C 
ATOM     27  C   UNL d   1      32.215 -14.823  -7.421  0.00  0.00     0.037 C 
BRANCH  26  28
ATOM     28  C   UNL d   1      30.786 -16.787  -6.709  0.00  0.00    -0.036 A 
ATOM     29  C   UNL d   1      31.053 -17.814  -7.631  0.00  0.00     0.009 A 
ATOM     30  C   UNL d   1      30.919 -19.150  -7.284  0.00  0.00     0.001 A 
ATOM     31  C   UNL d   1      30.625 -19.489  -5.972  0.00  0.00     0.000 A 
ATOM     32  C   UNL d   1      30.405 -18.490  -5.023  0.00  0.00     0.001 A 
ATOM     33  C   UNL d   1      30.470 -17.143  -5.390  0.00  0.00     0.009 A 
ENDBRANCH  26  28
ENDBRANCH  24  26
ENDBRANCH   5  22
BRANCH   4  34
ATOM     34  N   UNL d   1      27.870 -11.526  -6.451  0.00  0.00    -0.380 N 
ATOM     35  C   UNL d   1      26.920 -11.200  -7.518  0.00  0.00     0.123 C 
ATOM     36  C   UNL d   1      27.679 -11.498  -8.814  0.00  0.00     0.021 C 
ATOM     37  C   UNL d   1      29.089 -11.051  -8.470  0.00  0.00     0.021 C 
ATOM     38  C   UNL d   1      29.241 -11.357  -6.964  0.00  0.00     0.123 C 
ENDBRANCH   4  34
TORSDOF 7
ENDMDL
MODEL 2
REMARK VINA RESULT:    -9.361      2.673      6.142
REMARK INTER + INTRA:         -12.932
REMARK INTER:                 -11.449
REMARK INTRA:                  -1.482
REMARK CONF_INDEPENDENT:        2.088
REMARK UNBOUND:                -1.482
REMARK  7 active torsions:
REMARK  status: ('A' for Active; 'I' for Inactive)
REMARK    1  A    between atoms: C_2  and  C_4 
REMARK    2  A    between atoms: C_7  and  N_8 
REMARK       I    between atoms: N_8  and  C_9 
REMARK       I    between atoms: C_9  and  N_11 
REMARK    3  A    between atoms: N_11  and  C_12 
REMARK    4  A    between atoms: C_15  and  N_16 
REMARK    5  A    between atoms: C_21  and  C_22 
REMARK       I    between atoms: C_22  and  N_24 
REMARK    6  A    between atoms: N_24  and  C_25 
REMARK    7  A    between atoms: C_25  and  C_27 
ROOT
ATOM      1  C   UNL d   1      27.252 -13.949  -3.904  0.00  0.00     0.037 A 
ATOM      2  C   UNL d   1      27.846 -14.589  -4.981  0.00  0.00     0.032 A 
ATOM      3  C   UNL d   1      28.103 -13.874  -6.179  0.00  0.00     0.032 A 
ATOM      4  C   UNL d   1      27.780 -12.507  -6.371  0.00  0.00     0.046 A 
ATOM      5  C   UNL d   1      27.191 -11.859  -5.251  0.00  0.00     0.060 A 
ATOM      6  C   UNL d   1      26.925 -12.597  -4.066  0.00  0.00     0.049 A 
ENDROOT
BRANCH   1   7
ATOM      7  N   UNL d   1      27.011 -14.605  -2.648  0.00  0.00    -0.309 N 
ATOM      8  C   UNL d   1      25.859 -15.363  -2.481  0.00  0.00     0.325 C 
ATOM      9  N   UNL d   1      25.653 -15.922  -1.221  0.00  0.00    -0.309 N 
ATOM     10  O   UNL d   1      25.098 -15.516  -3.433  0.00  0.00    -0.247 OA
ATOM     11  H   UNL d   1      26.347 -15.805  -0.496  0.00  0.00     0.170 HD
ATOM     12  H   UNL d   1      27.786 -14.731  -2.015  0.00  0.00     0.170 HD
BRANCH   9  13
ATOM     13  C   UNL d   1      24.541 -16.782  -0.918  0.00  0.00     0.036 A 
ATOM     14  C   UNL d   1      23.215 -16.326  -0.957  0.00  0.00     0.030 A 
ATOM     15  C   UNL d   1      22.150 -17.168  -0.553  0.00  0.00     0.010 A 
ATOM     16  C   UNL d   1      22.379 -18.510  -0.205  0.00  0.00    -0.055 A 
ATOM     17  C   UNL d   1      23.695 -18.944  -0.166  0.00  0.00     0.010 A 
ATOM     18  C   UNL d   1      24.735 -18.108  -0.535  0.00  0.00     0.030 A 
BRANCH  16  19
ATOM     19  C   UNL d   1      21.242 -19.506  -0.033  0.00  0.00     0.010 C 
ATOM     20  C   UNL d   1      20.655 -19.325   1.373  0.00  0.00     0.015 C 
ATOM     21  C   UNL d   1      20.110 -19.323  -1.059  0.00  0.00     0.015 C 
ENDBRANCH  16  19
ENDBRANCH   9  13
ENDBRANCH   1   7
BRANCH   5  22
ATOM     22  C   UNL d   1      26.838 -10.407  -5.238  0.00  0.00     0.254 C 
ATOM     23  O   UNL d   1      27.711  -9.540  -5.250  0.00  0.00    -0.268 OA
ATOM     24  N   UNL d   1      25.527  -9.977  -5.197  0.00  0.00    -0.349 N 
ATOM     25  H   UNL d   1      24.737 -10.602  -5.176  0.00  0.00     0.163 HD
BRANCH  24  26
ATOM     26  C   UNL d   1      25.257  -8.546  -5.183  0.00  0.00     0.114 C 
ATOM     27  C   UNL d   1      23.881  -8.221  -5.798  0.00  0.00     0.037 C 
BRANCH  26  28
ATOM     28  C   UNL d   1      25.382  -7.995  -3.773  0.00  0.00    -0.036 A 
ATOM     29  C   UNL d   1      25.212  -6.624  -3.511  0.00  0.00     0.009 A 
ATOM     30  C   UNL d   1      25.460  -6.092  -2.255  0.00  0.00     0.001 A 
ATOM     31  C   UNL d   1      25.774  -6.939  -1.204  0.00  0.00     0.000 A 
ATOM     32  C   UNL d   1      25.899  -8.311  -1.424  0.00  0.00     0.001 A 
ATOM     33  C   UNL d   1      25.719  -8.839  -2.705  0.00  0.00     0.009 A 
ENDBRANCH  26  28
ENDBRANCH  24  26
ENDBRANCH   5  22
BRANCH   4  34
ATOM     34  N   UNL d   1      28.104 -11.967  -7.612  0.00  0.00    -0.380 N 
ATOM     35  C   UNL d   1      27.146 -11.580  -8.651  0.00  0.00     0.123 C 
ATOM     36  C   UNL d   1      27.676 -12.236  -9.929  0.00  0.00     0.021 C 
ATOM     37  C   UNL d   1      29.178 -12.097  -9.761  0.00  0.00     0.021 C 
ATOM     38  C   UNL d   1      29.416 -12.209  -8.240  0.00  0.00     0.123 C 
ENDBRANCH   4  34
TORSDOF 7
ENDMDL
MODEL 3
REMARK VINA RESULT:    -9.142      5.674      8.411
REMARK INTER + INTRA:         -12.590
REMARK INTER:                 -11.230
REMARK INTRA:                  -1.360
REMARK CONF_INDEPENDENT:        2.088
REMARK UNBOUND:                -1.360
REMARK  7 active torsions:
REMARK  status: ('A' for Active; 'I' for Inactive)
REMARK    1  A    between atoms: C_2  and  C_4 
REMARK    2  A    between atoms: C_7  and  N_8 
REMARK       I    between atoms: N_8  and  C_9 
REMARK       I    between atoms: C_9  and  N_11 
REMARK    3  A    between atoms: N_11  and  C_12 
REMARK    4  A    between atoms: C_15  and  N_16 
REMARK    5  A    between atoms: C_21  and  C_22 
REMARK       I    between atoms: C_22  and  N_24 
REMARK    6  A    between atoms: N_24  and  C_25 
REMARK    7  A    between atoms: C_25  and  C_27 
ROOT
ATOM      1  C   UNL d   1      27.125 -12.098   0.438  0.00  0.00     0.037 A 
ATOM      2  C   UNL d   1      27.409 -11.306  -0.664  0.00  0.00     0.032 A 
ATOM      3  C   UNL d   1      27.414 -11.873  -1.964  0.00  0.00     0.032 A 
ATOM      4  C   UNL d   1      27.151 -13.239  -2.234  0.00  0.00     0.046 A 
ATOM      5  C   UNL d   1      26.842 -14.035  -1.096  0.00  0.00     0.060 A 
ATOM      6  C   UNL d   1      26.860 -13.452   0.199  0.00  0.00     0.049 A 
ENDROOT
BRANCH   1   7
ATOM      7  N   UNL d   1      27.057 -11.573   1.775  0.00  0.00    -0.309 N 
ATOM      8  C   UNL d   1      27.558 -12.322   2.832  0.00  0.00     0.325 C 
ATOM      9  N   UNL d   1      27.405 -11.785   4.109  0.00  0.00    -0.309 N 
ATOM     10  O   UNL d   1      28.113 -13.393   2.599  0.00  0.00    -0.247 OA
ATOM     11  H   UNL d   1      26.989 -10.872   4.228  0.00  0.00     0.170 HD
ATOM     12  H   UNL d   1      26.902 -10.584   1.895  0.00  0.00     0.170 HD
BRANCH   9  13
ATOM     13  C   UNL d   1      27.930 -12.414   5.291  0.00  0.00     0.036 A 
ATOM     14  C   UNL d   1      28.189 -11.694   6.466  0.00  0.00     0.030 A 
ATOM     15  C   UNL d   1      28.803 -12.322   7.577  0.00  0.00     0.010 A 
ATOM     16  C   UNL d   1      29.072 -13.701   7.573  0.00  0.00    -0.055 A 
ATOM     17  C   UNL d   1      28.816 -14.398   6.402  0.00  0.00     0.010 A 
ATOM     18  C   UNL d   1      28.242 -13.773   5.309  0.00  0.00     0.030 A 
BRANCH  16  19
ATOM     19  C   UNL d   1      29.474 -14.450   8.835  0.00  0.00     0.010 C 
ATOM     20  C   UNL d   1      30.885 -13.999   9.232  0.00  0.00     0.015 C 
ATOM     21  C   UNL d   1      28.530 -14.195  10.023  0.00  0.00     0.015 C 
ENDBRANCH  16  19
ENDBRANCH   9  13
ENDBRANCH   1   7
BRANCH   5  22
ATOM     22  C   UNL d   1      26.476 -15.481  -1.184  0.00  0.00     0.254 C 
ATOM     23  O   UNL d   1      26.175 -15.997  -2.261  0.00  0.00    -0.268 OA
ATOM     24  N   UNL d   1      26.443 -16.293  -0.069  0.00  0.00    -0.349 N 
ATOM     25  H   UNL d   1      26.663 -15.970   0.860  0.00  0.00     0.163 HD
BRANCH  24  26
ATOM     26  C   UNL d   1      26.075 -17.692  -0.229  0.00  0.00     0.114 C 
ATOM     27  C   UNL d   1      26.587 -18.553   0.944  0.00  0.00     0.037 C 
BRANCH  26  28
ATOM     28  C   UNL d   1      24.572 -17.829  -0.406  0.00  0.00    -0.036 A 
ATOM     29  C   UNL d   1      23.747 -16.695  -0.505  0.00  0.00     0.009 A 
ATOM     30  C   UNL d   1      22.364 -16.806  -0.527  0.00  0.00     0.001 A 
ATOM     31  C   UNL d   1      21.781 -18.063  -0.566  0.00  0.00     0.000 A 
ATOM     32  C   UNL d   1      22.578 -19.207  -0.520  0.00  0.00     0.001 A 
ATOM     33  C   UNL d   1      23.968 -19.094  -0.426  0.00  0.00     0.009 A 
ENDBRANCH  26  28
ENDBRANCH  24  26
ENDBRANCH   5  22
BRANCH   4  34
ATOM     34  N   UNL d   1      27.200 -13.623  -3.571  0.00  0.00    -0.380 N 
ATOM     35  C   UNL d   1      26.042 -13.800  -4.451  0.00  0.00     0.123 C 
ATOM     36  C   UNL d   1      26.255 -15.170  -5.099  0.00  0.00     0.021 C 
ATOM     37  C   UNL d   1      27.759 -15.200  -5.301  0.00  0.00     0.021 C 
ATOM     38  C   UNL d   1      28.331 -14.402  -4.109  0.00  0.00     0.123 C 
ENDBRANCH   4  34
TORSDOF 7
ENDMDL
MODEL 4
REMARK VINA RESULT:    -9.071      2.673      6.167
REMARK INTER + INTRA:         -12.639
REMARK INTER:                 -11.159
REMARK INTRA:                  -1.479
REMARK CONF_INDEPENDENT:        2.088
REMARK UNBOUND:                -1.479
REMARK  7 active torsions:
REMARK  status: ('A' for Active; 'I' for Inactive)
REMARK    1  A    between atoms: C_2  and  C_4 
REMARK    2  A    between atoms: C_7  and  N_8 
REMARK       I    between atoms: N_8  and  C_9 
REMARK       I    between atoms: C_9  and  N_11 
REMARK    3  A    between atoms: N_11  and  C_12 
REMARK    4  A    between atoms: C_15  and  N_16 
REMARK    5  A    between atoms: C_21  and  C_22 
REMARK       I    between atoms: C_22  and  N_24 
REMARK    6  A    between atoms: N_24  and  C_25 
REMARK    7  A    between atoms: C_25  and  C_27 
ROOT
ATOM      1  C   UNL d   1      27.125 -14.074  -3.904  0.00  0.00     0.037 A 
ATOM      2  C   UNL d   1      27.616 -14.529  -5.118  0.00  0.00     0.032 A 
ATOM      3  C   UNL d   1      27.766 -13.630  -6.204  0.00  0.00     0.032 A 
ATOM      4  C   UNL d   1      27.432 -12.253  -6.146  0.00  0.00     0.046 A 
ATOM      5  C   UNL d   1      26.949 -11.798  -4.889  0.00  0.00     0.060 A 
ATOM      6  C   UNL d   1      26.789 -12.718  -3.818  0.00  0.00     0.049 A 
ENDROOT
BRANCH   1   7
ATOM      7  N   UNL d   1      26.997 -14.925  -2.751  0.00  0.00    -0.309 N 
ATOM      8  C   UNL d   1      25.788 -15.563  -2.501  0.00  0.00     0.325 C 
ATOM      9  N   UNL d   1      25.709 -16.323  -1.336  0.00  0.00    -0.309 N 
ATOM     10  O   UNL d   1      24.868 -15.443  -3.308  0.00  0.00    -0.247 OA
ATOM     11  H   UNL d   1      26.521 -16.427  -0.744  0.00  0.00     0.170 HD
ATOM     12  H   UNL d   1      27.837 -15.258  -2.304  0.00  0.00     0.170 HD
BRANCH   9  13
ATOM     13  C   UNL d   1      24.546 -17.090  -0.980  0.00  0.00     0.036 A 
ATOM     14  C   UNL d   1      23.257 -16.538  -0.994  0.00  0.00     0.030 A 
ATOM     15  C   UNL d   1      22.146 -17.289  -0.538  0.00  0.00     0.010 A 
ATOM     16  C   UNL d   1      22.285 -18.635  -0.160  0.00  0.00    -0.055 A 
ATOM     17  C   UNL d   1      23.567 -19.164  -0.146  0.00  0.00     0.010 A 
ATOM     18  C   UNL d   1      24.654 -18.417  -0.566  0.00  0.00     0.030 A 
BRANCH  16  19
ATOM     19  C   UNL d   1      21.084 -19.539   0.071  0.00  0.00     0.010 C 
ATOM     20  C   UNL d   1      20.594 -19.327   1.509  0.00  0.00     0.015 C 
ATOM     21  C   UNL d   1      19.914 -19.257  -0.888  0.00  0.00     0.015 C 
ENDBRANCH  16  19
ENDBRANCH   9  13
ENDBRANCH   1   7
BRANCH   5  22
ATOM     22  C   UNL d   1      26.603 -10.371  -4.613  0.00  0.00     0.254 C 
ATOM     23  O   UNL d   1      27.392  -9.463  -4.875  0.00  0.00    -0.268 OA
ATOM     24  N   UNL d   1      25.399 -10.010  -4.042  0.00  0.00    -0.349 N 
ATOM     25  H   UNL d   1      24.687 -10.673  -3.781  0.00  0.00     0.163 HD
BRANCH  24  26
ATOM     26  C   UNL d   1      25.132  -8.600  -3.799  0.00  0.00     0.114 C 
ATOM     27  C   UNL d   1      26.291  -7.924  -3.039  0.00  0.00     0.037 C 
BRANCH  26  28
ATOM     28  C   UNL d   1      24.828  -7.884  -5.104  0.00  0.00    -0.036 A 
ATOM     29  C   UNL d   1      23.525  -7.854  -5.630  0.00  0.00     0.009 A 
ATOM     30  C   UNL d   1      23.263  -7.325  -6.884  0.00  0.00     0.001 A 
ATOM     31  C   UNL d   1      24.284  -6.710  -7.593  0.00  0.00     0.000 A 
ATOM     32  C   UNL d   1      25.578  -6.679  -7.072  0.00  0.00     0.001 A 
ATOM     33  C   UNL d   1      25.856  -7.275  -5.839  0.00  0.00     0.009 A 
ENDBRANCH  26  28
ENDBRANCH  24  26
ENDBRANCH   5  22
BRANCH   4  34
ATOM     34  N   UNL d   1      27.643 -11.518  -7.310  0.00  0.00    -0.380 N 
ATOM     35  C   UNL d   1      26.652 -10.669  -7.975  0.00  0.00     0.123 C 
ATOM     36  C   UNL d   1      26.699 -11.098  -9.444  0.00  0.00     0.021 C 
ATOM     37  C   UNL d   1      28.178 -11.371  -9.651  0.00  0.00     0.021 C 
ATOM     38  C   UNL d   1      28.673 -11.908  -8.291  0.00  0.00     0.123 C 
ENDBRANCH   4  34
TORSDOF 7
ENDMDL
MODEL 5
REMARK VINA RESULT:    -8.949      5.148      8.202
REMARK INTER + INTRA:         -12.812
REMARK INTER:                 -11.037
REMARK INTRA:                  -1.776
REMARK CONF_INDEPENDENT:        2.088
REMARK UNBOUND:                -1.776
REMARK  7 active torsions:
REMARK  status: ('A' for Active; 'I' for Inactive)
REMARK    1  A    between atoms: C_2  and  C_4 
REMARK    2  A    between atoms: C_7  and  N_8 
REMARK       I    between atoms: N_8  and  C_9 
REMARK       I    between atoms: C_9  and  N_11 
REMARK    3  A    between atoms: N_11  and  C_12 
REMARK    4  A    between atoms: C_15  and  N_16 
REMARK    5  A    between atoms: C_21  and  C_22 
REMARK       I    between atoms: C_22  and  N_24 
REMARK    6  A    between atoms: N_24  and  C_25 
REMARK    7  A    between atoms: C_25  and  C_27 
ROOT
ATOM      1  C   UNL d   1      26.654 -16.476  -1.206  0.00  0.00     0.037 A 
ATOM      2  C   UNL d   1      27.915 -16.683  -1.745  0.00  0.00     0.032 A 
ATOM      3  C   UNL d   1      29.060 -16.155  -1.095  0.00  0.00     0.032 A 
ATOM      4  C   UNL d   1      29.013 -15.395   0.101  0.00  0.00     0.046 A 
ATOM      5  C   UNL d   1      27.715 -15.208   0.652  0.00  0.00     0.060 A 
ATOM      6  C   UNL d   1      26.579 -15.730  -0.023  0.00  0.00     0.049 A 
ENDROOT
BRANCH   1   7
ATOM      7  N   UNL d   1      25.461 -17.027  -1.790  0.00  0.00    -0.309 N 
ATOM      8  C   UNL d   1      24.450 -17.502  -0.963  0.00  0.00     0.325 C 
ATOM      9  N   UNL d   1      23.348 -18.079  -1.590  0.00  0.00    -0.309 N 
ATOM     10  O   UNL d   1      24.564 -17.382   0.254  0.00  0.00    -0.247 OA
ATOM     11  H   UNL d   1      23.290 -18.096  -2.598  0.00  0.00     0.170 HD
ATOM     12  H   UNL d   1      25.258 -16.817  -2.755  0.00  0.00     0.170 HD
BRANCH   9  13
ATOM     13  C   UNL d   1      22.198 -18.556  -0.869  0.00  0.00     0.036 A 
ATOM     14  C   UNL d   1      21.036 -18.988  -1.523  0.00  0.00     0.030 A 
ATOM     15  C   UNL d   1      19.884 -19.353  -0.782  0.00  0.00     0.010 A 
ATOM     16  C   UNL d   1      19.908 -19.393   0.622  0.00  0.00    -0.055 A 
ATOM     17  C   UNL d   1      21.063 -18.956   1.253  0.00  0.00     0.010 A 
ATOM     18  C   UNL d   1      22.175 -18.575   0.525  0.00  0.00     0.030 A 
BRANCH  16  19
ATOM     19  C   UNL d   1      18.790 -20.033   1.431  0.00  0.00     0.010 C 
ATOM     20  C   UNL d   1      18.313 -21.285   0.684  0.00  0.00     0.015 C 
ATOM     21  C   UNL d   1      19.225 -20.449   2.848  0.00  0.00     0.015 C 
ENDBRANCH  16  19
ENDBRANCH   9  13
ENDBRANCH   1   7
BRANCH   5  22
ATOM     22  C   UNL d   1      27.468 -14.490   1.938  0.00  0.00     0.254 C 
ATOM     23  O   UNL d   1      26.657 -13.565   2.005  0.00  0.00    -0.268 OA
ATOM     24  N   UNL d   1      28.145 -14.816   3.096  0.00  0.00    -0.349 N 
ATOM     25  H   UNL d   1      28.834 -15.549   3.149  0.00  0.00     0.163 HD
BRANCH  24  26
ATOM     26  C   UNL d   1      27.855 -14.070   4.313  0.00  0.00     0.114 C 
ATOM     27  C   UNL d   1      28.268 -14.856   5.573  0.00  0.00     0.037 C 
BRANCH  26  28
ATOM     28  C   UNL d   1      28.515 -12.702   4.267  0.00  0.00    -0.036 A 
ATOM     29  C   UNL d   1      27.790 -11.559   3.890  0.00  0.00     0.009 A 
ATOM     30  C   UNL d   1      28.414 -10.333   3.712  0.00  0.00     0.001 A 
ATOM     31  C   UNL d   1      29.759 -10.200   4.019  0.00  0.00     0.000 A 
ATOM     32  C   UNL d   1      30.493 -11.308   4.445  0.00  0.00     0.001 A 
ATOM     33  C   UNL d   1      29.880 -12.560   4.556  0.00  0.00     0.009 A 
ENDBRANCH  26  28
ENDBRANCH  24  26
ENDBRANCH   5  22
BRANCH   4  34
ATOM     34  N   UNL d   1      30.236 -14.954   0.599  0.00  0.00    -0.380 N 
ATOM     35  C   UNL d   1      31.245 -15.793   1.251  0.00  0.00     0.123 C 
ATOM     36  C   UNL d   1      31.598 -15.043   2.538  0.00  0.00     0.021 C 
ATOM     37  C   UNL d   1      31.548 -13.594   2.088  0.00  0.00     0.021 C 
ATOM     38  C   UNL d   1      30.440 -13.554   1.014  0.00  0.00     0.123 C 
ENDBRANCH   4  34
TORSDOF 7
ENDMDL
MODEL 6
REMARK VINA RESULT:    -8.867      6.600      9.116
REMARK INTER + INTRA:         -12.753
REMARK INTER:                 -10.955
REMARK INTRA:                  -1.798
REMARK CONF_INDEPENDENT:        2.088
REMARK UNBOUND:                -1.798
REMARK  7 active torsions:
REMARK  status: ('A' for Active; 'I' for Inactive)
REMARK    1  A    between atoms: C_2  and  C_4 
REMARK    2  A    between atoms: C_7  and  N_8 
REMARK       I    between atoms: N_8  and  C_9 
REMARK       I    between atoms: C_9  and  N_11 
REMARK    3  A    between atoms: N_11  and  C_12 
REMARK    4  A    between atoms: C_15  and  N_16 
REMARK    5  A    between atoms: C_21  and  C_22 
REMARK       I    between atoms: C_22  and  N_24 
REMARK    6  A    between atoms: N_24  and  C_25 
REMARK    7  A    between atoms: C_25  and  C_27 
ROOT
ATOM      1  C   UNL d   1      29.647 -13.302   1.482  0.00  0.00     0.037 A 
ATOM      2  C   UNL d   1      29.392 -12.180   0.708  0.00  0.00     0.032 A 
ATOM      3  C   UNL d   1      28.633 -12.298  -0.484  0.00  0.00     0.032 A 
ATOM      4  C   UNL d   1      28.102 -13.520  -0.969  0.00  0.00     0.046 A 
ATOM      5  C   UNL d   1      28.354 -14.658  -0.154  0.00  0.00     0.060 A 
ATOM      6  C   UNL d   1      29.133 -14.523   1.027  0.00  0.00     0.049 A 
ENDROOT
BRANCH   1   7
ATOM      7  N   UNL d   1      30.368 -13.240   2.725  0.00  0.00    -0.309 N 
ATOM      8  C   UNL d   1      29.666 -13.141   3.920  0.00  0.00     0.325 C 
ATOM      9  N   UNL d   1      30.424 -13.023   5.083  0.00  0.00    -0.309 N 
ATOM     10  O   UNL d   1      28.438 -13.176   3.899  0.00  0.00    -0.247 OA
ATOM     11  H   UNL d   1      31.432 -13.058   5.037  0.00  0.00     0.170 HD
ATOM     12  H   UNL d   1      31.332 -13.537   2.736  0.00  0.00     0.170 HD
BRANCH   9  13
ATOM     13  C   UNL d   1      29.838 -12.977   6.396  0.00  0.00     0.036 A 
ATOM     14  C   UNL d   1      29.217 -11.822   6.894  0.00  0.00     0.030 A 
ATOM     15  C   UNL d   1      28.743 -11.776   8.229  0.00  0.00     0.010 A 
ATOM     16  C   UNL d   1      28.786 -12.912   9.053  0.00  0.00    -0.055 A 
ATOM     17  C   UNL d   1      29.409 -14.044   8.548  0.00  0.00     0.010 A 
ATOM     18  C   UNL d   1      29.895 -14.075   7.253  0.00  0.00     0.030 A 
BRANCH  16  19
ATOM     19  C   UNL d   1      28.048 -12.976  10.381  0.00  0.00     0.010 C 
ATOM     20  C   UNL d   1      27.780 -14.450  10.711  0.00  0.00     0.015 C 
ATOM     21  C   UNL d   1      28.834 -12.352  11.547  0.00  0.00     0.015 C 
ENDBRANCH  16  19
ENDBRANCH   9  13
ENDBRANCH   1   7
BRANCH   5  22
ATOM     22  C   UNL d   1      27.826 -16.020  -0.465  0.00  0.00     0.254 C 
ATOM     23  O   UNL d   1      28.521 -16.855  -1.045  0.00  0.00    -0.268 OA
ATOM     24  N   UNL d   1      26.539 -16.395  -0.134  0.00  0.00    -0.349 N 
ATOM     25  H   UNL d   1      25.887 -15.787   0.333  0.00  0.00     0.163 HD
BRANCH  24  26
ATOM     26  C   UNL d   1      26.091 -17.738  -0.471  0.00  0.00     0.114 C 
ATOM     27  C   UNL d   1      26.566 -18.774   0.568  0.00  0.00     0.037 C 
BRANCH  26  28
ATOM     28  C   UNL d   1      24.581 -17.768  -0.638  0.00  0.00    -0.036 A 
ATOM     29  C   UNL d   1      23.854 -16.589  -0.880  0.00  0.00     0.009 A 
ATOM     30  C   UNL d   1      22.467 -16.585  -0.895  0.00  0.00     0.001 A 
ATOM     31  C   UNL d   1      21.779 -17.783  -0.781  0.00  0.00     0.000 A 
ATOM     32  C   UNL d   1      22.477 -18.976  -0.591  0.00  0.00     0.001 A 
ATOM     33  C   UNL d   1      23.872 -18.971  -0.505  0.00  0.00     0.009 A 
ENDBRANCH  26  28
ENDBRANCH  24  26
ENDBRANCH   5  22
BRANCH   4  34
ATOM     34  N   UNL d   1      27.381 -13.449  -2.158  0.00  0.00    -0.380 N 
ATOM     35  C   UNL d   1      26.006 -12.964  -2.295  0.00  0.00     0.123 C 
ATOM     36  C   UNL d   1      25.293 -14.048  -3.107  0.00  0.00     0.021 C 
ATOM     37  C   UNL d   1      26.372 -14.479  -4.084  0.00  0.00     0.021 C 
ATOM     38  C   UNL d   1      27.694 -14.326  -3.302  0.00  0.00     0.123 C 
ENDBRANCH   4  34
TORSDOF 7
ENDMDL
MODEL 7
REMARK VINA RESULT:    -8.838      4.474      6.651
REMARK INTER + INTRA:         -12.256
REMARK INTER:                 -10.926
REMARK INTRA:                  -1.330
REMARK CONF_INDEPENDENT:        2.088
REMARK UNBOUND:                -1.330
REMARK  7 active torsions:
REMARK  status: ('A' for Active; 'I' for Inactive)
REMARK    1  A    between atoms: C_2  and  C_4 
REMARK    2  A    between atoms: C_7  and  N_8 
REMARK       I    between atoms: N_8  and  C_9 
REMARK       I    between atoms: C_9  and  N_11 
REMARK    3  A    between atoms: N_11  and  C_12 
REMARK    4  A    between atoms: C_15  and  N_16 
REMARK    5  A    between atoms: C_21  and  C_22 
REMARK       I    between atoms: C_22  and  N_24 
REMARK    6  A    between atoms: N_24  and  C_25 
REMARK    7  A    between atoms: C_25  and  C_27 
ROOT
ATOM      1  C   UNL d   1      25.470 -15.061  -2.438  0.00  0.00     0.037 A 
ATOM      2  C   UNL d   1      25.132 -14.347  -3.578  0.00  0.00     0.032 A 
ATOM      3  C   UNL d   1      25.575 -13.009  -3.734  0.00  0.00     0.032 A 
ATOM      4  C   UNL d   1      26.356 -12.315  -2.776  0.00  0.00     0.046 A 
ATOM      5  C   UNL d   1      26.711 -13.066  -1.622  0.00  0.00     0.060 A 
ATOM      6  C   UNL d   1      26.243 -14.400  -1.475  0.00  0.00     0.049 A 
ENDROOT
BRANCH   1   7
ATOM      7  N   UNL d   1      25.094 -16.436  -2.243  0.00  0.00    -0.309 N 
ATOM      8  C   UNL d   1      23.904 -16.735  -1.591  0.00  0.00     0.325 C 
ATOM      9  N   UNL d   1      23.628 -18.084  -1.380  0.00  0.00    -0.309 N 
ATOM     10  O   UNL d   1      23.159 -15.819  -1.251  0.00  0.00    -0.247 OA
ATOM     11  H   UNL d   1      24.256 -18.791  -1.735  0.00  0.00     0.170 HD
ATOM     12  H   UNL d   1      25.545 -17.141  -2.805  0.00  0.00     0.170 HD
BRANCH   9  13
ATOM     13  C   UNL d   1      22.407 -18.548  -0.777  0.00  0.00     0.036 A 
ATOM     14  C   UNL d   1      21.305 -18.953  -1.545  0.00  0.00     0.030 A 
ATOM     15  C   UNL d   1      20.082 -19.305  -0.922  0.00  0.00     0.010 A 
ATOM     16  C   UNL d   1      19.971 -19.360   0.477  0.00  0.00    -0.055 A 
ATOM     17  C   UNL d   1      21.067 -18.950   1.221  0.00  0.00     0.010 A 
ATOM     18  C   UNL d   1      22.251 -18.581   0.607  0.00  0.00     0.030 A 
BRANCH  16  19
ATOM     19  C   UNL d   1      18.771 -19.989   1.169  0.00  0.00     0.010 C 
ATOM     20  C   UNL d   1      18.321 -21.201   0.342  0.00  0.00     0.015 C 
ATOM     21  C   UNL d   1      19.071 -20.462   2.602  0.00  0.00     0.015 C 
ENDBRANCH  16  19
ENDBRANCH   9  13
ENDBRANCH   1   7
BRANCH   5  22
ATOM     22  C   UNL d   1      27.580 -12.530  -0.531  0.00  0.00     0.254 C 
ATOM     23  O   UNL d   1      28.734 -12.165  -0.759  0.00  0.00    -0.268 OA
ATOM     24  N   UNL d   1      27.138 -12.435   0.773  0.00  0.00    -0.349 N 
ATOM     25  H   UNL d   1      26.216 -12.714   1.068  0.00  0.00     0.163 HD
BRANCH  24  26
ATOM     26  C   UNL d   1      28.041 -11.906   1.784  0.00  0.00     0.114 C 
ATOM     27  C   UNL d   1      27.804 -10.401   2.027  0.00  0.00     0.037 C 
BRANCH  26  28
ATOM     28  C   UNL d   1      27.923 -12.703   3.072  0.00  0.00    -0.036 A 
ATOM     29  C   UNL d   1      27.781 -12.060   4.314  0.00  0.00     0.009 A 
ATOM     30  C   UNL d   1      27.812 -12.771   5.504  0.00  0.00     0.001 A 
ATOM     31  C   UNL d   1      27.871 -14.155   5.472  0.00  0.00     0.000 A 
ATOM     32  C   UNL d   1      27.961 -14.824   4.250  0.00  0.00     0.001 A 
ATOM     33  C   UNL d   1      28.002 -14.103   3.053  0.00  0.00     0.009 A 
ENDBRANCH  26  28
ENDBRANCH  24  26
ENDBRANCH   5  22
BRANCH   4  34
ATOM     34  N   UNL d   1      26.700 -11.004  -3.094  0.00  0.00    -0.380 N 
ATOM     35  C   UNL d   1      27.807 -10.245  -2.507  0.00  0.00     0.123 C 
ATOM     36  C   UNL d   1      27.183  -8.910  -2.092  0.00  0.00     0.021 C 
ATOM     37  C   UNL d   1      26.195  -8.654  -3.215  0.00  0.00     0.021 C 
ATOM     38  C   UNL d   1      25.708 -10.057  -3.637  0.00  0.00     0.123 C 
ENDBRANCH   4  34
TORSDOF 7
ENDMDL
MODEL 8
REMARK VINA RESULT:    -8.782      1.475      2.656
REMARK INTER + INTRA:         -12.416
REMARK INTER:                 -10.870
REMARK INTRA:                  -1.546
REMARK CONF_INDEPENDENT:        2.088
REMARK UNBOUND:                -1.546
REMARK  7 active torsions:
REMARK  status: ('A' for Active; 'I' for Inactive)
REMARK    1  A    between atoms: C_2  and  C_4 
REMARK    2  A    between atoms: C_7  and  N_8 
REMARK       I    between atoms: N_8  and  C_9 
REMARK       I    between atoms: C_9  and  N_11 
REMARK    3  A    between atoms: N_11  and  C_12 
REMARK    4  A    between atoms: C_15  and  N_16 
REMARK    5  A    between atoms: C_21  and  C_22 
REMARK       I    between atoms: C_22  and  N_24 
REMARK    6  A    between atoms: N_24  and  C_25 
REMARK    7  A    between atoms: C_25  and  C_27 
ROOT
ATOM      1  C   UNL d   1      27.662 -14.816  -3.302  0.00  0.00     0.037 A 
ATOM      2  C   UNL d   1      27.291 -13.806  -4.176  0.00  0.00     0.032 A 
ATOM      3  C   UNL d   1      27.982 -13.642  -5.404  0.00  0.00     0.032 A 
ATOM      4  C   UNL d   1      29.068 -14.454  -5.818  0.00  0.00     0.046 A 
ATOM      5  C   UNL d   1      29.423 -15.498  -4.920  0.00  0.00     0.060 A 
ATOM      6  C   UNL d   1      28.731 -15.635  -3.686  0.00  0.00     0.049 A 
ENDROOT
BRANCH   1   7
ATOM      7  N   UNL d   1      26.970 -15.065  -2.065  0.00  0.00    -0.309 N 
ATOM      8  C   UNL d   1      25.889 -15.938  -2.048  0.00  0.00     0.325 C 
ATOM      9  N   UNL d   1      25.224 -16.088  -0.833  0.00  0.00    -0.309 N 
ATOM     10  O   UNL d   1      25.584 -16.535  -3.078  0.00  0.00    -0.247 OA
ATOM     11  H   UNL d   1      25.560 -15.610  -0.009  0.00  0.00     0.170 HD
ATOM     12  H   UNL d   1      27.431 -14.826  -1.201  0.00  0.00     0.170 HD
BRANCH   9  13
ATOM     13  C   UNL d   1      24.130 -17.003  -0.648  0.00  0.00     0.036 A 
ATOM     14  C   UNL d   1      24.332 -18.332  -0.248  0.00  0.00     0.030 A 
ATOM     15  C   UNL d   1      23.243 -19.237  -0.175  0.00  0.00     0.010 A 
ATOM     16  C   UNL d   1      21.926 -18.805  -0.398  0.00  0.00    -0.055 A 
ATOM     17  C   UNL d   1      21.744 -17.490  -0.798  0.00  0.00     0.010 A 
ATOM     18  C   UNL d   1      22.814 -16.618  -0.894  0.00  0.00     0.030 A 
BRANCH  16  19
ATOM     19  C   UNL d   1      20.723 -19.675  -0.065  0.00  0.00     0.010 C 
ATOM     20  C   UNL d   1      20.393 -19.490   1.422  0.00  0.00     0.015 C 
ATOM     21  C   UNL d   1      19.470 -19.325  -0.888  0.00  0.00     0.015 C 
ENDBRANCH  16  19
ENDBRANCH   9  13
ENDBRANCH   1   7
BRANCH   5  22
ATOM     22  C   UNL d   1      30.498 -16.495  -5.207  0.00  0.00     0.254 C 
ATOM     23  O   UNL d   1      31.680 -16.156  -5.267  0.00  0.00    -0.268 OA
ATOM     24  N   UNL d   1      30.215 -17.827  -5.433  0.00  0.00    -0.349 N 
ATOM     25  H   UNL d   1      29.282 -18.207  -5.415  0.00  0.00     0.163 HD
BRANCH  24  26
ATOM     26  C   UNL d   1      31.314 -18.741  -5.711  0.00  0.00     0.114 C 
ATOM     27  C   UNL d   1      31.106 -20.106  -5.023  0.00  0.00     0.037 C 
BRANCH  26  28
ATOM     28  C   UNL d   1      31.510 -18.896  -7.209  0.00  0.00    -0.036 A 
ATOM     29  C   UNL d   1      30.818 -19.883  -7.934  0.00  0.00     0.009 A 
ATOM     30  C   UNL d   1      31.093 -20.123  -9.272  0.00  0.00     0.001 A 
ATOM     31  C   UNL d   1      31.986 -19.303  -9.944  0.00  0.00     0.000 A 
ATOM     32  C   UNL d   1      32.649 -18.282  -9.262  0.00  0.00     0.001 A 
ATOM     33  C   UNL d   1      32.425 -18.086  -7.896  0.00  0.00     0.009 A 
ENDBRANCH  26  28
ENDBRANCH  24  26
ENDBRANCH   5  22
BRANCH   4  34
ATOM     34  N   UNL d   1      29.628 -14.150  -7.055  0.00  0.00    -0.380 N 
ATOM     35  C   UNL d   1      30.940 -14.596  -7.532  0.00  0.00     0.123 C 
ATOM     36  C   UNL d   1      31.619 -13.324  -8.045  0.00  0.00     0.021 C 
ATOM     37  C   UNL d   1      30.458 -12.571  -8.671  0.00  0.00     0.021 C 
ATOM     38  C   UNL d   1      29.236 -12.940  -7.802  0.00  0.00     0.123 C 
ENDBRANCH   4  34
TORSDOF 7
ENDMDL
MODEL 9
REMARK VINA RESULT:    -8.653      2.549      5.848
REMARK INTER + INTRA:         -12.426
REMARK INTER:                 -10.741
REMARK INTRA:                  -1.685
REMARK CONF_INDEPENDENT:        2.088
REMARK UNBOUND:                -1.685
REMARK  7 active torsions:
REMARK  status: ('A' for Active; 'I' for Inactive)
REMARK    1  A    between atoms: C_2  and  C_4 
REMARK    2  A    between atoms: C_7  and  N_8 
REMARK       I    between atoms: N_8  and  C_9 
REMARK       I    between atoms: C_9  and  N_11 
REMARK    3  A    between atoms: N_11  and  C_12 
REMARK    4  A    between atoms: C_15  and  N_16 
REMARK    5  A    between atoms: C_21  and  C_22 
REMARK       I    between atoms: C_22  and  N_24 
REMARK    6  A    between atoms: N_24  and  C_25 
REMARK    7  A    between atoms: C_25  and  C_27 
ROOT
ATOM      1  C   UNL d   1      27.208 -14.068  -3.979  0.00  0.00     0.037 A 
ATOM      2  C   UNL d   1      27.870 -14.647  -5.051  0.00  0.00     0.032 A 
ATOM      3  C   UNL d   1      28.083 -13.902  -6.239  0.00  0.00     0.032 A 
ATOM      4  C   UNL d   1      27.649 -12.566  -6.427  0.00  0.00     0.046 A 
ATOM      5  C   UNL d   1      26.990 -11.979  -5.311  0.00  0.00     0.060 A 
ATOM      6  C   UNL d   1      26.770 -12.747  -4.136  0.00  0.00     0.049 A 
ENDROOT
BRANCH   1   7
ATOM      7  N   UNL d   1      27.004 -14.753  -2.731  0.00  0.00    -0.309 N 
ATOM      8  C   UNL d   1      25.834 -15.475  -2.528  0.00  0.00     0.325 C 
ATOM      9  N   UNL d   1      25.670 -16.064  -1.276  0.00  0.00    -0.309 N 
ATOM     10  O   UNL d   1      25.022 -15.570  -3.445  0.00  0.00    -0.247 OA
ATOM     11  H   UNL d   1      26.403 -15.994  -0.584  0.00  0.00     0.170 HD
ATOM     12  H   UNL d   1      27.805 -14.927  -2.142  0.00  0.00     0.170 HD
BRANCH   9  13
ATOM     13  C   UNL d   1      24.543 -16.892  -0.943  0.00  0.00     0.036 A 
ATOM     14  C   UNL d   1      23.228 -16.405  -0.969  0.00  0.00     0.030 A 
ATOM     15  C   UNL d   1      22.150 -17.215  -0.535  0.00  0.00     0.010 A 
ATOM     16  C   UNL d   1      22.352 -18.556  -0.170  0.00  0.00    -0.055 A 
ATOM     17  C   UNL d   1      23.658 -19.021  -0.144  0.00  0.00     0.010 A 
ATOM     18  C   UNL d   1      24.711 -18.216  -0.542  0.00  0.00     0.030 A 
BRANCH  16  19
ATOM     19  C   UNL d   1      21.194 -19.522   0.037  0.00  0.00     0.010 C 
ATOM     20  C   UNL d   1      20.654 -19.326   1.459  0.00  0.00     0.015 C 
ATOM     21  C   UNL d   1      20.038 -19.309  -0.957  0.00  0.00     0.015 C 
ENDBRANCH  16  19
ENDBRANCH   9  13
ENDBRANCH   1   7
BRANCH   5  22
ATOM     22  C   UNL d   1      26.515 -10.563  -5.293  0.00  0.00     0.254 C 
ATOM     23  O   UNL d   1      27.216  -9.663  -4.830  0.00  0.00    -0.268 OA
ATOM     24  N   UNL d   1      25.273 -10.205  -5.776  0.00  0.00    -0.349 N 
ATOM     25  H   UNL d   1      24.619 -10.863  -6.169  0.00  0.00     0.163 HD
BRANCH  24  26
ATOM     26  C   UNL d   1      24.875  -8.805  -5.724  0.00  0.00     0.114 C 
ATOM     27  C   UNL d   1      24.764  -8.300  -4.271  0.00  0.00     0.037 C 
BRANCH  26  28
ATOM     28  C   UNL d   1      25.830  -7.950  -6.540  0.00  0.00    -0.036 A 
ATOM     29  C   UNL d   1      26.282  -8.371  -7.803  0.00  0.00     0.009 A 
ATOM     30  C   UNL d   1      27.257  -7.667  -8.493  0.00  0.00     0.001 A 
ATOM     31  C   UNL d   1      27.719  -6.463  -7.985  0.00  0.00     0.000 A 
ATOM     32  C   UNL d   1      27.250  -5.995  -6.757  0.00  0.00     0.001 A 
ATOM     33  C   UNL d   1      26.319  -6.741  -6.027  0.00  0.00     0.009 A 
ENDBRANCH  26  28
ENDBRANCH  24  26
ENDBRANCH   5  22
BRANCH   4  34
ATOM     34  N   UNL d   1      27.944 -11.989  -7.659  0.00  0.00    -0.380 N 
ATOM     35  C   UNL d   1      27.000 -11.255  -8.506  0.00  0.00     0.123 C 
ATOM     36  C   UNL d   1      27.165 -11.876  -9.895  0.00  0.00     0.021 C 
ATOM     37  C   UNL d   1      28.658 -12.146  -9.951  0.00  0.00     0.021 C 
ATOM     38  C   UNL d   1      29.050 -12.487  -8.497  0.00  0.00     0.123 C 
ENDBRANCH   4  34
TORSDOF 7
ENDMDL
