MODEL 1
REMARK VINA RESULT:    -8.823      0.000      0.000
REMARK INTER + INTRA:         -11.976
REMARK INTER:                 -10.613
REMARK INTRA:                  -1.363
REMARK CONF_INDEPENDENT:        1.790
REMARK UNBOUND:                -1.363
REMARK  6 active torsions:
REMARK  status: ('A' for Active; 'I' for Inactive)
REMARK    1  A    between atoms: C_2  and  C_3 
REMARK    2  A    between atoms: C_3  and  C_4 
REMARK    3  A    between atoms: C_3  and  C_6 
REMARK       I    between atoms: C_6  and  N_8 
REMARK    4  A    between atoms: N_8  and  N_9 
REMARK       I    between atoms: N_9  and  C_10 
REMARK    5  A    between atoms: C_10  and  C_12 
REMARK    6  A    between atoms: C_16  and  N_17 
ROOT
ATOM      1  N   UNL d   1      23.301 -18.042  -0.773  0.00  0.00    -0.263 N 
ATOM      2  C   UNL d   1      24.615 -17.878  -0.347  0.00  0.00     0.270 C 
ATOM      3  O   UNL d   1      25.084 -18.466   0.618  0.00  0.00    -0.266 OA
ATOM      4  H   UNL d   1      22.917 -17.628  -1.619  0.00  0.00     0.190 HD
ENDROOT
BRANCH   1   5
ATOM      5  N   UNL d   1      22.438 -18.944  -0.077  0.00  0.00    -0.267 N 
ATOM      6  C   UNL d   1      21.083 -18.947  -0.387  0.00  0.00     0.240 C 
ATOM      7  O   UNL d   1      20.636 -18.165  -1.229  0.00  0.00    -0.271 OA
ATOM      8  H   UNL d   1      22.876 -19.545   0.617  0.00  0.00     0.190 HD
BRANCH   6   9
ATOM      9  C   UNL d   1      20.172 -19.952   0.397  0.00  0.00     0.079 C 
BRANCH   9  10
ATOM     10  C   UNL d   1      19.949 -19.421   1.845  0.00  0.00     0.010 C 
ATOM     11  C   UNL d   1      19.631 -20.450   2.927  0.00  0.00     0.006 C 
ENDBRANCH   9  10
BRANCH   9  12
ATOM     12  C   UNL d   1      18.850 -20.183  -0.368  0.00  0.00     0.010 C 
ATOM     13  C   UNL d   1      17.885 -21.200   0.234  0.00  0.00     0.006 C 
ENDBRANCH   9  12
ENDBRANCH   6   9
ENDBRANCH   1   5
BRANCH   2  14
ATOM     14  C   UNL d   1      25.471 -16.909  -1.110  0.00  0.00     0.036 A 
ATOM     15  C   UNL d   1      26.479 -16.190  -0.440  0.00  0.00     0.017 A 
ATOM     16  C   UNL d   1      27.178 -15.157  -1.086  0.00  0.00     0.003 A 
ATOM     17  C   UNL d   1      26.914 -14.862  -2.423  0.00  0.00     0.036 A 
ATOM     18  C   UNL d   1      25.912 -15.576  -3.092  0.00  0.00     0.103 A 
ATOM     19  C   UNL d   1      25.189 -16.598  -2.445  0.00  0.00     0.053 A 
BRANCH  18  20
ATOM     20  N   UNL d   1      25.567 -15.212  -4.473  0.00  0.00    -0.116 N 
ATOM     21  O   UNL d   1      24.774 -14.275  -4.645  0.00  0.00    -0.532 OA
ATOM     22  O   UNL d   1      26.084 -15.872  -5.385  0.00  0.00    -0.532 OA
ENDBRANCH  18  20
ENDBRANCH   2  14
TORSDOF 6
ENDMDL
MODEL 2
REMARK VINA RESULT:    -6.432      2.953      8.059
REMARK INTER + INTRA:          -9.710
REMARK INTER:                  -8.221
REMARK INTRA:                  -1.489
REMARK CONF_INDEPENDENT:        1.790
REMARK UNBOUND:                -1.489
REMARK  6 active torsions:
REMARK  status: ('A' for Active; 'I' for Inactive)
REMARK    1  A    between atoms: C_2  and  C_3 
REMARK    2  A    between atoms: C_3  and  C_4 
REMARK    3  A    between atoms: C_3  and  C_6 
REMARK       I    between atoms: C_6  and  N_8 
REMARK    4  A    between atoms: N_8  and  N_9 
REMARK       I    between atoms: N_9  and  C_10 
REMARK    5  A    between atoms: C_10  and  C_12 
REMARK    6  A    between atoms: C_16  and  N_17 
ROOT
ATOM      1  N   UNL d   1      25.882 -15.341  -3.130  0.00  0.00    -0.263 N 
ATOM      2  C   UNL d   1      25.648 -15.160  -1.771  0.00  0.00     0.270 C 
ATOM      3  O   UNL d   1      25.989 -14.156  -1.161  0.00  0.00    -0.266 OA
ATOM      4  H   UNL d   1      25.534 -16.129  -3.671  0.00  0.00     0.190 HD
ENDROOT
BRANCH   1   5
ATOM      5  N   UNL d   1      26.537 -14.316  -3.878  0.00  0.00    -0.267 N 
ATOM      6  C   UNL d   1      26.764 -14.518  -5.235  0.00  0.00     0.240 C 
ATOM      7  O   UNL d   1      26.423 -15.574  -5.771  0.00  0.00    -0.271 OA
ATOM      8  H   UNL d   1      26.805 -13.479  -3.363  0.00  0.00     0.190 HD
BRANCH   6   9
ATOM      9  C   UNL d   1      27.483 -13.368  -6.019  0.00  0.00     0.079 C 
BRANCH   9  10
ATOM     10  C   UNL d   1      27.454 -12.066  -5.164  0.00  0.00     0.010 C 
ATOM     11  C   UNL d   1      26.097 -11.408  -4.932  0.00  0.00     0.006 C 
ENDBRANCH   9  10
BRANCH   9  12
ATOM     12  C   UNL d   1      28.915 -13.800  -6.406  0.00  0.00     0.010 C 
ATOM     13  C   UNL d   1      29.280 -15.258  -6.146  0.00  0.00     0.006 C 
ENDBRANCH   9  12
ENDBRANCH   6   9
ENDBRANCH   1   5
BRANCH   2  14
ATOM     14  C   UNL d   1      24.965 -16.276  -1.035  0.00  0.00     0.036 A 
ATOM     15  C   UNL d   1      25.693 -17.057  -0.117  0.00  0.00     0.017 A 
ATOM     16  C   UNL d   1      25.132 -18.210   0.455  0.00  0.00     0.003 A 
ATOM     17  C   UNL d   1      23.818 -18.570   0.158  0.00  0.00     0.036 A 
ATOM     18  C   UNL d   1      23.090 -17.796  -0.755  0.00  0.00     0.103 A 
ATOM     19  C   UNL d   1      23.655 -16.651  -1.353  0.00  0.00     0.053 A 
BRANCH  18  20
ATOM     20  N   UNL d   1      21.737 -18.219  -1.142  0.00  0.00    -0.116 N 
ATOM     21  O   UNL d   1      20.797 -17.451  -0.895  0.00  0.00    -0.532 OA
ATOM     22  O   UNL d   1      21.618 -19.325  -1.685  0.00  0.00    -0.532 OA
ENDBRANCH  18  20
ENDBRANCH   2  14
TORSDOF 6
ENDMDL
MODEL 3
REMARK VINA RESULT:    -6.363      2.964      8.149
REMARK INTER + INTRA:          -9.623
REMARK INTER:                  -8.153
REMARK INTRA:                  -1.470
REMARK CONF_INDEPENDENT:        1.790
REMARK UNBOUND:                -1.470
REMARK  6 active torsions:
REMARK  status: ('A' for Active; 'I' for Inactive)
REMARK    1  A    between atoms: C_2  and  C_3 
REMARK    2  A    between atoms: C_3  and  C_4 
REMARK    3  A    between atoms: C_3  and  C_6 
REMARK       I    between atoms: C_6  and  N_8 
REMARK    4  A    between atoms: N_8  and  N_9 
REMARK       I    between atoms: N_9  and  C_10 
REMARK    5  A    between atoms: C_10  and  C_12 
REMARK    6  A    between atoms: C_16  and  N_17 
ROOT
ATOM      1  N   UNL d   1      26.142 -15.492  -2.999  0.00  0.00    -0.263 N 
ATOM      2  C   UNL d   1      25.772 -15.347  -1.665  0.00  0.00     0.270 C 
ATOM      3  O   UNL d   1      26.050 -14.360  -0.998  0.00  0.00    -0.266 OA
ATOM      4  H   UNL d   1      25.850 -16.265  -3.593  0.00  0.00     0.190 HD
ENDROOT
BRANCH   1   5
ATOM      5  N   UNL d   1      26.868 -14.449  -3.650  0.00  0.00    -0.267 N 
ATOM      6  C   UNL d   1      27.128 -14.563  -5.011  0.00  0.00     0.240 C 
ATOM      7  O   UNL d   1      26.756 -15.560  -5.633  0.00  0.00    -0.271 OA
ATOM      8  H   UNL d   1      27.158 -13.667  -3.067  0.00  0.00     0.190 HD
BRANCH   6   9
ATOM      9  C   UNL d   1      27.926 -13.397  -5.687  0.00  0.00     0.079 C 
BRANCH   9  10
ATOM     10  C   UNL d   1      28.572 -13.914  -7.007  0.00  0.00     0.010 C 
ATOM     11  C   UNL d   1      29.663 -14.974  -6.887  0.00  0.00     0.006 C 
ENDBRANCH   9  10
BRANCH   9  12
ATOM     12  C   UNL d   1      27.004 -12.177  -5.909  0.00  0.00     0.010 C 
ATOM     13  C   UNL d   1      25.796 -12.059  -4.984  0.00  0.00     0.006 C 
ENDBRANCH   9  12
ENDBRANCH   6   9
ENDBRANCH   1   5
BRANCH   2  14
ATOM     14  C   UNL d   1      25.019 -16.481  -1.032  0.00  0.00     0.036 A 
ATOM     15  C   UNL d   1      25.701 -17.400  -0.211  0.00  0.00     0.017 A 
ATOM     16  C   UNL d   1      25.065 -18.562   0.254  0.00  0.00     0.003 A 
ATOM     17  C   UNL d   1      23.725 -18.796  -0.052  0.00  0.00     0.036 A 
ATOM     18  C   UNL d   1      23.043 -17.884  -0.868  0.00  0.00     0.103 A 
ATOM     19  C   UNL d   1      23.682 -16.727  -1.359  0.00  0.00     0.053 A 
BRANCH  18  20
ATOM     20  N   UNL d   1      21.658 -18.168  -1.268  0.00  0.00    -0.116 N 
ATOM     21  O   UNL d   1      21.383 -19.323  -1.622  0.00  0.00    -0.532 OA
ATOM     22  O   UNL d   1      20.849 -17.231  -1.235  0.00  0.00    -0.532 OA
ENDBRANCH  18  20
ENDBRANCH   2  14
TORSDOF 6
ENDMDL
MODEL 4
REMARK VINA RESULT:    -6.276      2.326      8.075
REMARK INTER + INTRA:          -8.809
REMARK INTER:                  -8.065
REMARK INTRA:                  -0.744
REMARK CONF_INDEPENDENT:        1.790
REMARK UNBOUND:                -0.744
REMARK  6 active torsions:
REMARK  status: ('A' for Active; 'I' for Inactive)
REMARK    1  A    between atoms: C_2  and  C_3 
REMARK    2  A    between atoms: C_3  and  C_4 
REMARK    3  A    between atoms: C_3  and  C_6 
REMARK       I    between atoms: C_6  and  N_8 
REMARK    4  A    between atoms: N_8  and  N_9 
REMARK       I    between atoms: N_9  and  C_10 
REMARK    5  A    between atoms: C_10  and  C_12 
REMARK    6  A    between atoms: C_16  and  N_17 
ROOT
ATOM      1  N   UNL d   1      22.562 -17.501  -0.401  0.00  0.00    -0.263 N 
ATOM      2  C   UNL d   1      21.930 -18.696  -0.727  0.00  0.00     0.270 C 
ATOM      3  O   UNL d   1      22.168 -19.322  -1.750  0.00  0.00    -0.266 OA
ATOM      4  H   UNL d   1      22.439 -17.009   0.482  0.00  0.00     0.190 HD
ENDROOT
BRANCH   1   5
ATOM      5  N   UNL d   1      23.553 -16.962  -1.278  0.00  0.00    -0.267 N 
ATOM      6  C   UNL d   1      24.880 -16.947  -0.860  0.00  0.00     0.240 C 
ATOM      7  O   UNL d   1      25.184 -17.370   0.257  0.00  0.00    -0.271 OA
ATOM      8  H   UNL d   1      23.223 -16.615  -2.176  0.00  0.00     0.190 HD
BRANCH   6   9
ATOM      9  C   UNL d   1      25.934 -16.350  -1.852  0.00  0.00     0.079 C 
BRANCH   9  10
ATOM     10  C   UNL d   1      25.433 -14.967  -2.364  0.00  0.00     0.010 C 
ATOM     11  C   UNL d   1      25.828 -14.558  -3.781  0.00  0.00     0.006 C 
ENDBRANCH   9  10
BRANCH   9  12
ATOM     12  C   UNL d   1      27.321 -16.273  -1.175  0.00  0.00     0.010 C 
ATOM     13  C   UNL d   1      27.793 -17.526  -0.445  0.00  0.00     0.006 C 
ENDBRANCH   9  12
ENDBRANCH   6   9
ENDBRANCH   1   5
BRANCH   2  14
ATOM     14  C   UNL d   1      20.890 -19.207   0.228  0.00  0.00     0.036 A 
ATOM     15  C   UNL d   1      21.028 -18.962   1.608  0.00  0.00     0.017 A 
ATOM     16  C   UNL d   1      20.169 -19.569   2.538  0.00  0.00     0.003 A 
ATOM     17  C   UNL d   1      19.130 -20.389   2.100  0.00  0.00     0.036 A 
ATOM     18  C   UNL d   1      18.990 -20.635   0.728  0.00  0.00     0.103 A 
ATOM     19  C   UNL d   1      19.862 -20.049  -0.211  0.00  0.00     0.053 A 
BRANCH  18  20
ATOM     20  N   UNL d   1      17.953 -21.569   0.265  0.00  0.00    -0.116 N 
ATOM     21  O   UNL d   1      17.926 -22.701   0.768  0.00  0.00    -0.532 OA
ATOM     22  O   UNL d   1      17.173 -21.169  -0.610  0.00  0.00    -0.532 OA
ENDBRANCH  18  20
ENDBRANCH   2  14
TORSDOF 6
ENDMDL
