MODEL 1
REMARK VINA RESULT:   -32.108      0.000      0.000
REMARK INTER + INTRA:         -35.242
REMARK INTER:                 -34.196
REMARK INTRA:                  -1.046
REMARK CONF_INDEPENDENT:        2.088
REMARK UNBOUND:                -1.046
REMARK  7 active torsions:
REMARK  status: ('A' for Active; 'I' for Inactive)
REMARK    1  A    between atoms: C_5  and  C_6 
REMARK       I    between atoms: C_6  and  N_8 
REMARK    2  A    between atoms: N_8  and  C_9 
REMARK    3  A    between atoms: C_16  and  N_17 
REMARK    4  A    between atoms: N_17  and  C_18 
REMARK    5  A    between atoms: C_18  and  C_19 
REMARK       I    between atoms: C_19  and  N_21 
REMARK    6  A    between atoms: N_21  and  C_22 
REMARK    7  A    between atoms: C_25  and  C_26 
ROOT
ATOM      1  C   UNL d   1      21.964 -19.323   0.032  0.00  0.00     0.162 C 
ATOM      2  C   UNL d   1      20.635 -19.355  -0.606  0.00  0.00     0.063 C 
ATOM      3  N   UNL d   1      19.603 -19.325  -1.152  0.00  0.00    -0.197 NA
ENDROOT
BRANCH   1   4
ATOM      4  C   UNL d   1      22.876 -18.225  -0.488  0.00  0.00    -0.045 A 
ATOM      5  C   UNL d   1      22.354 -16.974  -0.836  0.00  0.00     0.010 A 
ATOM      6  C   UNL d   1      23.177 -15.950  -1.271  0.00  0.00     0.030 A 
ATOM      7  C   UNL d   1      24.549 -16.135  -1.377  0.00  0.00     0.034 A 
ATOM      8  C   UNL d   1      25.097 -17.389  -1.098  0.00  0.00     0.030 A 
ATOM      9  C   UNL d   1      24.263 -18.423  -0.626  0.00  0.00     0.010 A 
BRANCH   7  10
ATOM     10  N   UNL d   1      25.345 -15.032  -1.743  0.00  0.00    -0.326 N 
ATOM     11  C   UNL d   1      24.927 -14.171  -2.771  0.00  0.00     0.239 C 
ATOM     12  O   UNL d   1      23.869 -14.260  -3.394  0.00  0.00    -0.271 OA
ATOM     13  H   UNL d   1      26.116 -14.780  -1.135  0.00  0.00     0.169 HD
BRANCH  11  14
ATOM     14  C   UNL d   1      25.889 -13.039  -3.055  0.00  0.00     0.223 C 
BRANCH  14  15
ATOM     15  N   UNL d   1      25.884 -12.599  -4.453  0.00  0.00    -0.381 N 
ATOM     16  H   UNL d   1      25.066 -12.053  -4.722  0.00  0.00     0.160 HD
BRANCH  15  17
ATOM     17  C   UNL d   1      26.877 -12.869  -5.387  0.00  0.00     0.035 A 
ATOM     18  C   UNL d   1      27.612 -14.077  -5.261  0.00  0.00     0.046 A 
ATOM     19  C   UNL d   1      28.627 -14.436  -6.167  0.00  0.00     0.034 A 
ATOM     20  C   UNL d   1      28.928 -13.553  -7.214  0.00  0.00     0.018 A 
ATOM     21  C   UNL d   1      28.225 -12.362  -7.358  0.00  0.00     0.010 A 
ATOM     22  C   UNL d   1      27.204 -12.012  -6.463  0.00  0.00    -0.036 A 
ATOM     23  C   UNL d   1      26.505 -10.711  -6.737  0.00  0.00     0.050 C 
BRANCH  19  24
ATOM     24  C   UNL d   1      29.423 -15.710  -6.102  0.00  0.00     0.256 C 
ATOM     25  O   UNL d   1      29.442 -16.317  -5.031  0.00  0.00    -0.267 OA
ATOM     26  N   UNL d   1      30.146 -16.113  -7.221  0.00  0.00    -0.323 N 
ATOM     27  H   UNL d   1      30.230 -15.511  -8.025  0.00  0.00     0.169 HD
BRANCH  26  28
ATOM     28  C   UNL d   1      30.884 -17.321  -7.266  0.00  0.00     0.035 A 
ATOM     29  C   UNL d   1      32.066 -17.399  -8.011  0.00  0.00     0.029 A 
ATOM     30  C   UNL d   1      32.736 -18.625  -8.138  0.00  0.00     0.002 A 
ATOM     31  C   UNL d   1      32.262 -19.758  -7.476  0.00  0.00     0.000 A 
ATOM     32  C   UNL d   1      31.087 -19.682  -6.736  0.00  0.00     0.002 A 
ATOM     33  C   UNL d   1      30.405 -18.469  -6.632  0.00  0.00     0.029 A 
ENDBRANCH  26  28
ENDBRANCH  19  24
ENDBRANCH  15  17
ENDBRANCH  14  15
ENDBRANCH  11  14
ENDBRANCH   7  10
ENDBRANCH   1   4
TORSDOF 7
ENDMDL
MODEL 2
REMARK VINA RESULT:   -31.826      4.812      7.807
REMARK INTER + INTRA:         -35.501
REMARK INTER:                 -33.914
REMARK INTRA:                  -1.587
REMARK CONF_INDEPENDENT:        2.088
REMARK UNBOUND:                -1.587
REMARK  7 active torsions:
REMARK  status: ('A' for Active; 'I' for Inactive)
REMARK    1  A    between atoms: C_5  and  C_6 
REMARK       I    between atoms: C_6  and  N_8 
REMARK    2  A    between atoms: N_8  and  C_9 
REMARK    3  A    between atoms: C_16  and  N_17 
REMARK    4  A    between atoms: N_17  and  C_18 
REMARK    5  A    between atoms: C_18  and  C_19 
REMARK       I    between atoms: C_19  and  N_21 
REMARK    6  A    between atoms: N_21  and  C_22 
REMARK    7  A    between atoms: C_25  and  C_26 
ROOT
ATOM      1  C   UNL d   1      21.969 -19.191   0.163  0.00  0.00     0.162 C 
ATOM      2  C   UNL d   1      20.692 -19.295  -0.567  0.00  0.00     0.063 C 
ATOM      3  N   UNL d   1      19.704 -19.325  -1.188  0.00  0.00    -0.197 NA
ENDROOT
BRANCH   1   4
ATOM      4  C   UNL d   1      22.916 -18.140  -0.389  0.00  0.00    -0.045 A 
ATOM      5  C   UNL d   1      22.428 -16.903  -0.824  0.00  0.00     0.010 A 
ATOM      6  C   UNL d   1      23.283 -15.919  -1.291  0.00  0.00     0.030 A 
ATOM      7  C   UNL d   1      24.654 -16.132  -1.342  0.00  0.00     0.034 A 
ATOM      8  C   UNL d   1      25.170 -17.376  -0.973  0.00  0.00     0.030 A 
ATOM      9  C   UNL d   1      24.303 -18.368  -0.470  0.00  0.00     0.010 A 
BRANCH   7  10
ATOM     10  N   UNL d   1      25.481 -15.065  -1.744  0.00  0.00    -0.326 N 
ATOM     11  C   UNL d   1      25.680 -14.804  -3.110  0.00  0.00     0.239 C 
ATOM     12  O   UNL d   1      25.155 -15.417  -4.040  0.00  0.00    -0.271 OA
ATOM     13  H   UNL d   1      25.770 -14.396  -1.040  0.00  0.00     0.169 HD
BRANCH  11  14
ATOM     14  C   UNL d   1      26.597 -13.635  -3.386  0.00  0.00     0.223 C 
BRANCH  14  15
ATOM     15  N   UNL d   1      27.977 -13.851  -2.941  0.00  0.00    -0.381 N 
ATOM     16  H   UNL d   1      28.686 -13.439  -3.546  0.00  0.00     0.160 HD
BRANCH  15  17
ATOM     17  C   UNL d   1      28.357 -14.550  -1.802  0.00  0.00     0.035 A 
ATOM     18  C   UNL d   1      28.246 -13.901  -0.543  0.00  0.00     0.046 A 
ATOM     19  C   UNL d   1      28.598 -14.536   0.662  0.00  0.00     0.034 A 
ATOM     20  C   UNL d   1      29.090 -15.848   0.605  0.00  0.00     0.018 A 
ATOM     21  C   UNL d   1      29.211 -16.505  -0.614  0.00  0.00     0.010 A 
ATOM     22  C   UNL d   1      28.847 -15.876  -1.814  0.00  0.00    -0.036 A 
ATOM     23  C   UNL d   1      29.003 -16.697  -3.062  0.00  0.00     0.050 C 
BRANCH  19  24
ATOM     24  C   UNL d   1      28.481 -13.912   2.025  0.00  0.00     0.256 C 
ATOM     25  O   UNL d   1      28.021 -12.772   2.093  0.00  0.00    -0.267 OA
ATOM     26  N   UNL d   1      28.948 -14.614   3.132  0.00  0.00    -0.323 N 
ATOM     27  H   UNL d   1      29.458 -15.477   3.018  0.00  0.00     0.169 HD
BRANCH  26  28
ATOM     28  C   UNL d   1      28.837 -14.126   4.457  0.00  0.00     0.035 A 
ATOM     29  C   UNL d   1      29.790 -14.474   5.421  0.00  0.00     0.029 A 
ATOM     30  C   UNL d   1      29.618 -14.074   6.754  0.00  0.00     0.002 A 
ATOM     31  C   UNL d   1      28.530 -13.280   7.116  0.00  0.00     0.000 A 
ATOM     32  C   UNL d   1      27.581 -12.935   6.159  0.00  0.00     0.002 A 
ATOM     33  C   UNL d   1      27.737 -13.355   4.838  0.00  0.00     0.029 A 
ENDBRANCH  26  28
ENDBRANCH  19  24
ENDBRANCH  15  17
ENDBRANCH  14  15
ENDBRANCH  11  14
ENDBRANCH   7  10
ENDBRANCH   1   4
TORSDOF 7
ENDMDL
MODEL 3
REMARK VINA RESULT:   -31.819      1.220      1.479
REMARK INTER + INTRA:         -35.026
REMARK INTER:                 -33.907
REMARK INTRA:                  -1.119
REMARK CONF_INDEPENDENT:        2.088
REMARK UNBOUND:                -1.119
REMARK  7 active torsions:
REMARK  status: ('A' for Active; 'I' for Inactive)
REMARK    1  A    between atoms: C_5  and  C_6 
REMARK       I    between atoms: C_6  and  N_8 
REMARK    2  A    between atoms: N_8  and  C_9 
REMARK    3  A    between atoms: C_16  and  N_17 
REMARK    4  A    between atoms: N_17  and  C_18 
REMARK    5  A    between atoms: C_18  and  C_19 
REMARK       I    between atoms: C_19  and  N_21 
REMARK    6  A    between atoms: N_21  and  C_22 
REMARK    7  A    between atoms: C_25  and  C_26 
ROOT
ATOM      1  C   UNL d   1      21.793 -19.196   0.246  0.00  0.00     0.162 C 
ATOM      2  C   UNL d   1      20.573 -19.295  -0.575  0.00  0.00     0.063 C 
ATOM      3  N   UNL d   1      19.634 -19.325  -1.270  0.00  0.00    -0.197 NA
ENDROOT
BRANCH   1   4
ATOM      4  C   UNL d   1      22.826 -18.221  -0.293  0.00  0.00    -0.045 A 
ATOM      5  C   UNL d   1      22.443 -16.944  -0.717  0.00  0.00     0.010 A 
ATOM      6  C   UNL d   1      23.378 -16.029  -1.171  0.00  0.00     0.030 A 
ATOM      7  C   UNL d   1      24.727 -16.353  -1.219  0.00  0.00     0.034 A 
ATOM      8  C   UNL d   1      25.138 -17.640  -0.861  0.00  0.00     0.030 A 
ATOM      9  C   UNL d   1      24.190 -18.561  -0.371  0.00  0.00     0.010 A 
BRANCH   7  10
ATOM     10  N   UNL d   1      25.641 -15.355  -1.608  0.00  0.00    -0.326 N 
ATOM     11  C   UNL d   1      25.414 -14.608  -2.777  0.00  0.00     0.239 C 
ATOM     12  O   UNL d   1      24.436 -14.715  -3.516  0.00  0.00    -0.271 OA
ATOM     13  H   UNL d   1      26.348 -15.071  -0.940  0.00  0.00     0.169 HD
BRANCH  11  14
ATOM     14  C   UNL d   1      26.484 -13.580  -3.067  0.00  0.00     0.223 C 
BRANCH  14  15
ATOM     15  N   UNL d   1      26.461 -13.079  -4.444  0.00  0.00    -0.381 N 
ATOM     16  H   UNL d   1      25.639 -12.523  -4.679  0.00  0.00     0.160 HD
BRANCH  15  17
ATOM     17  C   UNL d   1      27.443 -13.304  -5.401  0.00  0.00     0.035 A 
ATOM     18  C   UNL d   1      28.160 -14.529  -5.357  0.00  0.00     0.046 A 
ATOM     19  C   UNL d   1      29.162 -14.846  -6.293  0.00  0.00     0.034 A 
ATOM     20  C   UNL d   1      29.468 -13.905  -7.285  0.00  0.00     0.018 A 
ATOM     21  C   UNL d   1      28.783 -12.696  -7.349  0.00  0.00     0.010 A 
ATOM     22  C   UNL d   1      27.775 -12.387  -6.425  0.00  0.00    -0.036 A 
ATOM     23  C   UNL d   1      27.094 -11.062  -6.612  0.00  0.00     0.050 C 
BRANCH  19  24
ATOM     24  C   UNL d   1      29.940 -16.133  -6.313  0.00  0.00     0.256 C 
ATOM     25  O   UNL d   1      30.698 -16.326  -7.264  0.00  0.00    -0.267 OA
ATOM     26  N   UNL d   1      29.727 -17.067  -5.304  0.00  0.00    -0.323 N 
ATOM     27  H   UNL d   1      28.986 -16.940  -4.631  0.00  0.00     0.169 HD
BRANCH  26  28
ATOM     28  C   UNL d   1      30.446 -18.284  -5.216  0.00  0.00     0.035 A 
ATOM     29  C   UNL d   1      30.420 -19.199  -6.275  0.00  0.00     0.029 A 
ATOM     30  C   UNL d   1      31.047 -20.446  -6.141  0.00  0.00     0.002 A 
ATOM     31  C   UNL d   1      31.750 -20.758  -4.977  0.00  0.00     0.000 A 
ATOM     32  C   UNL d   1      31.777 -19.851  -3.924  0.00  0.00     0.002 A 
ATOM     33  C   UNL d   1      31.130 -18.621  -4.046  0.00  0.00     0.029 A 
ENDBRANCH  26  28
ENDBRANCH  19  24
ENDBRANCH  15  17
ENDBRANCH  14  15
ENDBRANCH  11  14
ENDBRANCH   7  10
ENDBRANCH   1   4
TORSDOF 7
ENDMDL
MODEL 4
REMARK VINA RESULT:   -31.293      1.550      2.156
REMARK INTER + INTRA:         -34.496
REMARK INTER:                 -33.381
REMARK INTRA:                  -1.114
REMARK CONF_INDEPENDENT:        2.088
REMARK UNBOUND:                -1.114
REMARK  7 active torsions:
REMARK  status: ('A' for Active; 'I' for Inactive)
REMARK    1  A    between atoms: C_5  and  C_6 
REMARK       I    between atoms: C_6  and  N_8 
REMARK    2  A    between atoms: N_8  and  C_9 
REMARK    3  A    between atoms: C_16  and  N_17 
REMARK    4  A    between atoms: N_17  and  C_18 
REMARK    5  A    between atoms: C_18  and  C_19 
REMARK       I    between atoms: C_19  and  N_21 
REMARK    6  A    between atoms: N_21  and  C_22 
REMARK    7  A    between atoms: C_25  and  C_26 
ROOT
ATOM      1  C   UNL d   1      22.034 -19.462  -0.145  0.00  0.00     0.162 C 
ATOM      2  C   UNL d   1      20.646 -19.370  -0.635  0.00  0.00     0.063 C 
ATOM      3  N   UNL d   1      19.564 -19.234  -1.052  0.00  0.00    -0.197 NA
ENDROOT
BRANCH   1   4
ATOM      4  C   UNL d   1      22.906 -18.278  -0.524  0.00  0.00    -0.045 A 
ATOM      5  C   UNL d   1      24.300 -18.394  -0.525  0.00  0.00     0.010 A 
ATOM      6  C   UNL d   1      25.107 -17.337  -0.909  0.00  0.00     0.030 A 
ATOM      7  C   UNL d   1      24.555 -16.125  -1.305  0.00  0.00     0.034 A 
ATOM      8  C   UNL d   1      23.169 -15.954  -1.257  0.00  0.00     0.030 A 
ATOM      9  C   UNL d   1      22.346 -17.040  -0.895  0.00  0.00     0.010 A 
BRANCH   7  10
ATOM     10  N   UNL d   1      25.421 -15.116  -1.766  0.00  0.00    -0.326 N 
ATOM     11  C   UNL d   1      25.049 -14.312  -2.857  0.00  0.00     0.239 C 
ATOM     12  O   UNL d   1      23.979 -14.376  -3.461  0.00  0.00    -0.271 OA
ATOM     13  H   UNL d   1      26.216 -14.870  -1.187  0.00  0.00     0.169 HD
BRANCH  11  14
ATOM     14  C   UNL d   1      26.084 -13.279  -3.241  0.00  0.00     0.223 C 
BRANCH  14  15
ATOM     15  N   UNL d   1      25.741 -12.522  -4.448  0.00  0.00    -0.381 N 
ATOM     16  H   UNL d   1      24.780 -12.183  -4.477  0.00  0.00     0.160 HD
BRANCH  15  17
ATOM     17  C   UNL d   1      26.604 -12.254  -5.504  0.00  0.00     0.035 A 
ATOM     18  C   UNL d   1      27.606 -13.210  -5.817  0.00  0.00     0.046 A 
ATOM     19  C   UNL d   1      28.515 -13.025  -6.875  0.00  0.00     0.034 A 
ATOM     20  C   UNL d   1      28.432 -11.845  -7.627  0.00  0.00     0.018 A 
ATOM     21  C   UNL d   1      27.462 -10.891  -7.339  0.00  0.00     0.010 A 
ATOM     22  C   UNL d   1      26.547 -11.082  -6.294  0.00  0.00    -0.036 A 
ATOM     23  C   UNL d   1      25.534  -9.991  -6.097  0.00  0.00     0.050 C 
BRANCH  19  24
ATOM     24  C   UNL d   1      29.582 -14.009  -7.270  0.00  0.00     0.256 C 
ATOM     25  O   UNL d   1      29.292 -15.206  -7.243  0.00  0.00    -0.267 OA
ATOM     26  N   UNL d   1      30.852 -13.538  -7.587  0.00  0.00    -0.323 N 
ATOM     27  H   UNL d   1      31.092 -12.569  -7.447  0.00  0.00     0.169 HD
BRANCH  26  28
ATOM     28  C   UNL d   1      31.903 -14.385  -8.015  0.00  0.00     0.035 A 
ATOM     29  C   UNL d   1      32.785 -13.966  -9.017  0.00  0.00     0.029 A 
ATOM     30  C   UNL d   1      33.758 -14.849  -9.510  0.00  0.00     0.002 A 
ATOM     31  C   UNL d   1      33.890 -16.126  -8.966  0.00  0.00     0.000 A 
ATOM     32  C   UNL d   1      33.013 -16.544  -7.970  0.00  0.00     0.002 A 
ATOM     33  C   UNL d   1      32.028 -15.677  -7.498  0.00  0.00     0.029 A 
ENDBRANCH  26  28
ENDBRANCH  19  24
ENDBRANCH  15  17
ENDBRANCH  14  15
ENDBRANCH  11  14
ENDBRANCH   7  10
ENDBRANCH   1   4
TORSDOF 7
ENDMDL
MODEL 5
REMARK VINA RESULT:   -31.290      4.446      7.925
REMARK INTER + INTRA:         -34.452
REMARK INTER:                 -33.378
REMARK INTRA:                  -1.074
REMARK CONF_INDEPENDENT:        2.088
REMARK UNBOUND:                -1.074
REMARK  7 active torsions:
REMARK  status: ('A' for Active; 'I' for Inactive)
REMARK    1  A    between atoms: C_5  and  C_6 
REMARK       I    between atoms: C_6  and  N_8 
REMARK    2  A    between atoms: N_8  and  C_9 
REMARK    3  A    between atoms: C_16  and  N_17 
REMARK    4  A    between atoms: N_17  and  C_18 
REMARK    5  A    between atoms: C_18  and  C_19 
REMARK       I    between atoms: C_19  and  N_21 
REMARK    6  A    between atoms: N_21  and  C_22 
REMARK    7  A    between atoms: C_25  and  C_26 
ROOT
ATOM      1  C   UNL d   1      21.955 -19.313   0.115  0.00  0.00     0.162 C 
ATOM      2  C   UNL d   1      20.683 -19.345  -0.632  0.00  0.00     0.063 C 
ATOM      3  N   UNL d   1      19.701 -19.317  -1.264  0.00  0.00    -0.197 NA
ENDROOT
BRANCH   1   4
ATOM      4  C   UNL d   1      22.939 -18.267  -0.381  0.00  0.00    -0.045 A 
ATOM      5  C   UNL d   1      22.483 -17.032  -0.855  0.00  0.00     0.010 A 
ATOM      6  C   UNL d   1      23.369 -16.053  -1.270  0.00  0.00     0.030 A 
ATOM      7  C   UNL d   1      24.740 -16.268  -1.229  0.00  0.00     0.034 A 
ATOM      8  C   UNL d   1      25.228 -17.512  -0.819  0.00  0.00     0.030 A 
ATOM      9  C   UNL d   1      24.327 -18.498  -0.368  0.00  0.00     0.010 A 
BRANCH   7  10
ATOM     10  N   UNL d   1      25.594 -15.206  -1.582  0.00  0.00    -0.326 N 
ATOM     11  C   UNL d   1      25.745 -14.841  -2.931  0.00  0.00     0.239 C 
ATOM     12  O   UNL d   1      25.154 -15.354  -3.881  0.00  0.00    -0.271 OA
ATOM     13  H   UNL d   1      25.943 -14.609  -0.841  0.00  0.00     0.169 HD
BRANCH  11  14
ATOM     14  C   UNL d   1      26.700 -13.691  -3.154  0.00  0.00     0.223 C 
BRANCH  14  15
ATOM     15  N   UNL d   1      26.569 -12.617  -2.165  0.00  0.00    -0.381 N 
ATOM     16  H   UNL d   1      26.490 -12.936  -1.200  0.00  0.00     0.160 HD
BRANCH  15  17
ATOM     17  C   UNL d   1      26.548 -11.257  -2.450  0.00  0.00     0.035 A 
ATOM     18  C   UNL d   1      25.734 -10.803  -3.521  0.00  0.00     0.046 A 
ATOM     19  C   UNL d   1      25.644  -9.444  -3.872  0.00  0.00     0.034 A 
ATOM     20  C   UNL d   1      26.402  -8.516  -3.144  0.00  0.00     0.018 A 
ATOM     21  C   UNL d   1      27.210  -8.934  -2.092  0.00  0.00     0.010 A 
ATOM     22  C   UNL d   1      27.289 -10.287  -1.734  0.00  0.00    -0.036 A 
ATOM     23  C   UNL d   1      28.178 -10.609  -0.568  0.00  0.00     0.050 C 
BRANCH  19  24
ATOM     24  C   UNL d   1      24.783  -8.900  -4.979  0.00  0.00     0.256 C 
ATOM     25  O   UNL d   1      24.790  -9.500  -6.054  0.00  0.00    -0.267 OA
ATOM     26  N   UNL d   1      24.072  -7.723  -4.765  0.00  0.00    -0.323 N 
ATOM     27  H   UNL d   1      24.214  -7.179  -3.928  0.00  0.00     0.169 HD
BRANCH  26  28
ATOM     28  C   UNL d   1      23.201  -7.164  -5.732  0.00  0.00     0.035 A 
ATOM     29  C   UNL d   1      23.659  -6.898  -7.027  0.00  0.00     0.029 A 
ATOM     30  C   UNL d   1      22.824  -6.248  -7.948  0.00  0.00     0.002 A 
ATOM     31  C   UNL d   1      21.515  -5.917  -7.598  0.00  0.00     0.000 A 
ATOM     32  C   UNL d   1      21.058  -6.179  -6.311  0.00  0.00     0.002 A 
ATOM     33  C   UNL d   1      21.897  -6.801  -5.386  0.00  0.00     0.029 A 
ENDBRANCH  26  28
ENDBRANCH  19  24
ENDBRANCH  15  17
ENDBRANCH  14  15
ENDBRANCH  11  14
ENDBRANCH   7  10
ENDBRANCH   1   4
TORSDOF 7
ENDMDL
MODEL 6
REMARK VINA RESULT:   -31.279      1.912      2.940
REMARK INTER + INTRA:         -34.959
REMARK INTER:                 -33.367
REMARK INTRA:                  -1.592
REMARK CONF_INDEPENDENT:        2.088
REMARK UNBOUND:                -1.592
REMARK  7 active torsions:
REMARK  status: ('A' for Active; 'I' for Inactive)
REMARK    1  A    between atoms: C_5  and  C_6 
REMARK       I    between atoms: C_6  and  N_8 
REMARK    2  A    between atoms: N_8  and  C_9 
REMARK    3  A    between atoms: C_16  and  N_17 
REMARK    4  A    between atoms: N_17  and  C_18 
REMARK    5  A    between atoms: C_18  and  C_19 
REMARK       I    between atoms: C_19  and  N_21 
REMARK    6  A    between atoms: N_21  and  C_22 
REMARK    7  A    between atoms: C_25  and  C_26 
ROOT
ATOM      1  C   UNL d   1      22.112 -19.438  -0.138  0.00  0.00     0.162 C 
ATOM      2  C   UNL d   1      20.772 -19.386  -0.751  0.00  0.00     0.063 C 
ATOM      3  N   UNL d   1      19.730 -19.284  -1.270  0.00  0.00    -0.197 NA
ENDROOT
BRANCH   1   4
ATOM      4  C   UNL d   1      23.018 -18.283  -0.528  0.00  0.00    -0.045 A 
ATOM      5  C   UNL d   1      22.475 -17.046  -0.893  0.00  0.00     0.010 A 
ATOM      6  C   UNL d   1      23.288 -15.973  -1.211  0.00  0.00     0.030 A 
ATOM      7  C   UNL d   1      24.672 -16.091  -1.177  0.00  0.00     0.034 A 
ATOM      8  C   UNL d   1      25.247 -17.327  -0.876  0.00  0.00     0.030 A 
ATOM      9  C   UNL d   1      24.420 -18.413  -0.524  0.00  0.00     0.010 A 
BRANCH   7  10
ATOM     10  N   UNL d   1      25.447 -14.942  -1.426  0.00  0.00    -0.326 N 
ATOM     11  C   UNL d   1      25.446 -14.354  -2.701  0.00  0.00     0.239 C 
ATOM     12  O   UNL d   1      24.780 -14.733  -3.665  0.00  0.00    -0.271 OA
ATOM     13  H   UNL d   1      25.848 -14.458  -0.630  0.00  0.00     0.169 HD
BRANCH  11  14
ATOM     14  C   UNL d   1      26.332 -13.134  -2.817  0.00  0.00     0.223 C 
BRANCH  14  15
ATOM     15  N   UNL d   1      27.738 -13.394  -2.497  0.00  0.00    -0.381 N 
ATOM     16  H   UNL d   1      28.245 -12.590  -2.131  0.00  0.00     0.160 HD
BRANCH  15  17
ATOM     17  C   UNL d   1      28.389 -14.612  -2.657  0.00  0.00     0.035 A 
ATOM     18  C   UNL d   1      28.745 -15.020  -3.970  0.00  0.00     0.046 A 
ATOM     19  C   UNL d   1      29.416 -16.231  -4.223  0.00  0.00     0.034 A 
ATOM     20  C   UNL d   1      29.721 -17.063  -3.137  0.00  0.00     0.018 A 
ATOM     21  C   UNL d   1      29.381 -16.689  -1.842  0.00  0.00     0.010 A 
ATOM     22  C   UNL d   1      28.725 -15.475  -1.588  0.00  0.00    -0.036 A 
ATOM     23  C   UNL d   1      28.431 -15.173  -0.147  0.00  0.00     0.050 C 
BRANCH  19  24
ATOM     24  C   UNL d   1      29.840 -16.707  -5.585  0.00  0.00     0.256 C 
ATOM     25  O   UNL d   1      29.522 -16.018  -6.555  0.00  0.00    -0.267 OA
ATOM     26  N   UNL d   1      30.512 -17.920  -5.698  0.00  0.00    -0.323 N 
ATOM     27  H   UNL d   1      30.616 -18.528  -4.900  0.00  0.00     0.169 HD
BRANCH  26  28
ATOM     28  C   UNL d   1      30.991 -18.423  -6.932  0.00  0.00     0.035 A 
ATOM     29  C   UNL d   1      30.613 -19.698  -7.370  0.00  0.00     0.029 A 
ATOM     30  C   UNL d   1      31.172 -20.232  -8.540  0.00  0.00     0.002 A 
ATOM     31  C   UNL d   1      32.061 -19.476  -9.304  0.00  0.00     0.000 A 
ATOM     32  C   UNL d   1      32.438 -18.210  -8.870  0.00  0.00     0.002 A 
ATOM     33  C   UNL d   1      31.903 -17.688  -7.692  0.00  0.00     0.029 A 
ENDBRANCH  26  28
ENDBRANCH  19  24
ENDBRANCH  15  17
ENDBRANCH  14  15
ENDBRANCH  11  14
ENDBRANCH   7  10
ENDBRANCH   1   4
TORSDOF 7
ENDMDL
MODEL 7
REMARK VINA RESULT:   -31.275      2.855      7.099
REMARK INTER + INTRA:         -34.372
REMARK INTER:                 -33.363
REMARK INTRA:                  -1.009
REMARK CONF_INDEPENDENT:        2.088
REMARK UNBOUND:                -1.009
REMARK  7 active torsions:
REMARK  status: ('A' for Active; 'I' for Inactive)
REMARK    1  A    between atoms: C_5  and  C_6 
REMARK       I    between atoms: C_6  and  N_8 
REMARK    2  A    between atoms: N_8  and  C_9 
REMARK    3  A    between atoms: C_16  and  N_17 
REMARK    4  A    between atoms: N_17  and  C_18 
REMARK    5  A    between atoms: C_18  and  C_19 
REMARK       I    between atoms: C_19  and  N_21 
REMARK    6  A    between atoms: N_21  and  C_22 
REMARK    7  A    between atoms: C_25  and  C_26 
ROOT
ATOM      1  C   UNL d   1      21.973 -19.155   0.150  0.00  0.00     0.162 C 
ATOM      2  C   UNL d   1      20.634 -18.945  -0.432  0.00  0.00     0.063 C 
ATOM      3  N   UNL d   1      19.601 -18.724  -0.930  0.00  0.00    -0.197 NA
ENDROOT
BRANCH   1   4
ATOM      4  C   UNL d   1      23.029 -18.187  -0.357  0.00  0.00    -0.045 A 
ATOM      5  C   UNL d   1      22.663 -16.926  -0.840  0.00  0.00     0.010 A 
ATOM      6  C   UNL d   1      23.616 -16.018  -1.266  0.00  0.00     0.030 A 
ATOM      7  C   UNL d   1      24.968 -16.332  -1.227  0.00  0.00     0.034 A 
ATOM      8  C   UNL d   1      25.365 -17.604  -0.807  0.00  0.00     0.030 A 
ATOM      9  C   UNL d   1      24.397 -18.519  -0.346  0.00  0.00     0.010 A 
BRANCH   7  10
ATOM     10  N   UNL d   1      25.896 -15.338  -1.592  0.00  0.00    -0.326 N 
ATOM     11  C   UNL d   1      25.738 -14.635  -2.798  0.00  0.00     0.239 C 
ATOM     12  O   UNL d   1      24.809 -14.777  -3.593  0.00  0.00    -0.271 OA
ATOM     13  H   UNL d   1      26.557 -15.024  -0.890  0.00  0.00     0.169 HD
BRANCH  11  14
ATOM     14  C   UNL d   1      26.815 -13.606  -3.056  0.00  0.00     0.223 C 
BRANCH  14  15
ATOM     15  N   UNL d   1      27.563 -13.835  -4.295  0.00  0.00    -0.381 N 
ATOM     16  H   UNL d   1      28.110 -14.695  -4.307  0.00  0.00     0.160 HD
BRANCH  15  17
ATOM     17  C   UNL d   1      27.572 -12.991  -5.399  0.00  0.00     0.035 A 
ATOM     18  C   UNL d   1      26.897 -11.745  -5.302  0.00  0.00     0.046 A 
ATOM     19  C   UNL d   1      26.864 -10.825  -6.367  0.00  0.00     0.034 A 
ATOM     20  C   UNL d   1      27.508 -11.168  -7.564  0.00  0.00     0.018 A 
ATOM     21  C   UNL d   1      28.174 -12.383  -7.686  0.00  0.00     0.010 A 
ATOM     22  C   UNL d   1      28.218 -13.293  -6.621  0.00  0.00    -0.036 A 
ATOM     23  C   UNL d   1      28.987 -14.559  -6.867  0.00  0.00     0.050 C 
BRANCH  19  24
ATOM     24  C   UNL d   1      26.187  -9.483  -6.318  0.00  0.00     0.256 C 
ATOM     25  O   UNL d   1      26.614  -8.602  -7.065  0.00  0.00    -0.267 OA
ATOM     26  N   UNL d   1      25.161  -9.276  -5.402  0.00  0.00    -0.323 N 
ATOM     27  H   UNL d   1      24.946  -9.971  -4.703  0.00  0.00     0.169 HD
BRANCH  26  28
ATOM     28  C   UNL d   1      24.437  -8.063  -5.318  0.00  0.00     0.035 A 
ATOM     29  C   UNL d   1      24.768  -7.106  -4.352  0.00  0.00     0.029 A 
ATOM     30  C   UNL d   1      23.982  -5.954  -4.205  0.00  0.00     0.002 A 
ATOM     31  C   UNL d   1      22.902  -5.726  -5.058  0.00  0.00     0.000 A 
ATOM     32  C   UNL d   1      22.571  -6.676  -6.018  0.00  0.00     0.002 A 
ATOM     33  C   UNL d   1      23.336  -7.835  -6.147  0.00  0.00     0.029 A 
ENDBRANCH  26  28
ENDBRANCH  19  24
ENDBRANCH  15  17
ENDBRANCH  14  15
ENDBRANCH  11  14
ENDBRANCH   7  10
ENDBRANCH   1   4
TORSDOF 7
ENDMDL
MODEL 8
REMARK VINA RESULT:   -31.247      4.542      7.619
REMARK INTER + INTRA:         -34.555
REMARK INTER:                 -33.335
REMARK INTRA:                  -1.220
REMARK CONF_INDEPENDENT:        2.088
REMARK UNBOUND:                -1.220
REMARK  7 active torsions:
REMARK  status: ('A' for Active; 'I' for Inactive)
REMARK    1  A    between atoms: C_5  and  C_6 
REMARK       I    between atoms: C_6  and  N_8 
REMARK    2  A    between atoms: N_8  and  C_9 
REMARK    3  A    between atoms: C_16  and  N_17 
REMARK    4  A    between atoms: N_17  and  C_18 
REMARK    5  A    between atoms: C_18  and  C_19 
REMARK       I    between atoms: C_19  and  N_21 
REMARK    6  A    between atoms: N_21  and  C_22 
REMARK    7  A    between atoms: C_25  and  C_26 
ROOT
ATOM      1  C   UNL d   1      21.876 -18.965   0.342  0.00  0.00     0.162 C 
ATOM      2  C   UNL d   1      20.702 -19.147  -0.530  0.00  0.00     0.063 C 
ATOM      3  N   UNL d   1      19.804 -19.250  -1.270  0.00  0.00    -0.197 NA
ENDROOT
BRANCH   1   4
ATOM      4  C   UNL d   1      22.965 -18.091  -0.257  0.00  0.00    -0.045 A 
ATOM      5  C   UNL d   1      22.659 -16.823  -0.763  0.00  0.00     0.010 A 
ATOM      6  C   UNL d   1      23.646 -15.998  -1.274  0.00  0.00     0.030 A 
ATOM      7  C   UNL d   1      24.973 -16.406  -1.299  0.00  0.00     0.034 A 
ATOM      8  C   UNL d   1      25.306 -17.689  -0.858  0.00  0.00     0.030 A 
ATOM      9  C   UNL d   1      24.305 -18.518  -0.311  0.00  0.00     0.010 A 
BRANCH   7  10
ATOM     10  N   UNL d   1      25.944 -15.492  -1.750  0.00  0.00    -0.326 N 
ATOM     11  C   UNL d   1      25.794 -14.861  -2.997  0.00  0.00     0.239 C 
ATOM     12  O   UNL d   1      24.839 -15.003  -3.760  0.00  0.00    -0.271 OA
ATOM     13  H   UNL d   1      26.640 -15.171  -1.087  0.00  0.00     0.169 HD
BRANCH  11  14
ATOM     14  C   UNL d   1      26.919 -13.914  -3.347  0.00  0.00     0.223 C 
BRANCH  14  15
ATOM     15  N   UNL d   1      26.625 -12.511  -3.043  0.00  0.00    -0.381 N 
ATOM     16  H   UNL d   1      26.176 -11.999  -3.801  0.00  0.00     0.160 HD
BRANCH  15  17
ATOM     17  C   UNL d   1      26.907 -11.870  -1.843  0.00  0.00     0.035 A 
ATOM     18  C   UNL d   1      27.018 -12.657  -0.667  0.00  0.00     0.046 A 
ATOM     19  C   UNL d   1      27.312 -12.093   0.589  0.00  0.00     0.034 A 
ATOM     20  C   UNL d   1      27.480 -10.703   0.672  0.00  0.00     0.018 A 
ATOM     21  C   UNL d   1      27.374  -9.909  -0.465  0.00  0.00     0.010 A 
ATOM     22  C   UNL d   1      27.095 -10.473  -1.718  0.00  0.00    -0.036 A 
ATOM     23  C   UNL d   1      27.027  -9.515  -2.872  0.00  0.00     0.050 C 
BRANCH  19  24
ATOM     24  C   UNL d   1      27.466 -12.874   1.865  0.00  0.00     0.256 C 
ATOM     25  O   UNL d   1      27.145 -14.062   1.848  0.00  0.00    -0.267 OA
ATOM     26  N   UNL d   1      27.902 -12.216   3.011  0.00  0.00    -0.323 N 
ATOM     27  H   UNL d   1      28.005 -11.213   3.022  0.00  0.00     0.169 HD
BRANCH  26  28
ATOM     28  C   UNL d   1      28.121 -12.880   4.243  0.00  0.00     0.035 A 
ATOM     29  C   UNL d   1      28.159 -12.155   5.439  0.00  0.00     0.029 A 
ATOM     30  C   UNL d   1      28.480 -12.802   6.642  0.00  0.00     0.002 A 
ATOM     31  C   UNL d   1      28.705 -14.178   6.662  0.00  0.00     0.000 A 
ATOM     32  C   UNL d   1      28.668 -14.899   5.474  0.00  0.00     0.002 A 
ATOM     33  C   UNL d   1      28.376 -14.253   4.273  0.00  0.00     0.029 A 
ENDBRANCH  26  28
ENDBRANCH  19  24
ENDBRANCH  15  17
ENDBRANCH  14  15
ENDBRANCH  11  14
ENDBRANCH   7  10
ENDBRANCH   1   4
TORSDOF 7
ENDMDL
MODEL 9
REMARK VINA RESULT:   -30.522      6.126      9.233
REMARK INTER + INTRA:         -33.981
REMARK INTER:                 -32.610
REMARK INTRA:                  -1.371
REMARK CONF_INDEPENDENT:        2.088
REMARK UNBOUND:                -1.371
REMARK  7 active torsions:
REMARK  status: ('A' for Active; 'I' for Inactive)
REMARK    1  A    between atoms: C_5  and  C_6 
REMARK       I    between atoms: C_6  and  N_8 
REMARK    2  A    between atoms: N_8  and  C_9 
REMARK    3  A    between atoms: C_16  and  N_17 
REMARK    4  A    between atoms: N_17  and  C_18 
REMARK    5  A    between atoms: C_18  and  C_19 
REMARK       I    between atoms: C_19  and  N_21 
REMARK    6  A    between atoms: N_21  and  C_22 
REMARK    7  A    between atoms: C_25  and  C_26 
ROOT
ATOM      1  C   UNL d   1      21.960 -19.108   0.301  0.00  0.00     0.162 C 
ATOM      2  C   UNL d   1      20.789 -18.836  -0.552  0.00  0.00     0.063 C 
ATOM      3  N   UNL d   1      19.903 -18.578  -1.269  0.00  0.00    -0.197 NA
ENDROOT
BRANCH   1   4
ATOM      4  C   UNL d   1      23.228 -18.396  -0.139  0.00  0.00    -0.045 A 
ATOM      5  C   UNL d   1      23.217 -17.551  -1.254  0.00  0.00     0.010 A 
ATOM      6  C   UNL d   1      24.354 -16.863  -1.643  0.00  0.00     0.030 A 
ATOM      7  C   UNL d   1      25.542 -16.992  -0.936  0.00  0.00     0.034 A 
ATOM      8  C   UNL d   1      25.605 -17.874   0.145  0.00  0.00     0.030 A 
ATOM      9  C   UNL d   1      24.440 -18.552   0.559  0.00  0.00     0.010 A 
BRANCH   7  10
ATOM     10  N   UNL d   1      26.640 -16.203  -1.326  0.00  0.00    -0.326 N 
ATOM     11  C   UNL d   1      27.950 -16.632  -1.054  0.00  0.00     0.239 C 
ATOM     12  O   UNL d   1      28.257 -17.695  -0.514  0.00  0.00    -0.271 OA
ATOM     13  H   UNL d   1      26.469 -15.428  -1.957  0.00  0.00     0.169 HD
BRANCH  11  14
ATOM     14  C   UNL d   1      29.022 -15.677  -1.525  0.00  0.00     0.223 C 
BRANCH  14  15
ATOM     15  N   UNL d   1      29.412 -14.686  -0.518  0.00  0.00    -0.381 N 
ATOM     16  H   UNL d   1      30.390 -14.400  -0.562  0.00  0.00     0.160 HD
BRANCH  15  17
ATOM     17  C   UNL d   1      28.572 -14.142   0.446  0.00  0.00     0.035 A 
ATOM     18  C   UNL d   1      28.848 -14.411   1.813  0.00  0.00     0.046 A 
ATOM     19  C   UNL d   1      28.057 -13.892   2.855  0.00  0.00     0.034 A 
ATOM     20  C   UNL d   1      26.951 -13.100   2.519  0.00  0.00     0.018 A 
ATOM     21  C   UNL d   1      26.656 -12.823   1.189  0.00  0.00     0.010 A 
ATOM     22  C   UNL d   1      27.453 -13.329   0.152  0.00  0.00    -0.036 A 
ATOM     23  C   UNL d   1      27.046 -12.942  -1.241  0.00  0.00     0.050 C 
BRANCH  19  24
ATOM     24  C   UNL d   1      28.311 -14.122   4.319  0.00  0.00     0.256 C 
ATOM     25  O   UNL d   1      28.306 -15.285   4.724  0.00  0.00    -0.267 OA
ATOM     26  N   UNL d   1      28.479 -13.022   5.156  0.00  0.00    -0.323 N 
ATOM     27  H   UNL d   1      28.322 -12.086   4.815  0.00  0.00     0.169 HD
BRANCH  26  28
ATOM     28  C   UNL d   1      28.769 -13.143   6.536  0.00  0.00     0.035 A 
ATOM     29  C   UNL d   1      28.160 -12.291   7.464  0.00  0.00     0.029 A 
ATOM     30  C   UNL d   1      28.529 -12.345   8.816  0.00  0.00     0.002 A 
ATOM     31  C   UNL d   1      29.461 -13.287   9.253  0.00  0.00     0.000 A 
ATOM     32  C   UNL d   1      30.068 -14.134   8.333  0.00  0.00     0.002 A 
ATOM     33  C   UNL d   1      29.722 -14.062   6.984  0.00  0.00     0.029 A 
ENDBRANCH  26  28
ENDBRANCH  19  24
ENDBRANCH  15  17
ENDBRANCH  14  15
ENDBRANCH  11  14
ENDBRANCH   7  10
ENDBRANCH   1   4
TORSDOF 7
ENDMDL
