MODEL 1
REMARK VINA RESULT:    -7.813      0.000      0.000
REMARK INTER + INTRA:          -9.090
REMARK INTER:                  -8.708
REMARK INTRA:                  -0.382
REMARK CONF_INDEPENDENT:        0.895
REMARK UNBOUND:                -0.382
REMARK  3 active torsions:
REMARK  status: ('A' for Active; 'I' for Inactive)
REMARK    1  A    between atoms: C_5  and  C_6 
REMARK    2  A    between atoms: N_7  and  N_8 
REMARK       I    between atoms: N_8  and  C_9 
REMARK    3  A    between atoms: C_9  and  C_11 
ROOT
ATOM      1  N   UNL d   1      23.358 -17.067  -1.022  0.00  0.00    -0.243 N 
ATOM      2  C   UNL d   1      24.630 -17.372  -0.519  0.00  0.00     0.274 C 
ATOM      3  O   UNL d   1      24.822 -18.117   0.449  0.00  0.00    -0.266 OA
ATOM      4  H   UNL d   1      23.261 -16.531  -1.876  0.00  0.00     0.192 HD
ENDROOT
BRANCH   2   5
ATOM      5  C   UNL d   1      25.771 -16.776  -1.230  0.00  0.00     0.061 A 
ATOM      6  C   UNL d   1      27.104 -17.073  -0.980  0.00  0.00     0.106 A 
ATOM      7  N   UNL d   1      27.896 -16.304  -1.793  0.00  0.00    -0.364 N 
ATOM      8  C   UNL d   1      27.115 -15.437  -2.522  0.00  0.00     0.043 A 
ATOM      9  H   UNL d   1      28.908 -16.324  -1.814  0.00  0.00     0.165 HD
ATOM     10  C   UNL d   1      27.485 -14.421  -3.416  0.00  0.00     0.030 A 
ATOM     11  C   UNL d   1      25.783 -15.713  -2.193  0.00  0.00     0.008 A 
ATOM     12  C   UNL d   1      26.463 -13.646  -3.971  0.00  0.00     0.002 A 
ATOM     13  C   UNL d   1      25.129 -13.884  -3.651  0.00  0.00     0.001 A 
ATOM     14  C   UNL d   1      24.778 -14.911  -2.768  0.00  0.00     0.015 A 
ENDBRANCH   2   5
BRANCH   1  15
ATOM     15  N   UNL d   1      22.246 -17.601  -0.400  0.00  0.00    -0.181 NA
ATOM     16  C   UNL d   1      21.955 -18.861  -0.534  0.00  0.00     0.175 C 
BRANCH  16  17
ATOM     17  C   UNL d   1      20.778 -19.389   0.132  0.00  0.00     0.094 A 
ATOM     18  C   UNL d   1      20.413 -19.327   1.464  0.00  0.00     0.041 A 
ATOM     19  C   UNL d   1      19.178 -19.997   1.599  0.00  0.00     0.035 A 
ATOM     20  C   UNL d   1      18.835 -20.439   0.341  0.00  0.00     0.050 A 
ATOM     21  C   UNL d   1      17.655 -21.200  -0.141  0.00  0.00     0.076 C 
ATOM     22  O   UNL d   1      19.804 -20.074  -0.566  0.00  0.00    -0.314 OA
ENDBRANCH  16  17
ENDBRANCH   1  15
TORSDOF 3
ENDMDL
MODEL 2
REMARK VINA RESULT:    -7.704      2.846      8.281
REMARK INTER + INTRA:          -8.980
REMARK INTER:                  -8.599
REMARK INTRA:                  -0.380
REMARK CONF_INDEPENDENT:        0.895
REMARK UNBOUND:                -0.380
REMARK  3 active torsions:
REMARK  status: ('A' for Active; 'I' for Inactive)
REMARK    1  A    between atoms: C_5  and  C_6 
REMARK    2  A    between atoms: N_7  and  N_8 
REMARK       I    between atoms: N_8  and  C_9 
REMARK    3  A    between atoms: C_9  and  C_11 
ROOT
ATOM      1  N   UNL d   1      23.619 -18.938   0.229  0.00  0.00    -0.243 N 
ATOM      2  C   UNL d   1      22.465 -18.167   0.033  0.00  0.00     0.274 C 
ATOM      3  O   UNL d   1      22.449 -16.932   0.097  0.00  0.00    -0.266 OA
ATOM      4  H   UNL d   1      23.599 -19.938   0.069  0.00  0.00     0.192 HD
ENDROOT
BRANCH   2   5
ATOM      5  C   UNL d   1      21.237 -18.905  -0.295  0.00  0.00     0.061 A 
ATOM      6  C   UNL d   1      20.659 -18.964  -1.556  0.00  0.00     0.106 A 
ATOM      7  N   UNL d   1      19.505 -19.700  -1.488  0.00  0.00    -0.364 N 
ATOM      8  C   UNL d   1      19.259 -20.063  -0.184  0.00  0.00     0.043 A 
ATOM      9  H   UNL d   1      18.891 -19.900  -2.267  0.00  0.00     0.165 HD
ATOM     10  C   UNL d   1      18.167 -20.748   0.373  0.00  0.00     0.030 A 
ATOM     11  C   UNL d   1      20.326 -19.583   0.582  0.00  0.00     0.008 A 
ATOM     12  C   UNL d   1      18.155 -20.923   1.759  0.00  0.00     0.002 A 
ATOM     13  C   UNL d   1      19.194 -20.442   2.551  0.00  0.00     0.001 A 
ATOM     14  C   UNL d   1      20.281 -19.775   1.977  0.00  0.00     0.015 A 
ENDBRANCH   2   5
BRANCH   1  15
ATOM     15  N   UNL d   1      24.806 -18.300   0.535  0.00  0.00    -0.181 NA
ATOM     16  C   UNL d   1      25.513 -17.737  -0.399  0.00  0.00     0.175 C 
BRANCH  16  17
ATOM     17  C   UNL d   1      26.758 -17.078  -0.042  0.00  0.00     0.094 A 
ATOM     18  C   UNL d   1      28.059 -17.408  -0.371  0.00  0.00     0.041 A 
ATOM     19  C   UNL d   1      28.906 -16.450   0.226  0.00  0.00     0.035 A 
ATOM     20  C   UNL d   1      28.086 -15.569   0.895  0.00  0.00     0.050 A 
ATOM     21  C   UNL d   1      28.398 -14.363   1.703  0.00  0.00     0.076 C 
ATOM     22  O   UNL d   1      26.770 -15.940   0.739  0.00  0.00    -0.314 OA
ENDBRANCH  16  17
ENDBRANCH   1  15
TORSDOF 3
ENDMDL
MODEL 3
REMARK VINA RESULT:    -7.506      0.966      1.300
REMARK INTER + INTRA:          -8.809
REMARK INTER:                  -8.401
REMARK INTRA:                  -0.408
REMARK CONF_INDEPENDENT:        0.895
REMARK UNBOUND:                -0.408
REMARK  3 active torsions:
REMARK  status: ('A' for Active; 'I' for Inactive)
REMARK    1  A    between atoms: C_5  and  C_6 
REMARK    2  A    between atoms: N_7  and  N_8 
REMARK       I    between atoms: N_8  and  C_9 
REMARK    3  A    between atoms: C_9  and  C_11 
ROOT
ATOM      1  N   UNL d   1      23.700 -16.873  -0.679  0.00  0.00    -0.243 N 
ATOM      2  C   UNL d   1      24.918 -17.494  -0.371  0.00  0.00     0.274 C 
ATOM      3  O   UNL d   1      25.003 -18.567   0.239  0.00  0.00    -0.266 OA
ATOM      4  H   UNL d   1      23.680 -16.046  -1.264  0.00  0.00     0.192 HD
ENDROOT
BRANCH   2   5
ATOM      5  C   UNL d   1      26.132 -16.815  -0.845  0.00  0.00     0.061 A 
ATOM      6  C   UNL d   1      27.294 -16.656  -0.101  0.00  0.00     0.106 A 
ATOM      7  N   UNL d   1      28.203 -15.939  -0.834  0.00  0.00    -0.364 N 
ATOM      8  C   UNL d   1      27.636 -15.543  -2.023  0.00  0.00     0.043 A 
ATOM      9  H   UNL d   1      29.133 -15.684  -0.527  0.00  0.00     0.165 HD
ATOM     10  C   UNL d   1      28.154 -14.736  -3.048  0.00  0.00     0.030 A 
ATOM     11  C   UNL d   1      26.344 -16.079  -2.059  0.00  0.00     0.008 A 
ATOM     12  C   UNL d   1      27.316 -14.445  -4.127  0.00  0.00     0.002 A 
ATOM     13  C   UNL d   1      26.020 -14.950  -4.183  0.00  0.00     0.001 A 
ATOM     14  C   UNL d   1      25.525 -15.766  -3.160  0.00  0.00     0.015 A 
ENDBRANCH   2   5
BRANCH   1  15
ATOM     15  N   UNL d   1      22.522 -17.466  -0.265  0.00  0.00    -0.181 NA
ATOM     16  C   UNL d   1      22.138 -18.599  -0.775  0.00  0.00     0.175 C 
BRANCH  16  17
ATOM     17  C   UNL d   1      20.894 -19.193  -0.318  0.00  0.00     0.094 A 
ATOM     18  C   UNL d   1      19.770 -19.553  -1.038  0.00  0.00     0.041 A 
ATOM     19  C   UNL d   1      18.833 -20.085  -0.126  0.00  0.00     0.035 A 
ATOM     20  C   UNL d   1      19.424 -20.032   1.116  0.00  0.00     0.050 A 
ATOM     21  C   UNL d   1      18.931 -20.446   2.453  0.00  0.00     0.076 C 
ATOM     22  O   UNL d   1      20.685 -19.489   1.014  0.00  0.00    -0.314 OA
ENDBRANCH  16  17
ENDBRANCH   1  15
TORSDOF 3
ENDMDL
MODEL 4
REMARK VINA RESULT:    -7.427      1.340      2.390
REMARK INTER + INTRA:          -8.719
REMARK INTER:                  -8.322
REMARK INTRA:                  -0.397
REMARK CONF_INDEPENDENT:        0.895
REMARK UNBOUND:                -0.397
REMARK  3 active torsions:
REMARK  status: ('A' for Active; 'I' for Inactive)
REMARK    1  A    between atoms: C_5  and  C_6 
REMARK    2  A    between atoms: N_7  and  N_8 
REMARK       I    between atoms: N_8  and  C_9 
REMARK    3  A    between atoms: C_9  and  C_11 
ROOT
ATOM      1  N   UNL d   1      23.951 -18.022  -0.415  0.00  0.00    -0.243 N 
ATOM      2  C   UNL d   1      23.898 -16.709  -0.903  0.00  0.00     0.274 C 
ATOM      3  O   UNL d   1      22.921 -15.965  -0.759  0.00  0.00    -0.266 OA
ATOM      4  H   UNL d   1      24.810 -18.556  -0.473  0.00  0.00     0.192 HD
ENDROOT
BRANCH   2   5
ATOM      5  C   UNL d   1      25.103 -16.223  -1.591  0.00  0.00     0.061 A 
ATOM      6  C   UNL d   1      25.102 -15.468  -2.756  0.00  0.00     0.106 A 
ATOM      7  N   UNL d   1      26.396 -15.230  -3.139  0.00  0.00    -0.364 N 
ATOM      8  C   UNL d   1      27.261 -15.886  -2.295  0.00  0.00     0.043 A 
ATOM      9  H   UNL d   1      26.677 -14.701  -3.955  0.00  0.00     0.165 HD
ATOM     10  C   UNL d   1      28.660 -15.995  -2.341  0.00  0.00     0.030 A 
ATOM     11  C   UNL d   1      26.482 -16.511  -1.316  0.00  0.00     0.008 A 
ATOM     12  C   UNL d   1      29.277 -16.790  -1.371  0.00  0.00     0.002 A 
ATOM     13  C   UNL d   1      28.528 -17.439  -0.394  0.00  0.00     0.001 A 
ATOM     14  C   UNL d   1      27.136 -17.307  -0.355  0.00  0.00     0.015 A 
ENDBRANCH   2   5
BRANCH   1  15
ATOM     15  N   UNL d   1      22.851 -18.535   0.245  0.00  0.00    -0.181 NA
ATOM     16  C   UNL d   1      21.820 -18.963  -0.422  0.00  0.00     0.175 C 
BRANCH  16  17
ATOM     17  C   UNL d   1      20.679 -19.494   0.304  0.00  0.00     0.094 A 
ATOM     18  C   UNL d   1      20.327 -19.340   1.631  0.00  0.00     0.041 A 
ATOM     19  C   UNL d   1      19.131 -20.060   1.840  0.00  0.00     0.035 A 
ATOM     20  C   UNL d   1      18.798 -20.623   0.629  0.00  0.00     0.050 A 
ATOM     21  C   UNL d   1      17.655 -21.482   0.230  0.00  0.00     0.076 C 
ATOM     22  O   UNL d   1      19.736 -20.285  -0.320  0.00  0.00    -0.314 OA
ENDBRANCH  16  17
ENDBRANCH   1  15
TORSDOF 3
ENDMDL
MODEL 5
REMARK VINA RESULT:    -7.193      1.551      1.954
REMARK INTER + INTRA:          -8.452
REMARK INTER:                  -8.088
REMARK INTRA:                  -0.365
REMARK CONF_INDEPENDENT:        0.895
REMARK UNBOUND:                -0.365
REMARK  3 active torsions:
REMARK  status: ('A' for Active; 'I' for Inactive)
REMARK    1  A    between atoms: C_5  and  C_6 
REMARK    2  A    between atoms: N_7  and  N_8 
REMARK       I    between atoms: N_8  and  C_9 
REMARK    3  A    between atoms: C_9  and  C_11 
ROOT
ATOM      1  N   UNL d   1      24.587 -18.577  -0.005  0.00  0.00    -0.243 N 
ATOM      2  C   UNL d   1      25.025 -17.628  -0.938  0.00  0.00     0.274 C 
ATOM      3  O   UNL d   1      24.333 -17.226  -1.881  0.00  0.00    -0.266 OA
ATOM      4  H   UNL d   1      25.155 -18.800   0.804  0.00  0.00     0.192 HD
ENDROOT
BRANCH   2   5
ATOM      5  C   UNL d   1      26.376 -17.086  -0.729  0.00  0.00     0.061 A 
ATOM      6  C   UNL d   1      27.135 -17.270   0.418  0.00  0.00     0.106 A 
ATOM      7  N   UNL d   1      28.319 -16.590   0.287  0.00  0.00    -0.364 N 
ATOM      8  C   UNL d   1      28.325 -15.886  -0.894  0.00  0.00     0.043 A 
ATOM      9  H   UNL d   1      29.056 -16.560   0.980  0.00  0.00     0.165 HD
ATOM     10  C   UNL d   1      29.280 -14.997  -1.411  0.00  0.00     0.030 A 
ATOM     11  C   UNL d   1      27.125 -16.179  -1.551  0.00  0.00     0.008 A 
ATOM     12  C   UNL d   1      28.986 -14.369  -2.625  0.00  0.00     0.002 A 
ATOM     13  C   UNL d   1      27.794 -14.627  -3.294  0.00  0.00     0.001 A 
ATOM     14  C   UNL d   1      26.860 -15.527  -2.771  0.00  0.00     0.015 A 
ENDBRANCH   2   5
BRANCH   1  15
ATOM     15  N   UNL d   1      23.324 -19.120  -0.146  0.00  0.00    -0.181 NA
ATOM     16  C   UNL d   1      22.279 -18.484   0.295  0.00  0.00     0.175 C 
BRANCH  16  17
ATOM     17  C   UNL d   1      20.967 -19.086   0.133  0.00  0.00     0.094 A 
ATOM     18  C   UNL d   1      20.052 -18.950  -0.895  0.00  0.00     0.041 A 
ATOM     19  C   UNL d   1      18.929 -19.741  -0.573  0.00  0.00     0.035 A 
ATOM     20  C   UNL d   1      19.202 -20.331   0.641  0.00  0.00     0.050 A 
ATOM     21  C   UNL d   1      18.405 -21.262   1.478  0.00  0.00     0.076 C 
ATOM     22  O   UNL d   1      20.446 -19.940   1.084  0.00  0.00    -0.314 OA
ENDBRANCH  16  17
ENDBRANCH   1  15
TORSDOF 3
ENDMDL
MODEL 6
REMARK VINA RESULT:    -6.704      2.837      4.394
REMARK INTER + INTRA:          -7.969
REMARK INTER:                  -7.599
REMARK INTRA:                  -0.370
REMARK CONF_INDEPENDENT:        0.895
REMARK UNBOUND:                -0.370
REMARK  3 active torsions:
REMARK  status: ('A' for Active; 'I' for Inactive)
REMARK    1  A    between atoms: C_5  and  C_6 
REMARK    2  A    between atoms: N_7  and  N_8 
REMARK       I    between atoms: N_8  and  C_9 
REMARK    3  A    between atoms: C_9  and  C_11 
ROOT
ATOM      1  N   UNL d   1      25.739 -15.112  -2.823  0.00  0.00    -0.243 N 
ATOM      2  C   UNL d   1      25.296 -14.272  -3.852  0.00  0.00     0.274 C 
ATOM      3  O   UNL d   1      24.102 -14.044  -4.082  0.00  0.00    -0.266 OA
ATOM      4  H   UNL d   1      26.728 -15.189  -2.615  0.00  0.00     0.192 HD
ENDROOT
BRANCH   2   5
ATOM      5  C   UNL d   1      26.340 -13.624  -4.659  0.00  0.00     0.061 A 
ATOM      6  C   UNL d   1      26.245 -12.351  -5.205  0.00  0.00     0.106 A 
ATOM      7  N   UNL d   1      27.378 -12.088  -5.931  0.00  0.00    -0.364 N 
ATOM      8  C   UNL d   1      28.191 -13.197  -5.946  0.00  0.00     0.043 A 
ATOM      9  H   UNL d   1      27.567 -11.228  -6.431  0.00  0.00     0.165 HD
ATOM     10  C   UNL d   1      29.404 -13.420  -6.617  0.00  0.00     0.030 A 
ATOM     11  C   UNL d   1      27.570 -14.171  -5.158  0.00  0.00     0.008 A 
ATOM     12  C   UNL d   1      29.984 -14.686  -6.499  0.00  0.00     0.002 A 
ATOM     13  C   UNL d   1      29.381 -15.681  -5.735  0.00  0.00     0.001 A 
ATOM     14  C   UNL d   1      28.180 -15.436  -5.061  0.00  0.00     0.015 A 
ENDBRANCH   2   5
BRANCH   1  15
ATOM     15  N   UNL d   1      24.805 -15.747  -2.027  0.00  0.00    -0.181 NA
ATOM     16  C   UNL d   1      24.760 -17.045  -1.967  0.00  0.00     0.175 C 
BRANCH  16  17
ATOM     17  C   UNL d   1      23.763 -17.679  -1.122  0.00  0.00     0.094 A 
ATOM     18  C   UNL d   1      23.770 -17.897   0.243  0.00  0.00     0.041 A 
ATOM     19  C   UNL d   1      22.567 -18.554   0.576  0.00  0.00     0.035 A 
ATOM     20  C   UNL d   1      21.869 -18.709  -0.601  0.00  0.00     0.050 A 
ATOM     21  C   UNL d   1      20.547 -19.324  -0.881  0.00  0.00     0.076 C 
ATOM     22  O   UNL d   1      22.588 -18.178  -1.648  0.00  0.00    -0.314 OA
ENDBRANCH  16  17
ENDBRANCH   1  15
TORSDOF 3
ENDMDL
MODEL 7
REMARK VINA RESULT:    -6.617      2.431      3.516
REMARK INTER + INTRA:          -7.849
REMARK INTER:                  -7.512
REMARK INTRA:                  -0.337
REMARK CONF_INDEPENDENT:        0.895
REMARK UNBOUND:                -0.337
REMARK  3 active torsions:
REMARK  status: ('A' for Active; 'I' for Inactive)
REMARK    1  A    between atoms: C_5  and  C_6 
REMARK    2  A    between atoms: N_7  and  N_8 
REMARK       I    between atoms: N_8  and  C_9 
REMARK    3  A    between atoms: C_9  and  C_11 
ROOT
ATOM      1  N   UNL d   1      25.785 -16.245  -2.598  0.00  0.00    -0.243 N 
ATOM      2  C   UNL d   1      25.499 -15.134  -3.404  0.00  0.00     0.274 C 
ATOM      3  O   UNL d   1      24.429 -14.517  -3.364  0.00  0.00    -0.266 OA
ATOM      4  H   UNL d   1      26.711 -16.654  -2.600  0.00  0.00     0.192 HD
ENDROOT
BRANCH   2   5
ATOM      5  C   UNL d   1      26.571 -14.697  -4.311  0.00  0.00     0.061 A 
ATOM      6  C   UNL d   1      27.752 -15.391  -4.537  0.00  0.00     0.106 A 
ATOM      7  N   UNL d   1      28.537 -14.674  -5.401  0.00  0.00    -0.364 N 
ATOM      8  C   UNL d   1      27.935 -13.471  -5.690  0.00  0.00     0.043 A 
ATOM      9  H   UNL d   1      29.451 -14.955  -5.734  0.00  0.00     0.165 HD
ATOM     10  C   UNL d   1      28.396 -12.391  -6.459  0.00  0.00     0.030 A 
ATOM     11  C   UNL d   1      26.704 -13.460  -5.026  0.00  0.00     0.008 A 
ATOM     12  C   UNL d   1      27.585 -11.255  -6.528  0.00  0.00     0.002 A 
ATOM     13  C   UNL d   1      26.362 -11.207  -5.864  0.00  0.00     0.001 A 
ATOM     14  C   UNL d   1      25.912 -12.299  -5.114  0.00  0.00     0.015 A 
ENDBRANCH   2   5
BRANCH   1  15
ATOM     15  N   UNL d   1      24.819 -16.701  -1.721  0.00  0.00    -0.181 NA
ATOM     16  C   UNL d   1      24.052 -17.700  -2.044  0.00  0.00     0.175 C 
BRANCH  16  17
ATOM     17  C   UNL d   1      23.046 -18.152  -1.099  0.00  0.00     0.094 A 
ATOM     18  C   UNL d   1      22.933 -17.908   0.257  0.00  0.00     0.041 A 
ATOM     19  C   UNL d   1      21.779 -18.578   0.715  0.00  0.00     0.035 A 
ATOM     20  C   UNL d   1      21.229 -19.204  -0.382  0.00  0.00     0.050 A 
ATOM     21  C   UNL d   1      20.018 -20.051  -0.521  0.00  0.00     0.076 C 
ATOM     22  O   UNL d   1      21.994 -18.951  -1.498  0.00  0.00    -0.314 OA
ENDBRANCH  16  17
ENDBRANCH   1  15
TORSDOF 3
ENDMDL
MODEL 8
REMARK VINA RESULT:    -6.558      4.209      8.674
REMARK INTER + INTRA:          -7.777
REMARK INTER:                  -7.452
REMARK INTRA:                  -0.324
REMARK CONF_INDEPENDENT:        0.895
REMARK UNBOUND:                -0.324
REMARK  3 active torsions:
REMARK  status: ('A' for Active; 'I' for Inactive)
REMARK    1  A    between atoms: C_5  and  C_6 
REMARK    2  A    between atoms: N_7  and  N_8 
REMARK       I    between atoms: N_8  and  C_9 
REMARK    3  A    between atoms: C_9  and  C_11 
ROOT
ATOM      1  N   UNL d   1      25.603 -13.164  -2.792  0.00  0.00    -0.243 N 
ATOM      2  C   UNL d   1      25.503 -14.497  -3.214  0.00  0.00     0.274 C 
ATOM      3  O   UNL d   1      25.152 -14.829  -4.353  0.00  0.00    -0.266 OA
ATOM      4  H   UNL d   1      25.988 -12.943  -1.882  0.00  0.00     0.192 HD
ENDROOT
BRANCH   2   5
ATOM      5  C   UNL d   1      25.873 -15.521  -2.227  0.00  0.00     0.061 A 
ATOM      6  C   UNL d   1      27.166 -15.974  -2.000  0.00  0.00     0.106 A 
ATOM      7  N   UNL d   1      27.137 -16.958  -1.047  0.00  0.00    -0.364 N 
ATOM      8  C   UNL d   1      25.835 -17.229  -0.694  0.00  0.00     0.043 A 
ATOM      9  H   UNL d   1      27.944 -17.457  -0.694  0.00  0.00     0.165 HD
ATOM     10  C   UNL d   1      25.317 -18.200   0.178  0.00  0.00     0.030 A 
ATOM     11  C   UNL d   1      25.024 -16.344  -1.413  0.00  0.00     0.008 A 
ATOM     12  C   UNL d   1      23.927 -18.286   0.296  0.00  0.00     0.002 A 
ATOM     13  C   UNL d   1      23.094 -17.430  -0.419  0.00  0.00     0.001 A 
ATOM     14  C   UNL d   1      23.628 -16.458  -1.271  0.00  0.00     0.015 A 
ENDBRANCH   2   5
BRANCH   1  15
ATOM     15  N   UNL d   1      25.273 -12.155  -3.677  0.00  0.00    -0.181 NA
ATOM     16  C   UNL d   1      25.905 -11.020  -3.649  0.00  0.00     0.175 C 
BRANCH  16  17
ATOM     17  C   UNL d   1      25.531  -9.980  -4.592  0.00  0.00     0.094 A 
ATOM     18  C   UNL d   1      26.083  -9.658  -5.818  0.00  0.00     0.041 A 
ATOM     19  C   UNL d   1      25.357  -8.565  -6.337  0.00  0.00     0.035 A 
ATOM     20  C   UNL d   1      24.387  -8.264  -5.408  0.00  0.00     0.050 A 
ATOM     21  C   UNL d   1      23.331  -7.220  -5.398  0.00  0.00     0.076 C 
ATOM     22  O   UNL d   1      24.481  -9.122  -4.336  0.00  0.00    -0.314 OA
ENDBRANCH  16  17
ENDBRANCH   1  15
TORSDOF 3
ENDMDL
MODEL 9
REMARK VINA RESULT:    -6.522      3.243      5.100
REMARK INTER + INTRA:          -7.736
REMARK INTER:                  -7.417
REMARK INTRA:                  -0.320
REMARK CONF_INDEPENDENT:        0.895
REMARK UNBOUND:                -0.320
REMARK  3 active torsions:
REMARK  status: ('A' for Active; 'I' for Inactive)
REMARK    1  A    between atoms: C_5  and  C_6 
REMARK    2  A    between atoms: N_7  and  N_8 
REMARK       I    between atoms: N_8  and  C_9 
REMARK    3  A    between atoms: C_9  and  C_11 
ROOT
ATOM      1  N   UNL d   1      25.637 -14.416  -3.627  0.00  0.00    -0.243 N 
ATOM      2  C   UNL d   1      26.368 -14.509  -4.819  0.00  0.00     0.274 C 
ATOM      3  O   UNL d   1      26.594 -15.576  -5.401  0.00  0.00    -0.266 OA
ATOM      4  H   UNL d   1      25.396 -13.510  -3.243  0.00  0.00     0.192 HD
ENDROOT
BRANCH   2   5
ATOM      5  C   UNL d   1      26.846 -13.240  -5.388  0.00  0.00     0.061 A 
ATOM      6  C   UNL d   1      27.862 -13.126  -6.327  0.00  0.00     0.106 A 
ATOM      7  N   UNL d   1      28.075 -11.799  -6.599  0.00  0.00    -0.364 N 
ATOM      8  C   UNL d   1      27.276 -11.023  -5.793  0.00  0.00     0.043 A 
ATOM      9  H   UNL d   1      28.760 -11.437  -7.251  0.00  0.00     0.165 HD
ATOM     10  C   UNL d   1      27.207  -9.627  -5.663  0.00  0.00     0.030 A 
ATOM     11  C   UNL d   1      26.495 -11.896  -5.028  0.00  0.00     0.008 A 
ATOM     12  C   UNL d   1      26.332  -9.110  -4.703  0.00  0.00     0.002 A 
ATOM     13  C   UNL d   1      25.554  -9.954  -3.916  0.00  0.00     0.001 A 
ATOM     14  C   UNL d   1      25.625 -11.343  -4.069  0.00  0.00     0.015 A 
ENDBRANCH   2   5
BRANCH   1  15
ATOM     15  N   UNL d   1      25.156 -15.574  -3.045  0.00  0.00    -0.181 NA
ATOM     16  C   UNL d   1      24.771 -15.578  -1.803  0.00  0.00     0.175 C 
BRANCH  16  17
ATOM     17  C   UNL d   1      24.273 -16.813  -1.223  0.00  0.00     0.094 A 
ATOM     18  C   UNL d   1      24.958 -17.828  -0.581  0.00  0.00     0.041 A 
ATOM     19  C   UNL d   1      24.015 -18.808  -0.206  0.00  0.00     0.035 A 
ATOM     20  C   UNL d   1      22.788 -18.351  -0.631  0.00  0.00     0.050 A 
ATOM     21  C   UNL d   1      21.431 -18.944  -0.522  0.00  0.00     0.076 C 
ATOM     22  O   UNL d   1      22.930 -17.132  -1.254  0.00  0.00    -0.314 OA
ENDBRANCH  16  17
ENDBRANCH   1  15
TORSDOF 3
ENDMDL
