MODEL 1
REMARK VINA RESULT:   -10.597      0.000      0.000
REMARK INTER + INTRA:         -12.954
REMARK INTER:                 -12.088
REMARK INTRA:                  -0.866
REMARK CONF_INDEPENDENT:        1.492
REMARK UNBOUND:                -0.866
REMARK  5 active torsions:
REMARK  status: ('A' for Active; 'I' for Inactive)
REMARK    1  A    between atoms: C_10  and  O_11 
REMARK    2  A    between atoms: C_13  and  C_14 
REMARK    3  A    between atoms: C_17  and  O_18 
REMARK    4  A    between atoms: O_18  and  C_19 
REMARK    5  A    between atoms: C_19  and  C_21 
ROOT
ATOM      1  C   UNL d   1      28.793 -11.154  -4.127  0.00  0.00     0.270 C 
ATOM      2  N   UNL d   1      27.363 -11.400  -4.549  0.00  0.00    -0.070 N 
ATOM      3  C   UNL d   1      26.356 -11.090  -3.447  0.00  0.00     0.239 C 
ATOM      4  C   UNL d   1      26.665 -11.930  -2.209  0.00  0.00     0.068 C 
ATOM      5  C   UNL d   1      26.899 -13.366  -2.559  0.00  0.00    -0.024 A 
ATOM      6  C   UNL d   1      27.116 -13.770  -3.871  0.00  0.00     0.018 A 
ATOM      7  S   UNL d   1      27.353 -15.454  -3.996  0.00  0.00    -0.074 SA
ATOM      8  C   UNL d   1      27.178 -15.648  -2.315  0.00  0.00     0.087 A 
ATOM      9  C   UNL d   1      26.969 -14.459  -1.648  0.00  0.00     0.057 A 
ATOM     10  C   UNL d   1      26.794 -14.530  -0.201  0.00  0.00     0.173 C 
ATOM     11  N   UNL d   1      26.583 -15.618   0.435  0.00  0.00    -0.235 NA
ATOM     12  C   UNL d   1      26.441 -16.823  -0.384  0.00  0.00     0.243 C 
ATOM     13  N   UNL d   1      27.176 -16.814  -1.645  0.00  0.00    -0.357 N 
ATOM     14  C   UNL d   1      27.164 -12.839  -5.049  0.00  0.00     0.281 C 
ATOM     15  H   UNL d   1      27.163 -10.767  -5.335  0.00  0.00     0.279 HD
ATOM     16  H   UNL d   1      27.360 -17.721  -2.060  0.00  0.00     0.162 HD
ENDROOT
BRANCH  12  17
ATOM     17  C   UNL d   1      24.952 -17.101  -0.613  0.00  0.00    -0.014 A 
ATOM     18  C   UNL d   1      24.013 -16.077  -0.862  0.00  0.00     0.014 A 
ATOM     19  C   UNL d   1      22.633 -16.325  -0.895  0.00  0.00     0.038 A 
ATOM     20  C   UNL d   1      22.173 -17.631  -0.759  0.00  0.00     0.079 A 
ATOM     21  C   UNL d   1      23.097 -18.649  -0.519  0.00  0.00     0.038 A 
ATOM     22  C   UNL d   1      24.465 -18.395  -0.446  0.00  0.00     0.014 A 
BRANCH  20  23
ATOM     23  O   UNL d   1      20.777 -17.848  -0.914  0.00  0.00    -0.275 OA
BRANCH  23  24
ATOM     24  C   UNL d   1      20.262 -19.128  -1.051  0.00  0.00     0.298 C 
ATOM     25  O   UNL d   1      20.280 -19.855  -2.046  0.00  0.00    -0.259 OA
BRANCH  24  26
ATOM     26  C   UNL d   1      19.619 -19.641   0.164  0.00  0.00     0.039 A 
ATOM     27  C   UNL d   1      20.268 -19.400   1.385  0.00  0.00     0.017 A 
ATOM     28  C   UNL d   1      19.868 -20.075   2.534  0.00  0.00     0.001 A 
ATOM     29  C   UNL d   1      18.780 -20.943   2.478  0.00  0.00     0.000 A 
ATOM     30  C   UNL d   1      18.126 -21.177   1.265  0.00  0.00     0.001 A 
ATOM     31  C   UNL d   1      18.550 -20.535   0.097  0.00  0.00     0.017 A 
ENDBRANCH  24  26
ENDBRANCH  23  24
ENDBRANCH  20  23
ENDBRANCH  12  17
BRANCH  10  32
ATOM     32  O   UNL d   1      26.839 -13.386   0.512  0.00  0.00    -0.344 OA
ATOM     33  H   UNL d   1      27.679 -13.215   0.940  0.00  0.00     0.219 HD
ENDBRANCH  10  32
TORSDOF 5
ENDMDL
MODEL 2
REMARK VINA RESULT:   -10.409      2.649      3.945
REMARK INTER + INTRA:         -12.647
REMARK INTER:                 -11.900
REMARK INTRA:                  -0.747
REMARK CONF_INDEPENDENT:        1.492
REMARK UNBOUND:                -0.747
REMARK  5 active torsions:
REMARK  status: ('A' for Active; 'I' for Inactive)
REMARK    1  A    between atoms: C_10  and  O_11 
REMARK    2  A    between atoms: C_13  and  C_14 
REMARK    3  A    between atoms: C_17  and  O_18 
REMARK    4  A    between atoms: O_18  and  C_19 
REMARK    5  A    between atoms: C_19  and  C_21 
ROOT
ATOM      1  C   UNL d   1      30.553 -11.699   2.923  0.00  0.00     0.270 C 
ATOM      2  N   UNL d   1      29.307 -12.180   3.629  0.00  0.00    -0.070 N 
ATOM      3  C   UNL d   1      29.322 -13.678   3.908  0.00  0.00     0.239 C 
ATOM      4  C   UNL d   1      29.485 -14.450   2.600  0.00  0.00     0.068 C 
ATOM      5  C   UNL d   1      28.557 -13.945   1.540  0.00  0.00    -0.024 A 
ATOM      6  C   UNL d   1      27.891 -12.732   1.673  0.00  0.00     0.018 A 
ATOM      7  S   UNL d   1      26.897 -12.393   0.329  0.00  0.00    -0.074 SA
ATOM      8  C   UNL d   1      27.354 -13.844  -0.432  0.00  0.00     0.087 A 
ATOM      9  C   UNL d   1      28.269 -14.577   0.296  0.00  0.00     0.057 A 
ATOM     10  C   UNL d   1      28.710 -15.844  -0.274  0.00  0.00     0.173 C 
ATOM     11  N   UNL d   1      28.132 -16.418  -1.259  0.00  0.00    -0.235 NA
ATOM     12  C   UNL d   1      26.919 -15.767  -1.760  0.00  0.00     0.243 C 
ATOM     13  N   UNL d   1      26.873 -14.318  -1.594  0.00  0.00    -0.357 N 
ATOM     14  C   UNL d   1      28.039 -11.807   2.847  0.00  0.00     0.281 C 
ATOM     15  H   UNL d   1      29.265 -11.698   4.537  0.00  0.00     0.279 HD
ATOM     16  H   UNL d   1      26.229 -13.821  -2.201  0.00  0.00     0.162 HD
ENDROOT
BRANCH  12  17
ATOM     17  C   UNL d   1      25.695 -16.437  -1.129  0.00  0.00    -0.014 A 
ATOM     18  C   UNL d   1      25.795 -17.491  -0.195  0.00  0.00     0.014 A 
ATOM     19  C   UNL d   1      24.673 -18.209   0.240  0.00  0.00     0.038 A 
ATOM     20  C   UNL d   1      23.408 -17.824  -0.196  0.00  0.00     0.079 A 
ATOM     21  C   UNL d   1      23.301 -16.779  -1.114  0.00  0.00     0.038 A 
ATOM     22  C   UNL d   1      24.422 -16.092  -1.576  0.00  0.00     0.014 A 
BRANCH  20  23
ATOM     23  O   UNL d   1      22.293 -18.507   0.361  0.00  0.00    -0.275 OA
BRANCH  23  24
ATOM     24  C   UNL d   1      21.345 -19.112  -0.451  0.00  0.00     0.298 C 
ATOM     25  O   UNL d   1      21.377 -19.273  -1.672  0.00  0.00    -0.259 OA
BRANCH  24  26
ATOM     26  C   UNL d   1      20.169 -19.602   0.277  0.00  0.00     0.039 A 
ATOM     27  C   UNL d   1      20.280 -19.720   1.672  0.00  0.00     0.017 A 
ATOM     28  C   UNL d   1      19.317 -20.421   2.393  0.00  0.00     0.001 A 
ATOM     29  C   UNL d   1      18.213 -20.950   1.730  0.00  0.00     0.000 A 
ATOM     30  C   UNL d   1      18.095 -20.825   0.342  0.00  0.00     0.001 A 
ATOM     31  C   UNL d   1      19.081 -20.160  -0.393  0.00  0.00     0.017 A 
ENDBRANCH  24  26
ENDBRANCH  23  24
ENDBRANCH  20  23
ENDBRANCH  12  17
BRANCH  10  32
ATOM     32  O   UNL d   1      29.777 -16.463   0.272  0.00  0.00    -0.344 OA
ATOM     33  H   UNL d   1      29.614 -16.859   1.128  0.00  0.00     0.219 HD
ENDBRANCH  10  32
TORSDOF 5
ENDMDL
MODEL 3
REMARK VINA RESULT:    -9.891      1.279      1.696
REMARK INTER + INTRA:         -12.110
REMARK INTER:                 -11.382
REMARK INTRA:                  -0.727
REMARK CONF_INDEPENDENT:        1.492
REMARK UNBOUND:                -0.727
REMARK  5 active torsions:
REMARK  status: ('A' for Active; 'I' for Inactive)
REMARK    1  A    between atoms: C_10  and  O_11 
REMARK    2  A    between atoms: C_13  and  C_14 
REMARK    3  A    between atoms: C_17  and  O_18 
REMARK    4  A    between atoms: O_18  and  C_19 
REMARK    5  A    between atoms: C_19  and  C_21 
ROOT
ATOM      1  C   UNL d   1      27.316  -9.898  -5.153  0.00  0.00     0.270 C 
ATOM      2  N   UNL d   1      25.888 -10.283  -4.844  0.00  0.00    -0.070 N 
ATOM      3  C   UNL d   1      25.547 -10.165  -3.363  0.00  0.00     0.239 C 
ATOM      4  C   UNL d   1      26.491 -11.040  -2.540  0.00  0.00     0.068 C 
ATOM      5  C   UNL d   1      26.620 -12.413  -3.121  0.00  0.00    -0.024 A 
ATOM      6  C   UNL d   1      26.180 -12.704  -4.407  0.00  0.00     0.018 A 
ATOM      7  S   UNL d   1      26.442 -14.338  -4.823  0.00  0.00    -0.074 SA
ATOM      8  C   UNL d   1      27.143 -14.658  -3.307  0.00  0.00     0.087 A 
ATOM      9  C   UNL d   1      27.212 -13.546  -2.492  0.00  0.00     0.057 A 
ATOM     10  C   UNL d   1      27.789 -13.729  -1.165  0.00  0.00     0.173 C 
ATOM     11  N   UNL d   1      28.001 -14.873  -0.635  0.00  0.00    -0.235 NA
ATOM     12  C   UNL d   1      27.554 -16.032  -1.411  0.00  0.00     0.243 C 
ATOM     13  N   UNL d   1      27.559 -15.856  -2.859  0.00  0.00    -0.357 N 
ATOM     14  C   UNL d   1      25.568 -11.701  -5.342  0.00  0.00     0.281 C 
ATOM     15  H   UNL d   1      25.278  -9.630  -5.353  0.00  0.00     0.279 HD
ATOM     16  H   UNL d   1      27.574 -16.707  -3.412  0.00  0.00     0.162 HD
ENDROOT
BRANCH  12  17
ATOM     17  C   UNL d   1      26.174 -16.468  -0.910  0.00  0.00    -0.014 A 
ATOM     18  C   UNL d   1      25.993 -17.520   0.014  0.00  0.00     0.014 A 
ATOM     19  C   UNL d   1      24.723 -18.023   0.329  0.00  0.00     0.038 A 
ATOM     20  C   UNL d   1      23.596 -17.418  -0.219  0.00  0.00     0.079 A 
ATOM     21  C   UNL d   1      23.768 -16.372  -1.128  0.00  0.00     0.038 A 
ATOM     22  C   UNL d   1      25.033 -15.901  -1.471  0.00  0.00     0.014 A 
BRANCH  20  23
ATOM     23  O   UNL d   1      22.328 -17.887   0.218  0.00  0.00    -0.275 OA
BRANCH  23  24
ATOM     24  C   UNL d   1      21.595 -18.785  -0.542  0.00  0.00     0.298 C 
ATOM     25  O   UNL d   1      21.801 -19.150  -1.701  0.00  0.00    -0.259 OA
BRANCH  24  26
ATOM     26  C   UNL d   1      20.434 -19.345   0.159  0.00  0.00     0.039 A 
ATOM     27  C   UNL d   1      20.460 -19.325   1.563  0.00  0.00     0.017 A 
ATOM     28  C   UNL d   1      19.535 -20.068   2.289  0.00  0.00     0.001 A 
ATOM     29  C   UNL d   1      18.545 -20.781   1.617  0.00  0.00     0.000 A 
ATOM     30  C   UNL d   1      18.511 -20.794   0.219  0.00  0.00     0.001 A 
ATOM     31  C   UNL d   1      19.465 -20.084  -0.518  0.00  0.00     0.017 A 
ENDBRANCH  24  26
ENDBRANCH  23  24
ENDBRANCH  20  23
ENDBRANCH  12  17
BRANCH  10  32
ATOM     32  O   UNL d   1      28.104 -12.636  -0.441  0.00  0.00    -0.344 OA
ATOM     33  H   UNL d   1      28.491 -12.822   0.415  0.00  0.00     0.219 HD
ENDBRANCH  10  32
TORSDOF 5
ENDMDL
MODEL 4
REMARK VINA RESULT:    -9.649      3.028      4.383
REMARK INTER + INTRA:         -11.921
REMARK INTER:                 -11.141
REMARK INTRA:                  -0.780
REMARK CONF_INDEPENDENT:        1.492
REMARK UNBOUND:                -0.780
REMARK  5 active torsions:
REMARK  status: ('A' for Active; 'I' for Inactive)
REMARK    1  A    between atoms: C_10  and  O_11 
REMARK    2  A    between atoms: C_13  and  C_14 
REMARK    3  A    between atoms: C_17  and  O_18 
REMARK    4  A    between atoms: O_18  and  C_19 
REMARK    5  A    between atoms: C_19  and  C_21 
ROOT
ATOM      1  C   UNL d   1      32.211 -12.862   2.535  0.00  0.00     0.270 C 
ATOM      2  N   UNL d   1      31.347 -13.923   3.176  0.00  0.00    -0.070 N 
ATOM      3  C   UNL d   1      31.405 -15.259   2.444  0.00  0.00     0.239 C 
ATOM      4  C   UNL d   1      30.977 -15.075   0.989  0.00  0.00     0.068 C 
ATOM      5  C   UNL d   1      29.719 -14.272   0.880  0.00  0.00    -0.024 A 
ATOM      6  C   UNL d   1      29.224 -13.543   1.955  0.00  0.00     0.018 A 
ATOM      7  S   UNL d   1      27.781 -12.721   1.566  0.00  0.00    -0.074 SA
ATOM      8  C   UNL d   1      27.815 -13.322  -0.025  0.00  0.00     0.087 A 
ATOM      9  C   UNL d   1      28.913 -14.115  -0.285  0.00  0.00     0.057 A 
ATOM     10  C   UNL d   1      29.019 -14.685  -1.623  0.00  0.00     0.173 C 
ATOM     11  N   UNL d   1      28.059 -14.697  -2.468  0.00  0.00    -0.235 NA
ATOM     12  C   UNL d   1      26.780 -14.165  -1.993  0.00  0.00     0.243 C 
ATOM     13  N   UNL d   1      26.875 -13.131  -0.967  0.00  0.00    -0.357 N 
ATOM     14  C   UNL d   1      29.887 -13.459   3.300  0.00  0.00     0.281 C 
ATOM     15  H   UNL d   1      31.706 -14.077   4.127  0.00  0.00     0.279 HD
ATOM     16  H   UNL d   1      26.062 -12.532  -0.862  0.00  0.00     0.162 HD
ENDROOT
BRANCH  12  17
ATOM     17  C   UNL d   1      25.896 -15.326  -1.529  0.00  0.00    -0.014 A 
ATOM     18  C   UNL d   1      24.583 -15.525  -2.009  0.00  0.00     0.014 A 
ATOM     19  C   UNL d   1      23.725 -16.484  -1.451  0.00  0.00     0.038 A 
ATOM     20  C   UNL d   1      24.202 -17.322  -0.447  0.00  0.00     0.079 A 
ATOM     21  C   UNL d   1      25.501 -17.134   0.027  0.00  0.00     0.038 A 
ATOM     22  C   UNL d   1      26.339 -16.154  -0.502  0.00  0.00     0.014 A 
BRANCH  20  23
ATOM     23  O   UNL d   1      23.334 -18.351   0.007  0.00  0.00    -0.275 OA
BRANCH  23  24
ATOM     24  C   UNL d   1      22.440 -18.968  -0.856  0.00  0.00     0.298 C 
ATOM     25  O   UNL d   1      22.626 -19.325  -2.020  0.00  0.00    -0.259 OA
BRANCH  24  26
ATOM     26  C   UNL d   1      21.116 -19.201  -0.268  0.00  0.00     0.039 A 
ATOM     27  C   UNL d   1      21.030 -19.225   1.133  0.00  0.00     0.017 A 
ATOM     28  C   UNL d   1      19.879 -19.701   1.754  0.00  0.00     0.001 A 
ATOM     29  C   UNL d   1      18.791 -20.092   0.978  0.00  0.00     0.000 A 
ATOM     30  C   UNL d   1      18.871 -20.059  -0.418  0.00  0.00     0.001 A 
ATOM     31  C   UNL d   1      20.040 -19.624  -1.049  0.00  0.00     0.017 A 
ENDBRANCH  24  26
ENDBRANCH  23  24
ENDBRANCH  20  23
ENDBRANCH  12  17
BRANCH  10  32
ATOM     32  O   UNL d   1      30.186 -15.251  -1.995  0.00  0.00    -0.344 OA
ATOM     33  H   UNL d   1      30.096 -16.015  -2.564  0.00  0.00     0.219 HD
ENDBRANCH  10  32
TORSDOF 5
ENDMDL
MODEL 5
REMARK VINA RESULT:    -9.276      2.462      3.670
REMARK INTER + INTRA:         -11.599
REMARK INTER:                 -10.767
REMARK INTRA:                  -0.832
REMARK CONF_INDEPENDENT:        1.492
REMARK UNBOUND:                -0.832
REMARK  5 active torsions:
REMARK  status: ('A' for Active; 'I' for Inactive)
REMARK    1  A    between atoms: C_10  and  O_11 
REMARK    2  A    between atoms: C_13  and  C_14 
REMARK    3  A    between atoms: C_17  and  O_18 
REMARK    4  A    between atoms: O_18  and  C_19 
REMARK    5  A    between atoms: C_19  and  C_21 
ROOT
ATOM      1  C   UNL d   1      32.142 -16.017  -2.911  0.00  0.00     0.270 C 
ATOM      2  N   UNL d   1      31.551 -17.281  -2.332  0.00  0.00    -0.070 N 
ATOM      3  C   UNL d   1      30.632 -18.009  -3.306  0.00  0.00     0.239 C 
ATOM      4  C   UNL d   1      29.499 -17.082  -3.744  0.00  0.00     0.068 C 
ATOM      5  C   UNL d   1      28.872 -16.385  -2.578  0.00  0.00    -0.024 A 
ATOM      6  C   UNL d   1      29.479 -16.367  -1.327  0.00  0.00     0.018 A 
ATOM      7  S   UNL d   1      28.557 -15.510  -0.177  0.00  0.00    -0.074 SA
ATOM      8  C   UNL d   1      27.361 -15.156  -1.333  0.00  0.00     0.087 A 
ATOM      9  C   UNL d   1      27.652 -15.649  -2.588  0.00  0.00     0.057 A 
ATOM     10  C   UNL d   1      26.674 -15.404  -3.642  0.00  0.00     0.173 C 
ATOM     11  N   UNL d   1      25.486 -14.987  -3.424  0.00  0.00    -0.235 NA
ATOM     12  C   UNL d   1      25.107 -14.834  -2.018  0.00  0.00     0.243 C 
ATOM     13  N   UNL d   1      26.200 -14.515  -1.106  0.00  0.00    -0.357 N 
ATOM     14  C   UNL d   1      30.804 -17.002  -1.019  0.00  0.00     0.281 C 
ATOM     15  H   UNL d   1      32.333 -17.914  -2.116  0.00  0.00     0.279 HD
ATOM     16  H   UNL d   1      25.935 -14.093  -0.222  0.00  0.00     0.162 HD
ENDROOT
BRANCH  12  17
ATOM     17  C   UNL d   1      24.354 -16.088  -1.563  0.00  0.00    -0.014 A 
ATOM     18  C   UNL d   1      24.728 -17.391  -1.960  0.00  0.00     0.014 A 
ATOM     19  C   UNL d   1      23.931 -18.510  -1.682  0.00  0.00     0.038 A 
ATOM     20  C   UNL d   1      22.776 -18.351  -0.922  0.00  0.00     0.079 A 
ATOM     21  C   UNL d   1      22.404 -17.067  -0.520  0.00  0.00     0.038 A 
ATOM     22  C   UNL d   1      23.177 -15.950  -0.832  0.00  0.00     0.014 A 
BRANCH  20  23
ATOM     23  O   UNL d   1      22.063 -19.529  -0.568  0.00  0.00    -0.275 OA
BRANCH  23  24
ATOM     24  C   UNL d   1      20.737 -19.701  -0.935  0.00  0.00     0.298 C 
ATOM     25  O   UNL d   1      20.245 -19.656  -2.063  0.00  0.00    -0.259 OA
BRANCH  24  26
ATOM     26  C   UNL d   1      19.840 -19.963   0.197  0.00  0.00     0.039 A 
ATOM     27  C   UNL d   1      20.299 -19.611   1.476  0.00  0.00     0.017 A 
ATOM     28  C   UNL d   1      19.630 -20.066   2.608  0.00  0.00     0.001 A 
ATOM     29  C   UNL d   1      18.469 -20.821   2.464  0.00  0.00     0.000 A 
ATOM     30  C   UNL d   1      18.004 -21.164   1.190  0.00  0.00     0.001 A 
ATOM     31  C   UNL d   1      18.696 -20.746   0.049  0.00  0.00     0.017 A 
ENDBRANCH  24  26
ENDBRANCH  23  24
ENDBRANCH  20  23
ENDBRANCH  12  17
BRANCH  10  32
ATOM     32  O   UNL d   1      27.028 -15.643  -4.921  0.00  0.00    -0.344 OA
ATOM     33  H   UNL d   1      26.573 -15.106  -5.569  0.00  0.00     0.219 HD
ENDBRANCH  10  32
TORSDOF 5
ENDMDL
MODEL 6
REMARK VINA RESULT:    -8.005      3.527      5.021
REMARK INTER + INTRA:         -10.215
REMARK INTER:                  -9.496
REMARK INTRA:                  -0.719
REMARK CONF_INDEPENDENT:        1.492
REMARK UNBOUND:                -0.719
REMARK  5 active torsions:
REMARK  status: ('A' for Active; 'I' for Inactive)
REMARK    1  A    between atoms: C_10  and  O_11 
REMARK    2  A    between atoms: C_13  and  C_14 
REMARK    3  A    between atoms: C_17  and  O_18 
REMARK    4  A    between atoms: O_18  and  C_19 
REMARK    5  A    between atoms: C_19  and  C_21 
ROOT
ATOM      1  C   UNL d   1      33.530 -14.027   2.231  0.00  0.00     0.270 C 
ATOM      2  N   UNL d   1      32.396 -14.740   2.930  0.00  0.00    -0.070 N 
ATOM      3  C   UNL d   1      32.206 -16.173   2.446  0.00  0.00     0.239 C 
ATOM      4  C   UNL d   1      31.952 -16.184   0.939  0.00  0.00     0.068 C 
ATOM      5  C   UNL d   1      30.925 -15.170   0.544  0.00  0.00    -0.024 A 
ATOM      6  C   UNL d   1      30.524 -14.161   1.413  0.00  0.00     0.018 A 
ATOM      7  S   UNL d   1      29.345 -13.143   0.720  0.00  0.00    -0.074 SA
ATOM      8  C   UNL d   1      29.370 -14.030  -0.732  0.00  0.00     0.087 A 
ATOM      9  C   UNL d   1      30.274 -15.071  -0.720  0.00  0.00     0.057 A 
ATOM     10  C   UNL d   1      30.356 -15.896  -1.920  0.00  0.00     0.173 C 
ATOM     11  N   UNL d   1      29.491 -15.865  -2.861  0.00  0.00    -0.235 NA
ATOM     12  C   UNL d   1      28.334 -14.995  -2.642  0.00  0.00     0.243 C 
ATOM     13  N   UNL d   1      28.578 -13.828  -1.801  0.00  0.00    -0.357 N 
ATOM     14  C   UNL d   1      31.077 -13.964   2.796  0.00  0.00     0.281 C 
ATOM     15  H   UNL d   1      32.632 -14.783   3.931  0.00  0.00     0.279 HD
ATOM     16  H   UNL d   1      27.919 -13.063  -1.897  0.00  0.00     0.162 HD
ENDROOT
BRANCH  12  17
ATOM     17  C   UNL d   1      27.172 -15.834  -2.102  0.00  0.00    -0.014 A 
ATOM     18  C   UNL d   1      25.942 -15.966  -2.784  0.00  0.00     0.014 A 
ATOM     19  C   UNL d   1      24.831 -16.589  -2.199  0.00  0.00     0.038 A 
ATOM     20  C   UNL d   1      24.959 -17.169  -0.941  0.00  0.00     0.079 A 
ATOM     21  C   UNL d   1      26.174 -17.047  -0.264  0.00  0.00     0.038 A 
ATOM     22  C   UNL d   1      27.266 -16.392  -0.830  0.00  0.00     0.014 A 
BRANCH  20  23
ATOM     23  O   UNL d   1      23.841 -17.887  -0.439  0.00  0.00    -0.275 OA
BRANCH  23  24
ATOM     24  C   UNL d   1      22.547 -17.427  -0.632  0.00  0.00     0.298 C 
ATOM     25  O   UNL d   1      22.172 -16.272  -0.839  0.00  0.00    -0.259 OA
BRANCH  24  26
ATOM     26  C   UNL d   1      21.529 -18.481  -0.571  0.00  0.00     0.039 A 
ATOM     27  C   UNL d   1      20.279 -18.201  -1.146  0.00  0.00     0.017 A 
ATOM     28  C   UNL d   1      19.192 -19.034  -0.895  0.00  0.00     0.001 A 
ATOM     29  C   UNL d   1      19.368 -20.179  -0.123  0.00  0.00     0.000 A 
ATOM     30  C   UNL d   1      20.615 -20.465   0.442  0.00  0.00     0.001 A 
ATOM     31  C   UNL d   1      21.700 -19.609   0.230  0.00  0.00     0.017 A 
ENDBRANCH  24  26
ENDBRANCH  23  24
ENDBRANCH  20  23
ENDBRANCH  12  17
BRANCH  10  32
ATOM     32  O   UNL d   1      31.388 -16.754  -2.046  0.00  0.00    -0.344 OA
ATOM     33  H   UNL d   1      31.219 -17.635  -1.710  0.00  0.00     0.219 HD
ENDBRANCH  10  32
TORSDOF 5
ENDMDL
MODEL 7
REMARK VINA RESULT:    -7.756      3.570      8.365
REMARK INTER + INTRA:         -10.173
REMARK INTER:                  -9.247
REMARK INTRA:                  -0.926
REMARK CONF_INDEPENDENT:        1.492
REMARK UNBOUND:                -0.926
REMARK  5 active torsions:
REMARK  status: ('A' for Active; 'I' for Inactive)
REMARK    1  A    between atoms: C_10  and  O_11 
REMARK    2  A    between atoms: C_13  and  C_14 
REMARK    3  A    between atoms: C_17  and  O_18 
REMARK    4  A    between atoms: O_18  and  C_19 
REMARK    5  A    between atoms: C_19  and  C_21 
ROOT
ATOM      1  C   UNL d   1      22.930 -19.324  -1.316  0.00  0.00     0.270 C 
ATOM      2  N   UNL d   1      23.068 -18.539  -0.032  0.00  0.00    -0.070 N 
ATOM      3  C   UNL d   1      22.530 -17.117  -0.145  0.00  0.00     0.239 C 
ATOM      4  C   UNL d   1      23.252 -16.374  -1.268  0.00  0.00     0.068 C 
ATOM      5  C   UNL d   1      24.735 -16.556  -1.187  0.00  0.00    -0.024 A 
ATOM      6  C   UNL d   1      25.306 -17.536  -0.382  0.00  0.00     0.018 A 
ATOM      7  S   UNL d   1      27.009 -17.530  -0.469  0.00  0.00    -0.074 SA
ATOM      8  C   UNL d   1      26.992 -16.239  -1.578  0.00  0.00     0.087 A 
ATOM      9  C   UNL d   1      25.720 -15.823  -1.910  0.00  0.00     0.057 A 
ATOM     10  C   UNL d   1      25.607 -14.711  -2.847  0.00  0.00     0.173 C 
ATOM     11  N   UNL d   1      26.588 -13.960  -3.178  0.00  0.00    -0.235 NA
ATOM     12  C   UNL d   1      27.856 -14.223  -2.494  0.00  0.00     0.243 C 
ATOM     13  N   UNL d   1      28.068 -15.605  -2.077  0.00  0.00    -0.357 N 
ATOM     14  C   UNL d   1      24.524 -18.509   0.454  0.00  0.00     0.281 C 
ATOM     15  H   UNL d   1      22.510 -19.022   0.684  0.00  0.00     0.279 HD
ATOM     16  H   UNL d   1      29.030 -15.877  -1.909  0.00  0.00     0.162 HD
ENDROOT
BRANCH  12  17
ATOM     17  C   UNL d   1      27.998 -13.259  -1.312  0.00  0.00    -0.014 A 
ATOM     18  C   UNL d   1      29.235 -12.701  -0.925  0.00  0.00     0.014 A 
ATOM     19  C   UNL d   1      29.380 -11.963   0.259  0.00  0.00     0.038 A 
ATOM     20  C   UNL d   1      28.258 -11.701   1.039  0.00  0.00     0.079 A 
ATOM     21  C   UNL d   1      27.030 -12.245   0.658  0.00  0.00     0.038 A 
ATOM     22  C   UNL d   1      26.896 -13.011  -0.498  0.00  0.00     0.014 A 
BRANCH  20  23
ATOM     23  O   UNL d   1      28.433 -10.853   2.166  0.00  0.00    -0.275 OA
BRANCH  23  24
ATOM     24  C   UNL d   1      27.630 -10.980   3.290  0.00  0.00     0.298 C 
ATOM     25  O   UNL d   1      26.657 -10.297   3.613  0.00  0.00    -0.259 OA
BRANCH  24  26
ATOM     26  C   UNL d   1      28.029 -12.075   4.181  0.00  0.00     0.039 A 
ATOM     27  C   UNL d   1      28.046 -13.371   3.639  0.00  0.00     0.017 A 
ATOM     28  C   UNL d   1      28.150 -14.477   4.477  0.00  0.00     0.001 A 
ATOM     29  C   UNL d   1      28.300 -14.289   5.849  0.00  0.00     0.000 A 
ATOM     30  C   UNL d   1      28.293 -12.999   6.389  0.00  0.00     0.001 A 
ATOM     31  C   UNL d   1      28.145 -11.885   5.558  0.00  0.00     0.017 A 
ENDBRANCH  24  26
ENDBRANCH  23  24
ENDBRANCH  20  23
ENDBRANCH  12  17
BRANCH  10  32
ATOM     32  O   UNL d   1      24.402 -14.439  -3.387  0.00  0.00    -0.344 OA
ATOM     33  H   UNL d   1      24.377 -13.653  -3.934  0.00  0.00     0.219 HD
ENDBRANCH  10  32
TORSDOF 5
ENDMDL
