MODEL 1
REMARK VINA RESULT:   -10.069      0.000      0.000
REMARK INTER + INTRA:         -14.760
REMARK INTER:                 -12.157
REMARK INTRA:                  -2.603
REMARK CONF_INDEPENDENT:        2.088
REMARK UNBOUND:                -2.603
REMARK  7 active torsions:
REMARK  status: ('A' for Active; 'I' for Inactive)
REMARK    1  A    between atoms: O_1  and  C_2 
REMARK    2  A    between atoms: C_3  and  C_2 
REMARK    3  A    between atoms: C_3  and  O_4 
REMARK    4  A    between atoms: N_8  and  C_9 
REMARK    5  A    between atoms: N_13  and  C_14 
REMARK    6  A    between atoms: C_17  and  O_18 
REMARK    7  A    between atoms: O_18  and  C_19 
ROOT
ATOM      1  C   UNL d   1      26.889 -16.797  -0.838  0.00  0.00     0.737 A 
ATOM      2  N   UNL d   1      28.095 -17.287  -0.592  0.00  0.00     0.030 NA
ATOM      3  N   UNL d   1      27.924 -18.376   0.229  0.00  0.00     0.033 NA
ATOM      4  N   UNL d   1      26.643 -18.584   0.499  0.00  0.00     0.016 NA
ATOM      5  N   UNL d   1      25.975 -17.658  -0.220  0.00  0.00    -0.070 N 
ENDROOT
BRANCH   5   6
ATOM      6  C   UNL d   1      24.583 -17.762  -0.407  0.00  0.00     0.072 A 
ATOM      7  C   UNL d   1      24.003 -19.008  -0.667  0.00  0.00     0.034 A 
ATOM      8  C   UNL d   1      22.620 -19.087  -0.860  0.00  0.00     0.039 A 
ATOM      9  C   UNL d   1      21.823 -17.936  -0.779  0.00  0.00     0.076 A 
ATOM     10  C   UNL d   1      22.430 -16.697  -0.546  0.00  0.00     0.039 A 
ATOM     11  C   UNL d   1      23.805 -16.606  -0.365  0.00  0.00     0.034 A 
BRANCH   9  12
ATOM     12  O   UNL d   1      20.462 -18.138  -0.896  0.00  0.00    -0.311 OA
BRANCH  12  13
ATOM     13  C   UNL d   1      19.866 -19.125  -0.144  0.00  0.00     0.076 A 
ATOM     14  C   UNL d   1      18.822 -19.854  -0.714  0.00  0.00     0.037 A 
ATOM     15  C   UNL d   1      18.145 -20.808   0.048  0.00  0.00     0.003 A 
ATOM     16  C   UNL d   1      18.547 -21.069   1.359  0.00  0.00     0.000 A 
ATOM     17  C   UNL d   1      19.593 -20.342   1.926  0.00  0.00     0.003 A 
ATOM     18  C   UNL d   1      20.226 -19.343   1.188  0.00  0.00     0.037 A 
ENDBRANCH  12  13
ENDBRANCH   9  12
ENDBRANCH   5   6
BRANCH   1  19
ATOM     19  N   UNL d   1      26.552 -15.632  -1.477  0.00  0.00    -0.213 N 
ATOM     20  C   UNL d   1      26.486 -14.375  -0.736  0.00  0.00     0.141 C 
ATOM     21  C   UNL d   1      27.117 -13.200  -1.515  0.00  0.00     0.023 C 
ATOM     22  C   UNL d   1      26.138 -12.491  -2.468  0.00  0.00     0.042 C 
ATOM     23  C   UNL d   1      25.813 -13.271  -3.762  0.00  0.00     0.080 C 
ATOM     24  C   UNL d   1      25.254 -14.664  -3.391  0.00  0.00     0.060 C 
ATOM     25  C   UNL d   1      26.330 -15.653  -2.919  0.00  0.00     0.144 C 
BRANCH  23  26
ATOM     26  O   UNL d   1      24.780 -12.576  -4.482  0.00  0.00    -0.388 OA
ATOM     27  H   UNL d   1      25.161 -11.850  -5.001  0.00  0.00     0.210 HD
ENDBRANCH  23  26
BRANCH  23  28
ATOM     28  C   UNL d   1      27.060 -13.425  -4.693  0.00  0.00     0.201 C 
BRANCH  28  29
ATOM     29  O   UNL d   1      27.019 -12.672  -5.896  0.00  0.00    -0.398 OA
ATOM     30  H   UNL d   1      26.075 -12.513  -6.076  0.00  0.00     0.209 HD
ENDBRANCH  28  29
ENDBRANCH  23  28
ENDBRANCH   1  19
TORSDOF 7
ENDMDL
MODEL 2
REMARK VINA RESULT:    -8.637      3.060      4.266
REMARK INTER + INTRA:         -12.583
REMARK INTER:                 -10.725
REMARK INTRA:                  -1.858
REMARK CONF_INDEPENDENT:        2.088
REMARK UNBOUND:                -1.858
REMARK  7 active torsions:
REMARK  status: ('A' for Active; 'I' for Inactive)
REMARK    1  A    between atoms: O_1  and  C_2 
REMARK    2  A    between atoms: C_3  and  C_2 
REMARK    3  A    between atoms: C_3  and  O_4 
REMARK    4  A    between atoms: N_8  and  C_9 
REMARK    5  A    between atoms: N_13  and  C_14 
REMARK    6  A    between atoms: C_17  and  O_18 
REMARK    7  A    between atoms: O_18  and  C_19 
ROOT
ATOM      1  C   UNL d   1      26.493 -14.462  -2.688  0.00  0.00     0.737 A 
ATOM      2  N   UNL d   1      26.597 -13.822  -3.844  0.00  0.00     0.030 NA
ATOM      3  N   UNL d   1      25.806 -14.495  -4.745  0.00  0.00     0.033 NA
ATOM      4  N   UNL d   1      25.206 -15.535  -4.182  0.00  0.00     0.016 NA
ATOM      5  N   UNL d   1      25.560 -15.487  -2.881  0.00  0.00    -0.070 N 
ENDROOT
BRANCH   5   6
ATOM      6  C   UNL d   1      24.880 -16.263  -1.923  0.00  0.00     0.072 A 
ATOM      7  C   UNL d   1      23.584 -15.912  -1.530  0.00  0.00     0.034 A 
ATOM      8  C   UNL d   1      22.930 -16.691  -0.569  0.00  0.00     0.039 A 
ATOM      9  C   UNL d   1      23.558 -17.817  -0.019  0.00  0.00     0.076 A 
ATOM     10  C   UNL d   1      24.865 -18.132  -0.407  0.00  0.00     0.039 A 
ATOM     11  C   UNL d   1      25.529 -17.357  -1.352  0.00  0.00     0.034 A 
BRANCH   9  12
ATOM     12  O   UNL d   1      22.792 -18.567   0.852  0.00  0.00    -0.311 OA
BRANCH  12  13
ATOM     13  C   UNL d   1      21.542 -18.983   0.454  0.00  0.00     0.076 A 
ATOM     14  C   UNL d   1      20.615 -19.330   1.438  0.00  0.00     0.037 A 
ATOM     15  C   UNL d   1      19.365 -19.830   1.066  0.00  0.00     0.003 A 
ATOM     16  C   UNL d   1      19.024 -19.929  -0.284  0.00  0.00     0.000 A 
ATOM     17  C   UNL d   1      19.951 -19.577  -1.265  0.00  0.00     0.003 A 
ATOM     18  C   UNL d   1      21.223 -19.141  -0.897  0.00  0.00     0.037 A 
ENDBRANCH  12  13
ENDBRANCH   9  12
ENDBRANCH   5   6
BRANCH   1  19
ATOM     19  N   UNL d   1      27.208 -14.266  -1.534  0.00  0.00    -0.213 N 
ATOM     20  C   UNL d   1      28.622 -13.907  -1.592  0.00  0.00     0.141 C 
ATOM     21  C   UNL d   1      28.991 -12.805  -0.575  0.00  0.00     0.023 C 
ATOM     22  C   UNL d   1      29.362 -13.347   0.818  0.00  0.00     0.042 C 
ATOM     23  C   UNL d   1      28.164 -13.832   1.665  0.00  0.00     0.080 C 
ATOM     24  C   UNL d   1      27.389 -14.915   0.881  0.00  0.00     0.060 C 
ATOM     25  C   UNL d   1      26.518 -14.350  -0.251  0.00  0.00     0.144 C 
BRANCH  23  26
ATOM     26  O   UNL d   1      28.658 -14.449   2.867  0.00  0.00    -0.388 OA
ATOM     27  H   UNL d   1      28.856 -15.385   2.709  0.00  0.00     0.210 HD
ENDBRANCH  23  26
BRANCH  23  28
ATOM     28  C   UNL d   1      27.202 -12.664   2.059  0.00  0.00     0.201 C 
BRANCH  28  29
ATOM     29  O   UNL d   1      27.489 -12.027   3.295  0.00  0.00    -0.398 OA
ATOM     30  H   UNL d   1      28.247 -12.510   3.670  0.00  0.00     0.209 HD
ENDBRANCH  28  29
ENDBRANCH  23  28
ENDBRANCH   1  19
TORSDOF 7
ENDMDL
MODEL 3
REMARK VINA RESULT:    -8.435      3.447      5.144
REMARK INTER + INTRA:         -13.068
REMARK INTER:                 -10.523
REMARK INTRA:                  -2.546
REMARK CONF_INDEPENDENT:        2.088
REMARK UNBOUND:                -2.546
REMARK  7 active torsions:
REMARK  status: ('A' for Active; 'I' for Inactive)
REMARK    1  A    between atoms: O_1  and  C_2 
REMARK    2  A    between atoms: C_3  and  C_2 
REMARK    3  A    between atoms: C_3  and  O_4 
REMARK    4  A    between atoms: N_8  and  C_9 
REMARK    5  A    between atoms: N_13  and  C_14 
REMARK    6  A    between atoms: C_17  and  O_18 
REMARK    7  A    between atoms: O_18  and  C_19 
ROOT
ATOM      1  C   UNL d   1      27.592 -13.267  -5.569  0.00  0.00     0.737 A 
ATOM      2  N   UNL d   1      28.054 -13.477  -6.793  0.00  0.00     0.030 NA
ATOM      3  N   UNL d   1      28.296 -14.826  -6.901  0.00  0.00     0.033 NA
ATOM      4  N   UNL d   1      27.990 -15.466  -5.781  0.00  0.00     0.016 NA
ATOM      5  N   UNL d   1      27.477 -14.523  -4.964  0.00  0.00    -0.070 N 
ENDROOT
BRANCH   5   6
ATOM      6  C   UNL d   1      26.778 -14.888  -3.797  0.00  0.00     0.072 A 
ATOM      7  C   UNL d   1      25.427 -14.557  -3.657  0.00  0.00     0.034 A 
ATOM      8  C   UNL d   1      24.755 -14.921  -2.486  0.00  0.00     0.039 A 
ATOM      9  C   UNL d   1      25.421 -15.622  -1.471  0.00  0.00     0.076 A 
ATOM     10  C   UNL d   1      26.780 -15.917  -1.622  0.00  0.00     0.039 A 
ATOM     11  C   UNL d   1      27.461 -15.550  -2.777  0.00  0.00     0.034 A 
BRANCH   9  12
ATOM     12  O   UNL d   1      24.644 -16.011  -0.398  0.00  0.00    -0.311 OA
BRANCH  12  13
ATOM     13  C   UNL d   1      23.771 -17.064  -0.552  0.00  0.00     0.076 A 
ATOM     14  C   UNL d   1      22.430 -16.781  -0.811  0.00  0.00     0.037 A 
ATOM     15  C   UNL d   1      21.505 -17.824  -0.895  0.00  0.00     0.003 A 
ATOM     16  C   UNL d   1      21.931 -19.148  -0.775  0.00  0.00     0.000 A 
ATOM     17  C   UNL d   1      23.273 -19.428  -0.520  0.00  0.00     0.003 A 
ATOM     18  C   UNL d   1      24.186 -18.385  -0.370  0.00  0.00     0.037 A 
ENDBRANCH  12  13
ENDBRANCH   9  12
ENDBRANCH   5   6
BRANCH   1  19
ATOM     19  N   UNL d   1      27.353 -12.073  -4.937  0.00  0.00    -0.213 N 
ATOM     20  C   UNL d   1      28.464 -11.264  -4.442  0.00  0.00     0.141 C 
ATOM     21  C   UNL d   1      28.272  -9.760  -4.738  0.00  0.00     0.023 C 
ATOM     22  C   UNL d   1      27.470  -9.013  -3.656  0.00  0.00     0.042 C 
ATOM     23  C   UNL d   1      25.949  -9.287  -3.672  0.00  0.00     0.080 C 
ATOM     24  C   UNL d   1      25.701 -10.806  -3.539  0.00  0.00     0.060 C 
ATOM     25  C   UNL d   1      25.981 -11.590  -4.831  0.00  0.00     0.144 C 
BRANCH  23  26
ATOM     26  O   UNL d   1      25.346  -8.656  -2.528  0.00  0.00    -0.388 OA
ATOM     27  H   UNL d   1      24.405  -8.490  -2.692  0.00  0.00     0.210 HD
ENDBRANCH  23  26
BRANCH  23  28
ATOM     28  C   UNL d   1      25.261  -8.742  -4.967  0.00  0.00     0.201 C 
BRANCH  28  29
ATOM     29  O   UNL d   1      24.045  -8.038  -4.762  0.00  0.00    -0.398 OA
ATOM     30  H   UNL d   1      23.794  -8.210  -3.836  0.00  0.00     0.209 HD
ENDBRANCH  28  29
ENDBRANCH  23  28
ENDBRANCH   1  19
TORSDOF 7
ENDMDL
MODEL 4
REMARK VINA RESULT:    -8.396      4.768      8.622
REMARK INTER + INTRA:         -13.030
REMARK INTER:                 -10.484
REMARK INTRA:                  -2.546
REMARK CONF_INDEPENDENT:        2.088
REMARK UNBOUND:                -2.546
REMARK  7 active torsions:
REMARK  status: ('A' for Active; 'I' for Inactive)
REMARK    1  A    between atoms: O_1  and  C_2 
REMARK    2  A    between atoms: C_3  and  C_2 
REMARK    3  A    between atoms: C_3  and  O_4 
REMARK    4  A    between atoms: N_8  and  C_9 
REMARK    5  A    between atoms: N_13  and  C_14 
REMARK    6  A    between atoms: C_17  and  O_18 
REMARK    7  A    between atoms: O_18  and  C_19 
ROOT
ATOM      1  C   UNL d   1      25.167 -14.869  -2.631  0.00  0.00     0.737 A 
ATOM      2  N   UNL d   1      23.883 -14.575  -2.771  0.00  0.00     0.030 NA
ATOM      3  N   UNL d   1      23.724 -14.075  -4.042  0.00  0.00     0.033 NA
ATOM      4  N   UNL d   1      24.873 -14.055  -4.703  0.00  0.00     0.016 NA
ATOM      5  N   UNL d   1      25.771 -14.618  -3.869  0.00  0.00    -0.070 N 
ENDROOT
BRANCH   5   6
ATOM      6  C   UNL d   1      27.033 -15.027  -4.342  0.00  0.00     0.072 A 
ATOM      7  C   UNL d   1      27.949 -15.622  -3.469  0.00  0.00     0.034 A 
ATOM      8  C   UNL d   1      29.200 -16.012  -3.958  0.00  0.00     0.039 A 
ATOM      9  C   UNL d   1      29.526 -15.825  -5.308  0.00  0.00     0.076 A 
ATOM     10  C   UNL d   1      28.604 -15.202  -6.156  0.00  0.00     0.039 A 
ATOM     11  C   UNL d   1      27.362 -14.799  -5.677  0.00  0.00     0.034 A 
BRANCH   9  12
ATOM     12  O   UNL d   1      30.750 -16.326  -5.706  0.00  0.00    -0.311 OA
BRANCH  12  13
ATOM     13  C   UNL d   1      30.806 -17.580  -6.270  0.00  0.00     0.076 A 
ATOM     14  C   UNL d   1      31.175 -17.688  -7.612  0.00  0.00     0.037 A 
ATOM     15  C   UNL d   1      31.167 -18.938  -8.235  0.00  0.00     0.003 A 
ATOM     16  C   UNL d   1      30.843 -20.082  -7.503  0.00  0.00     0.000 A 
ATOM     17  C   UNL d   1      30.479 -19.972  -6.162  0.00  0.00     0.003 A 
ATOM     18  C   UNL d   1      30.422 -18.718  -5.556  0.00  0.00     0.037 A 
ENDBRANCH  12  13
ENDBRANCH   9  12
ENDBRANCH   5   6
BRANCH   1  19
ATOM     19  N   UNL d   1      25.840 -15.249  -1.498  0.00  0.00    -0.213 N 
ATOM     20  C   UNL d   1      25.684 -16.600  -0.965  0.00  0.00     0.141 C 
ATOM     21  C   UNL d   1      27.027 -17.209  -0.507  0.00  0.00     0.023 C 
ATOM     22  C   UNL d   1      27.402 -16.862   0.945  0.00  0.00     0.042 C 
ATOM     23  C   UNL d   1      27.900 -15.415   1.159  0.00  0.00     0.080 C 
ATOM     24  C   UNL d   1      26.826 -14.426   0.655  0.00  0.00     0.060 C 
ATOM     25  C   UNL d   1      26.766 -14.310  -0.876  0.00  0.00     0.144 C 
BRANCH  23  26
ATOM     26  O   UNL d   1      28.067 -15.179   2.568  0.00  0.00    -0.388 OA
ATOM     27  H   UNL d   1      28.903 -15.561   2.877  0.00  0.00     0.210 HD
ENDBRANCH  23  26
BRANCH  23  28
ATOM     28  C   UNL d   1      29.261 -15.143   0.439  0.00  0.00     0.201 C 
BRANCH  28  29
ATOM     29  O   UNL d   1      30.412 -15.195   1.269  0.00  0.00    -0.398 OA
ATOM     30  H   UNL d   1      30.129 -15.646   2.084  0.00  0.00     0.209 HD
ENDBRANCH  28  29
ENDBRANCH  23  28
ENDBRANCH   1  19
TORSDOF 7
ENDMDL
MODEL 5
REMARK VINA RESULT:    -7.404      2.862      4.520
REMARK INTER + INTRA:         -12.223
REMARK INTER:                  -9.492
REMARK INTRA:                  -2.731
REMARK CONF_INDEPENDENT:        2.088
REMARK UNBOUND:                -2.731
REMARK  7 active torsions:
REMARK  status: ('A' for Active; 'I' for Inactive)
REMARK    1  A    between atoms: O_1  and  C_2 
REMARK    2  A    between atoms: C_3  and  C_2 
REMARK    3  A    between atoms: C_3  and  O_4 
REMARK    4  A    between atoms: N_8  and  C_9 
REMARK    5  A    between atoms: N_13  and  C_14 
REMARK    6  A    between atoms: C_17  and  O_18 
REMARK    7  A    between atoms: O_18  and  C_19 
ROOT
ATOM      1  C   UNL d   1      29.887 -13.633  -1.829  0.00  0.00     0.737 A 
ATOM      2  N   UNL d   1      31.073 -13.078  -1.624  0.00  0.00     0.030 NA
ATOM      3  N   UNL d   1      31.456 -13.416  -0.347  0.00  0.00     0.033 NA
ATOM      4  N   UNL d   1      30.545 -14.173   0.249  0.00  0.00     0.016 NA
ATOM      5  N   UNL d   1      29.594 -14.384  -0.685  0.00  0.00    -0.070 N 
ENDROOT
BRANCH   5   6
ATOM      6  C   UNL d   1      28.617 -15.381  -0.501  0.00  0.00     0.072 A 
ATOM      7  C   UNL d   1      28.105 -16.071  -1.605  0.00  0.00     0.034 A 
ATOM      8  C   UNL d   1      27.127 -17.051  -1.400  0.00  0.00     0.039 A 
ATOM      9  C   UNL d   1      26.678 -17.349  -0.107  0.00  0.00     0.076 A 
ATOM     10  C   UNL d   1      27.184 -16.625   0.979  0.00  0.00     0.039 A 
ATOM     11  C   UNL d   1      28.147 -15.641   0.786  0.00  0.00     0.034 A 
BRANCH   9  12
ATOM     12  O   UNL d   1      25.779 -18.393  -0.008  0.00  0.00    -0.311 OA
BRANCH  12  13
ATOM     13  C   UNL d   1      24.460 -18.172  -0.332  0.00  0.00     0.076 A 
ATOM     14  C   UNL d   1      24.047 -16.861  -0.572  0.00  0.00     0.037 A 
ATOM     15  C   UNL d   1      22.700 -16.594  -0.827  0.00  0.00     0.003 A 
ATOM     16  C   UNL d   1      21.780 -17.642  -0.895  0.00  0.00     0.000 A 
ATOM     17  C   UNL d   1      22.196 -18.952  -0.658  0.00  0.00     0.003 A 
ATOM     18  C   UNL d   1      23.528 -19.212  -0.338  0.00  0.00     0.037 A 
ENDBRANCH  12  13
ENDBRANCH   9  12
ENDBRANCH   5   6
BRANCH   1  19
ATOM     19  N   UNL d   1      29.032 -13.459  -2.887  0.00  0.00    -0.213 N 
ATOM     20  C   UNL d   1      29.491 -13.695  -4.254  0.00  0.00     0.141 C 
ATOM     21  C   UNL d   1      28.447 -14.458  -5.099  0.00  0.00     0.023 C 
ATOM     22  C   UNL d   1      27.416 -13.543  -5.785  0.00  0.00     0.042 C 
ATOM     23  C   UNL d   1      26.338 -12.961  -4.843  0.00  0.00     0.080 C 
ATOM     24  C   UNL d   1      27.025 -12.191  -3.693  0.00  0.00     0.060 C 
ATOM     25  C   UNL d   1      27.642 -13.105  -2.623  0.00  0.00     0.144 C 
BRANCH  23  26
ATOM     26  O   UNL d   1      25.540 -12.013  -5.573  0.00  0.00    -0.388 OA
ATOM     27  H   UNL d   1      24.681 -11.889  -5.138  0.00  0.00     0.210 HD
ENDBRANCH  23  26
BRANCH  23  28
ATOM     28  C   UNL d   1      25.397 -14.068  -4.262  0.00  0.00     0.201 C 
BRANCH  28  29
ATOM     29  O   UNL d   1      24.021 -13.725  -4.195  0.00  0.00    -0.398 OA
ATOM     30  H   UNL d   1      23.828 -13.247  -5.022  0.00  0.00     0.209 HD
ENDBRANCH  28  29
ENDBRANCH  23  28
ENDBRANCH   1  19
TORSDOF 7
ENDMDL
MODEL 6
REMARK VINA RESULT:    -7.258      4.989      6.758
REMARK INTER + INTRA:         -11.777
REMARK INTER:                  -9.346
REMARK INTRA:                  -2.431
REMARK CONF_INDEPENDENT:        2.088
REMARK UNBOUND:                -2.431
REMARK  7 active torsions:
REMARK  status: ('A' for Active; 'I' for Inactive)
REMARK    1  A    between atoms: O_1  and  C_2 
REMARK    2  A    between atoms: C_3  and  C_2 
REMARK    3  A    between atoms: C_3  and  O_4 
REMARK    4  A    between atoms: N_8  and  C_9 
REMARK    5  A    between atoms: N_13  and  C_14 
REMARK    6  A    between atoms: C_17  and  O_18 
REMARK    7  A    between atoms: O_18  and  C_19 
ROOT
ATOM      1  C   UNL d   1      30.705 -14.439   2.304  0.00  0.00     0.737 A 
ATOM      2  N   UNL d   1      32.028 -14.487   2.364  0.00  0.00     0.030 NA
ATOM      3  N   UNL d   1      32.430 -15.474   1.494  0.00  0.00     0.033 NA
ATOM      4  N   UNL d   1      31.395 -16.038   0.888  0.00  0.00     0.016 NA
ATOM      5  N   UNL d   1      30.315 -15.356   1.322  0.00  0.00    -0.070 N 
ENDROOT
BRANCH   5   6
ATOM      6  C   UNL d   1      29.073 -15.488   0.670  0.00  0.00     0.072 A 
ATOM      7  C   UNL d   1      28.036 -14.592   0.952  0.00  0.00     0.034 A 
ATOM      8  C   UNL d   1      26.808 -14.748   0.301  0.00  0.00     0.039 A 
ATOM      9  C   UNL d   1      26.623 -15.776  -0.633  0.00  0.00     0.076 A 
ATOM     10  C   UNL d   1      27.666 -16.676  -0.878  0.00  0.00     0.039 A 
ATOM     11  C   UNL d   1      28.887 -16.538  -0.227  0.00  0.00     0.034 A 
BRANCH   9  12
ATOM     12  O   UNL d   1      25.405 -15.785  -1.284  0.00  0.00    -0.311 OA
BRANCH  12  13
ATOM     13  C   UNL d   1      24.469 -16.734  -0.937  0.00  0.00     0.076 A 
ATOM     14  C   UNL d   1      23.123 -16.368  -0.941  0.00  0.00     0.037 A 
ATOM     15  C   UNL d   1      22.155 -17.283  -0.520  0.00  0.00     0.003 A 
ATOM     16  C   UNL d   1      22.530 -18.576  -0.149  0.00  0.00     0.000 A 
ATOM     17  C   UNL d   1      23.876 -18.940  -0.149  0.00  0.00     0.003 A 
ATOM     18  C   UNL d   1      24.849 -18.007  -0.506  0.00  0.00     0.037 A 
ENDBRANCH  12  13
ENDBRANCH   9  12
ENDBRANCH   5   6
BRANCH   1  19
ATOM     19  N   UNL d   1      29.838 -13.727   3.094  0.00  0.00    -0.213 N 
ATOM     20  C   UNL d   1      28.954 -14.418   4.029  0.00  0.00     0.141 C 
ATOM     21  C   UNL d   1      28.876 -13.706   5.398  0.00  0.00     0.023 C 
ATOM     22  C   UNL d   1      27.803 -12.604   5.463  0.00  0.00     0.042 C 
ATOM     23  C   UNL d   1      28.168 -11.299   4.721  0.00  0.00     0.080 C 
ATOM     24  C   UNL d   1      28.484 -11.622   3.243  0.00  0.00     0.060 C 
ATOM     25  C   UNL d   1      29.862 -12.270   3.036  0.00  0.00     0.144 C 
BRANCH  23  26
ATOM     26  O   UNL d   1      27.029 -10.420   4.729  0.00  0.00    -0.388 OA
ATOM     27  H   UNL d   1      27.079  -9.810   5.481  0.00  0.00     0.210 HD
ENDBRANCH  23  26
BRANCH  23  28
ATOM     28  C   UNL d   1      29.378 -10.559   5.379  0.00  0.00     0.201 C 
BRANCH  28  29
ATOM     29  O   UNL d   1      29.047  -9.417   6.154  0.00  0.00    -0.398 OA
ATOM     30  H   UNL d   1      28.092  -9.488   6.334  0.00  0.00     0.209 HD
ENDBRANCH  28  29
ENDBRANCH  23  28
ENDBRANCH   1  19
TORSDOF 7
ENDMDL
MODEL 7
REMARK VINA RESULT:    -7.150      4.418      7.427
REMARK INTER + INTRA:         -11.863
REMARK INTER:                  -9.238
REMARK INTRA:                  -2.625
REMARK CONF_INDEPENDENT:        2.088
REMARK UNBOUND:                -2.625
REMARK  7 active torsions:
REMARK  status: ('A' for Active; 'I' for Inactive)
REMARK    1  A    between atoms: O_1  and  C_2 
REMARK    2  A    between atoms: C_3  and  C_2 
REMARK    3  A    between atoms: C_3  and  O_4 
REMARK    4  A    between atoms: N_8  and  C_9 
REMARK    5  A    between atoms: N_13  and  C_14 
REMARK    6  A    between atoms: C_17  and  O_18 
REMARK    7  A    between atoms: O_18  and  C_19 
ROOT
ATOM      1  C   UNL d   1      28.970 -16.586  -1.352  0.00  0.00     0.737 A 
ATOM      2  N   UNL d   1      29.745 -17.562  -1.802  0.00  0.00     0.030 NA
ATOM      3  N   UNL d   1      30.915 -17.507  -1.082  0.00  0.00     0.033 NA
ATOM      4  N   UNL d   1      30.890 -16.527  -0.190  0.00  0.00     0.016 NA
ATOM      5  N   UNL d   1      29.657 -15.989  -0.288  0.00  0.00    -0.070 N 
ENDROOT
BRANCH   5   6
ATOM      6  C   UNL d   1      29.173 -15.116   0.705  0.00  0.00     0.072 A 
ATOM      7  C   UNL d   1      27.875 -15.270   1.200  0.00  0.00     0.034 A 
ATOM      8  C   UNL d   1      27.411 -14.384   2.180  0.00  0.00     0.039 A 
ATOM      9  C   UNL d   1      28.241 -13.367   2.669  0.00  0.00     0.076 A 
ATOM     10  C   UNL d   1      29.527 -13.216   2.138  0.00  0.00     0.039 A 
ATOM     11  C   UNL d   1      29.993 -14.082   1.156  0.00  0.00     0.034 A 
BRANCH   9  12
ATOM     12  O   UNL d   1      27.718 -12.607   3.697  0.00  0.00    -0.311 OA
BRANCH  12  13
ATOM     13  C   UNL d   1      28.087 -12.890   4.992  0.00  0.00     0.076 A 
ATOM     14  C   UNL d   1      28.098 -11.849   5.921  0.00  0.00     0.037 A 
ATOM     15  C   UNL d   1      28.541 -12.087   7.224  0.00  0.00     0.003 A 
ATOM     16  C   UNL d   1      28.920 -13.374   7.610  0.00  0.00     0.000 A 
ATOM     17  C   UNL d   1      28.905 -14.414   6.681  0.00  0.00     0.003 A 
ATOM     18  C   UNL d   1      28.526 -14.164   5.363  0.00  0.00     0.037 A 
ENDBRANCH  12  13
ENDBRANCH   9  12
ENDBRANCH   5   6
BRANCH   1  19
ATOM     19  N   UNL d   1      27.774 -16.142  -1.854  0.00  0.00    -0.213 N 
ATOM     20  C   UNL d   1      26.514 -16.678  -1.344  0.00  0.00     0.141 C 
ATOM     21  C   UNL d   1      25.451 -15.578  -1.132  0.00  0.00     0.023 C 
ATOM     22  C   UNL d   1      24.615 -15.273  -2.389  0.00  0.00     0.042 C 
ATOM     23  C   UNL d   1      25.352 -14.457  -3.475  0.00  0.00     0.080 C 
ATOM     24  C   UNL d   1      26.644 -15.199  -3.883  0.00  0.00     0.060 C 
ATOM     25  C   UNL d   1      27.776 -15.078  -2.851  0.00  0.00     0.144 C 
BRANCH  23  26
ATOM     26  O   UNL d   1      24.520 -14.375  -4.645  0.00  0.00    -0.388 OA
ATOM     27  H   UNL d   1      24.066 -13.519  -4.678  0.00  0.00     0.210 HD
ENDBRANCH  23  26
BRANCH  23  28
ATOM     28  C   UNL d   1      25.693 -13.007  -2.999  0.00  0.00     0.201 C 
BRANCH  28  29
ATOM     29  O   UNL d   1      25.413 -11.976  -3.934  0.00  0.00    -0.398 OA
ATOM     30  H   UNL d   1      24.583 -12.237  -4.373  0.00  0.00     0.209 HD
ENDBRANCH  28  29
ENDBRANCH  23  28
ENDBRANCH   1  19
TORSDOF 7
ENDMDL
