MODEL 1
REMARK VINA RESULT:    -7.305      0.000      0.000
REMARK INTER + INTRA:         -11.145
REMARK INTER:                  -9.393
REMARK INTRA:                  -1.752
REMARK CONF_INDEPENDENT:        2.088
REMARK UNBOUND:                -1.752
REMARK  7 active torsions:
REMARK  status: ('A' for Active; 'I' for Inactive)
REMARK    1  A    between atoms: C_2  and  C_3 
REMARK    2  A    between atoms: C_3  and  C_4 
REMARK    3  A    between atoms: C_4  and  N_5 
REMARK       I    between atoms: N_5  and  C_6 
REMARK       I    between atoms: C_6  and  N_8 
REMARK    4  A    between atoms: N_8  and  N_9 
REMARK       I    between atoms: N_9  and  C_10 
REMARK    5  A    between atoms: C_10  and  C_12 
REMARK    6  A    between atoms: C_12  and  N_13 
REMARK    7  A    between atoms: N_13  and  C_15 
ROOT
ATOM      1  N   UNL d   1      23.380 -17.427  -0.367  0.00  0.00    -0.265 N 
ATOM      2  C   UNL d   1      24.758 -17.443  -0.206  0.00  0.00     0.254 C 
ATOM      3  O   UNL d   1      25.235 -18.480   0.266  0.00  0.00    -0.270 OA
ATOM      4  H   UNL d   1      22.816 -16.666  -0.739  0.00  0.00     0.190 HD
ENDROOT
BRANCH   1   5
ATOM      5  N   UNL d   1      22.686 -18.619   0.027  0.00  0.00    -0.249 N 
ATOM      6  C   UNL d   1      21.363 -18.793  -0.300  0.00  0.00     0.334 C 
ATOM      7  N   UNL d   1      20.809 -19.980   0.134  0.00  0.00    -0.342 N 
ATOM      8  O   UNL d   1      20.733 -17.942  -0.929  0.00  0.00    -0.246 OA
ATOM      9  H   UNL d   1      21.371 -20.645   0.648  0.00  0.00     0.164 HD
ATOM     10  H   UNL d   1      23.247 -19.295   0.544  0.00  0.00     0.192 HD
BRANCH   7  11
ATOM     11  C   UNL d   1      19.411 -20.287  -0.147  0.00  0.00     0.124 C 
BRANCH  11  12
ATOM     12  C   UNL d   1      18.736 -21.170   0.908  0.00  0.00     0.019 C 
BRANCH  12  13
ATOM     13  C   UNL d   1      18.599 -20.444   2.255  0.00  0.00    -0.003 C 
ATOM     14  C   UNL d   1      19.909 -20.451   3.030  0.00  0.00     0.005 C 
ENDBRANCH  12  13
ENDBRANCH  11  12
ENDBRANCH   7  11
ENDBRANCH   1   5
BRANCH   2  15
ATOM     15  C   UNL d   1      25.562 -16.154  -0.611  0.00  0.00     0.227 C 
BRANCH  15  16
ATOM     16  N   UNL d   1      26.787 -16.335  -1.450  0.00  0.00    -0.376 N 
ATOM     17  C   UNL d   1      28.032 -16.904  -0.937  0.00  0.00     0.150 C 
BRANCH  16  18
ATOM     18  C   UNL d   1      26.928 -15.732  -2.712  0.00  0.00     0.030 A 
ATOM     19  C   UNL d   1      25.788 -15.305  -3.426  0.00  0.00     0.029 A 
ATOM     20  C   UNL d   1      25.853 -14.833  -4.743  0.00  0.00     0.002 A 
ATOM     21  C   UNL d   1      27.084 -14.703  -5.368  0.00  0.00     0.000 A 
ATOM     22  C   UNL d   1      28.236 -15.080  -4.682  0.00  0.00     0.002 A 
ATOM     23  C   UNL d   1      28.157 -15.588  -3.369  0.00  0.00     0.029 A 
ENDBRANCH  16  18
ENDBRANCH  15  16
ENDBRANCH   2  15
TORSDOF 7
ENDMDL
MODEL 2
REMARK VINA RESULT:    -7.231      0.809      1.371
REMARK INTER + INTRA:         -11.089
REMARK INTER:                  -9.319
REMARK INTRA:                  -1.770
REMARK CONF_INDEPENDENT:        2.088
REMARK UNBOUND:                -1.770
REMARK  7 active torsions:
REMARK  status: ('A' for Active; 'I' for Inactive)
REMARK    1  A    between atoms: C_2  and  C_3 
REMARK    2  A    between atoms: C_3  and  C_4 
REMARK    3  A    between atoms: C_4  and  N_5 
REMARK       I    between atoms: N_5  and  C_6 
REMARK       I    between atoms: C_6  and  N_8 
REMARK    4  A    between atoms: N_8  and  N_9 
REMARK       I    between atoms: N_9  and  C_10 
REMARK    5  A    between atoms: C_10  and  C_12 
REMARK    6  A    between atoms: C_12  and  N_13 
REMARK    7  A    between atoms: N_13  and  C_15 
ROOT
ATOM      1  N   UNL d   1      23.947 -17.390  -0.061  0.00  0.00    -0.265 N 
ATOM      2  C   UNL d   1      25.317 -17.595   0.013  0.00  0.00     0.254 C 
ATOM      3  O   UNL d   1      25.678 -18.744   0.289  0.00  0.00    -0.270 OA
ATOM      4  H   UNL d   1      23.468 -16.518  -0.277  0.00  0.00     0.190 HD
ENDROOT
BRANCH   1   5
ATOM      5  N   UNL d   1      23.124 -18.541   0.184  0.00  0.00    -0.249 N 
ATOM      6  C   UNL d   1      21.827 -18.576  -0.267  0.00  0.00     0.334 C 
ATOM      7  N   UNL d   1      21.141 -19.735   0.031  0.00  0.00    -0.342 N 
ATOM      8  O   UNL d   1      21.330 -17.634  -0.885  0.00  0.00    -0.246 OA
ATOM      9  H   UNL d   1      21.596 -20.479   0.541  0.00  0.00     0.164 HD
ATOM     10  H   UNL d   1      23.578 -19.295   0.697  0.00  0.00     0.192 HD
BRANCH   7  11
ATOM     11  C   UNL d   1      19.754 -19.899  -0.391  0.00  0.00     0.124 C 
BRANCH  11  12
ATOM     12  C   UNL d   1      18.914 -20.784   0.536  0.00  0.00     0.019 C 
BRANCH  12  13
ATOM     13  C   UNL d   1      18.704 -20.131   1.910  0.00  0.00    -0.003 C 
ATOM     14  C   UNL d   1      19.848 -20.450   2.863  0.00  0.00     0.005 C 
ENDBRANCH  12  13
ENDBRANCH  11  12
ENDBRANCH   7  11
ENDBRANCH   1   5
BRANCH   2  15
ATOM     15  C   UNL d   1      26.261 -16.362  -0.235  0.00  0.00     0.227 C 
BRANCH  15  16
ATOM     16  N   UNL d   1      26.918 -16.249  -1.573  0.00  0.00    -0.376 N 
ATOM     17  C   UNL d   1      28.279 -16.711  -1.839  0.00  0.00     0.150 C 
BRANCH  16  18
ATOM     18  C   UNL d   1      26.388 -15.454  -2.605  0.00  0.00     0.030 A 
ATOM     19  C   UNL d   1      27.142 -15.211  -3.773  0.00  0.00     0.029 A 
ATOM     20  C   UNL d   1      26.731 -14.314  -4.766  0.00  0.00     0.002 A 
ATOM     21  C   UNL d   1      25.502 -13.681  -4.657  0.00  0.00     0.000 A 
ATOM     22  C   UNL d   1      24.713 -13.923  -3.535  0.00  0.00     0.002 A 
ATOM     23  C   UNL d   1      25.151 -14.800  -2.523  0.00  0.00     0.029 A 
ENDBRANCH  16  18
ENDBRANCH  15  16
ENDBRANCH   2  15
TORSDOF 7
ENDMDL
MODEL 3
REMARK VINA RESULT:    -6.449      4.866      9.182
REMARK INTER + INTRA:         -10.330
REMARK INTER:                  -8.537
REMARK INTRA:                  -1.792
REMARK CONF_INDEPENDENT:        2.088
REMARK UNBOUND:                -1.792
REMARK  7 active torsions:
REMARK  status: ('A' for Active; 'I' for Inactive)
REMARK    1  A    between atoms: C_2  and  C_3 
REMARK    2  A    between atoms: C_3  and  C_4 
REMARK    3  A    between atoms: C_4  and  N_5 
REMARK       I    between atoms: N_5  and  C_6 
REMARK       I    between atoms: C_6  and  N_8 
REMARK    4  A    between atoms: N_8  and  N_9 
REMARK       I    between atoms: N_9  and  C_10 
REMARK    5  A    between atoms: C_10  and  C_12 
REMARK    6  A    between atoms: C_12  and  N_13 
REMARK    7  A    between atoms: N_13  and  C_15 
ROOT
ATOM      1  N   UNL d   1      26.017 -13.179  -3.182  0.00  0.00    -0.265 N 
ATOM      2  C   UNL d   1      25.472 -14.427  -3.443  0.00  0.00     0.254 C 
ATOM      3  O   UNL d   1      24.529 -14.449  -4.241  0.00  0.00    -0.270 OA
ATOM      4  H   UNL d   1      26.793 -12.967  -2.558  0.00  0.00     0.190 HD
ENDROOT
BRANCH   1   5
ATOM      5  N   UNL d   1      25.422 -12.073  -3.877  0.00  0.00    -0.249 N 
ATOM      6  C   UNL d   1      25.798 -10.785  -3.586  0.00  0.00     0.334 C 
ATOM      7  N   UNL d   1      25.155  -9.811  -4.323  0.00  0.00    -0.342 N 
ATOM      8  O   UNL d   1      26.645 -10.535  -2.727  0.00  0.00    -0.246 OA
ATOM      9  H   UNL d   1      24.468 -10.071  -5.017  0.00  0.00     0.164 HD
ATOM     10  H   UNL d   1      24.729 -12.327  -4.580  0.00  0.00     0.192 HD
BRANCH   7  11
ATOM     11  C   UNL d   1      25.464  -8.402  -4.110  0.00  0.00     0.124 C 
BRANCH  11  12
ATOM     12  C   UNL d   1      24.839  -7.457  -5.141  0.00  0.00     0.019 C 
BRANCH  12  13
ATOM     13  C   UNL d   1      23.368  -7.805  -5.415  0.00  0.00    -0.003 C 
ATOM     14  C   UNL d   1      22.543  -6.560  -5.709  0.00  0.00     0.005 C 
ENDBRANCH  12  13
ENDBRANCH  11  12
ENDBRANCH   7  11
ENDBRANCH   1   5
BRANCH   2  15
ATOM     15  C   UNL d   1      26.081 -15.668  -2.694  0.00  0.00     0.227 C 
BRANCH  15  16
ATOM     16  N   UNL d   1      25.721 -15.858  -1.256  0.00  0.00    -0.376 N 
ATOM     17  C   UNL d   1      26.579 -15.430  -0.152  0.00  0.00     0.150 C 
BRANCH  16  18
ATOM     18  C   UNL d   1      24.667 -16.695  -0.850  0.00  0.00     0.030 A 
ATOM     19  C   UNL d   1      24.931 -18.020  -0.439  0.00  0.00     0.029 A 
ATOM     20  C   UNL d   1      23.914 -18.943  -0.163  0.00  0.00     0.002 A 
ATOM     21  C   UNL d   1      22.588 -18.544  -0.220  0.00  0.00     0.000 A 
ATOM     22  C   UNL d   1      22.289 -17.234  -0.587  0.00  0.00     0.002 A 
ATOM     23  C   UNL d   1      23.318 -16.322  -0.897  0.00  0.00     0.029 A 
ENDBRANCH  16  18
ENDBRANCH  15  16
ENDBRANCH   2  15
TORSDOF 7
ENDMDL
MODEL 4
REMARK VINA RESULT:    -6.415      2.077      3.187
REMARK INTER + INTRA:         -10.207
REMARK INTER:                  -8.503
REMARK INTRA:                  -1.704
REMARK CONF_INDEPENDENT:        2.088
REMARK UNBOUND:                -1.704
REMARK  7 active torsions:
REMARK  status: ('A' for Active; 'I' for Inactive)
REMARK    1  A    between atoms: C_2  and  C_3 
REMARK    2  A    between atoms: C_3  and  C_4 
REMARK    3  A    between atoms: C_4  and  N_5 
REMARK       I    between atoms: N_5  and  C_6 
REMARK       I    between atoms: C_6  and  N_8 
REMARK    4  A    between atoms: N_8  and  N_9 
REMARK       I    between atoms: N_9  and  C_10 
REMARK    5  A    between atoms: C_10  and  C_12 
REMARK    6  A    between atoms: C_12  and  N_13 
REMARK    7  A    between atoms: N_13  and  C_15 
ROOT
ATOM      1  N   UNL d   1      23.763 -17.974  -1.078  0.00  0.00    -0.265 N 
ATOM      2  C   UNL d   1      25.086 -17.840  -0.684  0.00  0.00     0.254 C 
ATOM      3  O   UNL d   1      25.411 -18.456   0.337  0.00  0.00    -0.270 OA
ATOM      4  H   UNL d   1      23.319 -17.546  -1.888  0.00  0.00     0.190 HD
ENDROOT
BRANCH   1   5
ATOM      5  N   UNL d   1      22.942 -18.816  -0.255  0.00  0.00    -0.249 N 
ATOM      6  C   UNL d   1      21.577 -18.664  -0.250  0.00  0.00     0.334 C 
ATOM      7  N   UNL d   1      20.900 -19.533   0.581  0.00  0.00    -0.342 N 
ATOM      8  O   UNL d   1      21.017 -17.811  -0.938  0.00  0.00    -0.246 OA
ATOM      9  H   UNL d   1      21.409 -20.216   1.125  0.00  0.00     0.164 HD
ATOM     10  H   UNL d   1      23.449 -19.508   0.296  0.00  0.00     0.192 HD
BRANCH   7  11
ATOM     11  C   UNL d   1      19.446 -19.476   0.678  0.00  0.00     0.124 C 
BRANCH  11  12
ATOM     12  C   UNL d   1      18.710 -20.085  -0.520  0.00  0.00     0.019 C 
BRANCH  12  13
ATOM     13  C   UNL d   1      17.743 -21.199  -0.089  0.00  0.00    -0.003 C 
ATOM     14  C   UNL d   1      17.970 -21.608   1.360  0.00  0.00     0.005 C 
ENDBRANCH  12  13
ENDBRANCH  11  12
ENDBRANCH   7  11
ENDBRANCH   1   5
BRANCH   2  15
ATOM     15  C   UNL d   1      26.023 -16.918  -1.547  0.00  0.00     0.227 C 
BRANCH  15  16
ATOM     16  N   UNL d   1      27.272 -16.404  -0.907  0.00  0.00    -0.376 N 
ATOM     17  C   UNL d   1      28.562 -17.086  -1.005  0.00  0.00     0.150 C 
BRANCH  16  18
ATOM     18  C   UNL d   1      27.256 -15.379   0.055  0.00  0.00     0.030 A 
ATOM     19  C   UNL d   1      26.821 -14.083  -0.295  0.00  0.00     0.029 A 
ATOM     20  C   UNL d   1      26.919 -12.990   0.576  0.00  0.00     0.002 A 
ATOM     21  C   UNL d   1      27.392 -13.178   1.865  0.00  0.00     0.000 A 
ATOM     22  C   UNL d   1      27.798 -14.450   2.259  0.00  0.00     0.002 A 
ATOM     23  C   UNL d   1      27.729 -15.537   1.364  0.00  0.00     0.029 A 
ENDBRANCH  16  18
ENDBRANCH  15  16
ENDBRANCH   2  15
TORSDOF 7
ENDMDL
MODEL 5
REMARK VINA RESULT:    -6.175      4.964      7.962
REMARK INTER + INTRA:         -10.083
REMARK INTER:                  -8.263
REMARK INTRA:                  -1.821
REMARK CONF_INDEPENDENT:        2.088
REMARK UNBOUND:                -1.821
REMARK  7 active torsions:
REMARK  status: ('A' for Active; 'I' for Inactive)
REMARK    1  A    between atoms: C_2  and  C_3 
REMARK    2  A    between atoms: C_3  and  C_4 
REMARK    3  A    between atoms: C_4  and  N_5 
REMARK       I    between atoms: N_5  and  C_6 
REMARK       I    between atoms: C_6  and  N_8 
REMARK    4  A    between atoms: N_8  and  N_9 
REMARK       I    between atoms: N_9  and  C_10 
REMARK    5  A    between atoms: C_10  and  C_12 
REMARK    6  A    between atoms: C_12  and  N_13 
REMARK    7  A    between atoms: N_13  and  C_15 
ROOT
ATOM      1  N   UNL d   1      27.302 -14.364   1.308  0.00  0.00    -0.265 N 
ATOM      2  C   UNL d   1      27.484 -14.977   0.077  0.00  0.00     0.254 C 
ATOM      3  O   UNL d   1      28.314 -15.892   0.046  0.00  0.00    -0.270 OA
ATOM      4  H   UNL d   1      26.665 -13.600   1.524  0.00  0.00     0.190 HD
ENDROOT
BRANCH   1   5
ATOM      5  N   UNL d   1      28.095 -14.875   2.390  0.00  0.00    -0.249 N 
ATOM      6  C   UNL d   1      27.877 -14.444   3.675  0.00  0.00     0.334 C 
ATOM      7  N   UNL d   1      28.703 -15.010   4.625  0.00  0.00    -0.342 N 
ATOM      8  O   UNL d   1      27.009 -13.613   3.942  0.00  0.00    -0.246 OA
ATOM      9  H   UNL d   1      29.400 -15.689   4.353  0.00  0.00     0.164 HD
ATOM     10  H   UNL d   1      28.800 -15.562   2.122  0.00  0.00     0.192 HD
BRANCH   7  11
ATOM     11  C   UNL d   1      28.574 -14.637   6.029  0.00  0.00     0.124 C 
BRANCH  11  12
ATOM     12  C   UNL d   1      28.661 -13.130   6.291  0.00  0.00     0.019 C 
BRANCH  12  13
ATOM     13  C   UNL d   1      28.530 -12.803   7.786  0.00  0.00    -0.003 C 
ATOM     14  C   UNL d   1      28.947 -13.980   8.656  0.00  0.00     0.005 C 
ENDBRANCH  12  13
ENDBRANCH  11  12
ENDBRANCH   7  11
ENDBRANCH   1   5
BRANCH   2  15
ATOM     15  C   UNL d   1      26.647 -14.444  -1.142  0.00  0.00     0.227 C 
BRANCH  15  16
ATOM     16  N   UNL d   1      25.825 -15.432  -1.906  0.00  0.00    -0.376 N 
ATOM     17  C   UNL d   1      25.571 -15.323  -3.342  0.00  0.00     0.150 C 
BRANCH  16  18
ATOM     18  C   UNL d   1      25.013 -16.386  -1.267  0.00  0.00     0.030 A 
ATOM     19  C   UNL d   1      25.594 -17.523  -0.665  0.00  0.00     0.029 A 
ATOM     20  C   UNL d   1      24.832 -18.575  -0.144  0.00  0.00     0.002 A 
ATOM     21  C   UNL d   1      23.448 -18.489  -0.142  0.00  0.00     0.000 A 
ATOM     22  C   UNL d   1      22.839 -17.365  -0.695  0.00  0.00     0.002 A 
ATOM     23  C   UNL d   1      23.614 -16.326  -1.250  0.00  0.00     0.029 A 
ENDBRANCH  16  18
ENDBRANCH  15  16
ENDBRANCH   2  15
TORSDOF 7
ENDMDL
MODEL 6
REMARK VINA RESULT:    -6.027      2.074      2.671
REMARK INTER + INTRA:          -9.883
REMARK INTER:                  -8.115
REMARK INTRA:                  -1.768
REMARK CONF_INDEPENDENT:        2.088
REMARK UNBOUND:                -1.768
REMARK  7 active torsions:
REMARK  status: ('A' for Active; 'I' for Inactive)
REMARK    1  A    between atoms: C_2  and  C_3 
REMARK    2  A    between atoms: C_3  and  C_4 
REMARK    3  A    between atoms: C_4  and  N_5 
REMARK       I    between atoms: N_5  and  C_6 
REMARK       I    between atoms: C_6  and  N_8 
REMARK    4  A    between atoms: N_8  and  N_9 
REMARK       I    between atoms: N_9  and  C_10 
REMARK    5  A    between atoms: C_10  and  C_12 
REMARK    6  A    between atoms: C_12  and  N_13 
REMARK    7  A    between atoms: N_13  and  C_15 
ROOT
ATOM      1  N   UNL d   1      24.161 -17.230  -1.653  0.00  0.00    -0.265 N 
ATOM      2  C   UNL d   1      25.222 -16.402  -1.319  0.00  0.00     0.254 C 
ATOM      3  O   UNL d   1      25.212 -15.949  -0.170  0.00  0.00    -0.270 OA
ATOM      4  H   UNL d   1      24.002 -17.693  -2.546  0.00  0.00     0.190 HD
ENDROOT
BRANCH   1   5
ATOM      5  N   UNL d   1      23.191 -17.460  -0.620  0.00  0.00    -0.249 N 
ATOM      6  C   UNL d   1      22.253 -18.454  -0.757  0.00  0.00     0.334 C 
ATOM      7  N   UNL d   1      21.378 -18.575   0.303  0.00  0.00    -0.342 N 
ATOM      8  O   UNL d   1      22.208 -19.171  -1.757  0.00  0.00    -0.246 OA
ATOM      9  H   UNL d   1      21.458 -17.961   1.102  0.00  0.00     0.164 HD
ATOM     10  H   UNL d   1      23.267 -16.844   0.188  0.00  0.00     0.192 HD
BRANCH   7  11
ATOM     11  C   UNL d   1      20.333 -19.593   0.283  0.00  0.00     0.124 C 
BRANCH  11  12
ATOM     12  C   UNL d   1      19.969 -20.150   1.663  0.00  0.00     0.019 C 
BRANCH  12  13
ATOM     13  C   UNL d   1      18.498 -20.588   1.731  0.00  0.00    -0.003 C 
ATOM     14  C   UNL d   1      18.036 -21.205   0.419  0.00  0.00     0.005 C 
ENDBRANCH  12  13
ENDBRANCH  11  12
ENDBRANCH   7  11
ENDBRANCH   1   5
BRANCH   2  15
ATOM     15  C   UNL d   1      26.304 -16.110  -2.421  0.00  0.00     0.227 C 
BRANCH  15  16
ATOM     16  N   UNL d   1      25.942 -15.158  -3.515  0.00  0.00    -0.376 N 
ATOM     17  C   UNL d   1      25.732 -15.574  -4.902  0.00  0.00     0.150 C 
BRANCH  16  18
ATOM     18  C   UNL d   1      26.036 -13.764  -3.360  0.00  0.00     0.030 A 
ATOM     19  C   UNL d   1      25.756 -12.908  -4.446  0.00  0.00     0.029 A 
ATOM     20  C   UNL d   1      25.972 -11.525  -4.395  0.00  0.00     0.002 A 
ATOM     21  C   UNL d   1      26.409 -10.939  -3.217  0.00  0.00     0.000 A 
ATOM     22  C   UNL d   1      26.661 -11.748  -2.111  0.00  0.00     0.002 A 
ATOM     23  C   UNL d   1      26.475 -13.143  -2.183  0.00  0.00     0.029 A 
ENDBRANCH  16  18
ENDBRANCH  15  16
ENDBRANCH   2  15
TORSDOF 7
ENDMDL
MODEL 7
REMARK VINA RESULT:    -5.913      1.927      8.683
REMARK INTER + INTRA:          -9.716
REMARK INTER:                  -8.001
REMARK INTRA:                  -1.715
REMARK CONF_INDEPENDENT:        2.088
REMARK UNBOUND:                -1.715
REMARK  7 active torsions:
REMARK  status: ('A' for Active; 'I' for Inactive)
REMARK    1  A    between atoms: C_2  and  C_3 
REMARK    2  A    between atoms: C_3  and  C_4 
REMARK    3  A    between atoms: C_4  and  N_5 
REMARK       I    between atoms: N_5  and  C_6 
REMARK       I    between atoms: C_6  and  N_8 
REMARK    4  A    between atoms: N_8  and  N_9 
REMARK       I    between atoms: N_9  and  C_10 
REMARK    5  A    between atoms: C_10  and  C_12 
REMARK    6  A    between atoms: C_12  and  N_13 
REMARK    7  A    between atoms: N_13  and  C_15 
ROOT
ATOM      1  N   UNL d   1      24.615 -16.539  -1.835  0.00  0.00    -0.265 N 
ATOM      2  C   UNL d   1      24.655 -17.057  -0.549  0.00  0.00     0.254 C 
ATOM      3  O   UNL d   1      25.768 -17.092  -0.015  0.00  0.00    -0.270 OA
ATOM      4  H   UNL d   1      23.794 -16.431  -2.427  0.00  0.00     0.190 HD
ENDROOT
BRANCH   1   5
ATOM      5  N   UNL d   1      25.870 -16.104  -2.379  0.00  0.00    -0.249 N 
ATOM      6  C   UNL d   1      25.903 -15.244  -3.450  0.00  0.00     0.334 C 
ATOM      7  N   UNL d   1      27.169 -14.899  -3.878  0.00  0.00    -0.342 N 
ATOM      8  O   UNL d   1      24.872 -14.825  -3.977  0.00  0.00    -0.246 OA
ATOM      9  H   UNL d   1      27.983 -15.272  -3.410  0.00  0.00     0.164 HD
ATOM     10  H   UNL d   1      26.696 -16.474  -1.910  0.00  0.00     0.192 HD
BRANCH   7  11
ATOM     11  C   UNL d   1      27.342 -13.993  -5.008  0.00  0.00     0.124 C 
BRANCH  11  12
ATOM     12  C   UNL d   1      28.104 -14.600  -6.191  0.00  0.00     0.019 C 
BRANCH  12  13
ATOM     13  C   UNL d   1      29.556 -14.937  -5.819  0.00  0.00    -0.003 C 
ATOM     14  C   UNL d   1      29.656 -16.283  -5.115  0.00  0.00     0.005 C 
ENDBRANCH  12  13
ENDBRANCH  11  12
ENDBRANCH   7  11
ENDBRANCH   1   5
BRANCH   2  15
ATOM     15  C   UNL d   1      23.307 -17.559   0.085  0.00  0.00     0.227 C 
BRANCH  15  16
ATOM     16  N   UNL d   1      22.544 -18.613  -0.650  0.00  0.00    -0.376 N 
ATOM     17  C   UNL d   1      22.905 -19.077  -1.990  0.00  0.00     0.150 C 
BRANCH  16  18
ATOM     18  C   UNL d   1      21.273 -19.049  -0.234  0.00  0.00     0.030 A 
ATOM     19  C   UNL d   1      21.028 -19.322   1.129  0.00  0.00     0.029 A 
ATOM     20  C   UNL d   1      19.833 -19.895   1.583  0.00  0.00     0.002 A 
ATOM     21  C   UNL d   1      18.806 -20.146   0.686  0.00  0.00     0.000 A 
ATOM     22  C   UNL d   1      18.998 -19.856  -0.662  0.00  0.00     0.002 A 
ATOM     23  C   UNL d   1      20.217 -19.313  -1.115  0.00  0.00     0.029 A 
ENDBRANCH  16  18
ENDBRANCH  15  16
ENDBRANCH   2  15
TORSDOF 7
ENDMDL
MODEL 8
REMARK VINA RESULT:    -5.747      4.805      8.924
REMARK INTER + INTRA:          -9.690
REMARK INTER:                  -7.835
REMARK INTRA:                  -1.854
REMARK CONF_INDEPENDENT:        2.088
REMARK UNBOUND:                -1.854
REMARK  7 active torsions:
REMARK  status: ('A' for Active; 'I' for Inactive)
REMARK    1  A    between atoms: C_2  and  C_3 
REMARK    2  A    between atoms: C_3  and  C_4 
REMARK    3  A    between atoms: C_4  and  N_5 
REMARK       I    between atoms: N_5  and  C_6 
REMARK       I    between atoms: C_6  and  N_8 
REMARK    4  A    between atoms: N_8  and  N_9 
REMARK       I    between atoms: N_9  and  C_10 
REMARK    5  A    between atoms: C_10  and  C_12 
REMARK    6  A    between atoms: C_12  and  N_13 
REMARK    7  A    between atoms: N_13  and  C_15 
ROOT
ATOM      1  N   UNL d   1      26.168 -13.130  -3.316  0.00  0.00    -0.265 N 
ATOM      2  C   UNL d   1      25.603 -14.371  -3.566  0.00  0.00     0.254 C 
ATOM      3  O   UNL d   1      24.572 -14.368  -4.248  0.00  0.00    -0.270 OA
ATOM      4  H   UNL d   1      27.012 -12.937  -2.780  0.00  0.00     0.190 HD
ENDROOT
BRANCH   1   5
ATOM      5  N   UNL d   1      25.488 -12.001  -3.886  0.00  0.00    -0.249 N 
ATOM      6  C   UNL d   1      26.081 -10.762  -3.890  0.00  0.00     0.334 C 
ATOM      7  N   UNL d   1      25.328  -9.760  -4.467  0.00  0.00    -0.342 N 
ATOM      8  O   UNL d   1      27.200 -10.577  -3.409  0.00  0.00    -0.246 OA
ATOM      9  H   UNL d   1      24.415  -9.966  -4.848  0.00  0.00     0.164 HD
ATOM     10  H   UNL d   1      24.567 -12.202  -4.273  0.00  0.00     0.192 HD
BRANCH   7  11
ATOM     11  C   UNL d   1      25.844  -8.398  -4.535  0.00  0.00     0.124 C 
BRANCH  11  12
ATOM     12  C   UNL d   1      25.522  -7.540  -3.307  0.00  0.00     0.019 C 
BRANCH  12  13
ATOM     13  C   UNL d   1      26.358  -7.956  -2.087  0.00  0.00    -0.003 C 
ATOM     14  C   UNL d   1      25.529  -7.949  -0.810  0.00  0.00     0.005 C 
ENDBRANCH  12  13
ENDBRANCH  11  12
ENDBRANCH   7  11
ENDBRANCH   1   5
BRANCH   2  15
ATOM     15  C   UNL d   1      26.304 -15.638  -2.952  0.00  0.00     0.227 C 
BRANCH  15  16
ATOM     16  N   UNL d   1      26.015 -15.967  -1.523  0.00  0.00    -0.376 N 
ATOM     17  C   UNL d   1      26.987 -15.781  -0.446  0.00  0.00     0.150 C 
BRANCH  16  18
ATOM     18  C   UNL d   1      24.896 -16.726  -1.138  0.00  0.00     0.030 A 
ATOM     19  C   UNL d   1      23.598 -16.182  -1.248  0.00  0.00     0.029 A 
ATOM     20  C   UNL d   1      22.462 -16.830  -0.748  0.00  0.00     0.002 A 
ATOM     21  C   UNL d   1      22.580 -18.090  -0.183  0.00  0.00     0.000 A 
ATOM     22  C   UNL d   1      23.841 -18.675  -0.090  0.00  0.00     0.002 A 
ATOM     23  C   UNL d   1      24.984 -18.000  -0.564  0.00  0.00     0.029 A 
ENDBRANCH  16  18
ENDBRANCH  15  16
ENDBRANCH   2  15
TORSDOF 7
ENDMDL
