MODEL 1
REMARK VINA RESULT:    -9.489      0.000      0.000
REMARK INTER + INTRA:         -14.079
REMARK INTER:                 -12.770
REMARK INTRA:                  -1.308
REMARK CONF_INDEPENDENT:        3.281
REMARK UNBOUND:                -1.308
REMARK  11 active torsions:
REMARK  status: ('A' for Active; 'I' for Inactive)
REMARK    1  A    between atoms: C_2  and  O_3 
REMARK    2  A    between atoms: O_3  and  C_4 
REMARK    3  A    between atoms: C_6  and  C_7 
REMARK       I    between atoms: C_7  and  N_9 
REMARK    4  A    between atoms: N_9  and  C_10 
REMARK    5  A    between atoms: C_13  and  C_14 
REMARK    6  A    between atoms: C_14  and  C_15 
REMARK    7  A    between atoms: N_16  and  C_15 
REMARK    8  A    between atoms: C_28  and  O_29 
REMARK    9  A    between atoms: O_29  and  C_30 
REMARK   10  A    between atoms: C_32  and  O_33 
REMARK   11  A    between atoms: O_33  and  C_34 
ROOT
ATOM      1  C   UNL d   1      26.928 -14.094   1.557  0.00  0.00     0.257 C 
ATOM      2  O   UNL d   1      26.423 -13.092   2.008  0.00  0.00    -0.267 OA
ATOM      3  N   UNL d   1      27.772 -14.937   2.308  0.00  0.00    -0.300 N 
ATOM      4  H   UNL d   1      28.448 -15.516   1.829  0.00  0.00     0.171 HD
ENDROOT
BRANCH   3   5
ATOM      5  C   UNL d   1      28.109 -14.585   3.619  0.00  0.00     0.196 C 
ATOM      6  N   UNL d   1      28.196 -15.409   4.642  0.00  0.00    -0.123 NA
ATOM      7  N   UNL d   1      28.590 -14.753   5.819  0.00  0.00    -0.145 NA
ATOM      8  C   UNL d   1      28.677 -13.433   5.698  0.00  0.00     0.102 C 
ATOM      9  S   UNL d   1      28.252 -12.923   4.101  0.00  0.00    -0.033 SA
BRANCH   8  10
ATOM     10  C   UNL d   1      29.104 -12.497   6.897  0.00  0.00     0.097 C 
BRANCH  10  11
ATOM     11  C   UNL d   1      30.624 -12.381   7.315  0.00  0.00     0.242 C 
BRANCH  11  12
ATOM     12  N   UNL d   1      31.495 -13.839   7.936  0.00  0.00    -0.067 N 
ATOM     13  C   UNL d   1      31.919 -15.239   9.124  0.00  0.00     0.240 C 
ATOM     14  C   UNL d   1      30.971 -15.470  10.637  0.00  0.00     0.067 C 
ATOM     15  C   UNL d   1      29.852 -14.462  10.940  0.00  0.00    -0.049 C 
ATOM     16  C   UNL d   1      28.830 -14.457  11.871  0.00  0.00     0.007 C 
ATOM     17  C   UNL d   1      29.845 -13.383  10.065  0.00  0.00    -0.026 C 
ATOM     18  C   UNL d   1      27.780 -13.510  11.723  0.00  0.00     0.001 C 
ATOM     19  C   UNL d   1      27.790 -12.521  10.740  0.00  0.00     0.001 C 
ATOM     20  C   UNL d   1      28.868 -12.432   9.931  0.00  0.00     0.009 C 
ATOM     21  C   UNL d   1      30.968 -13.349   9.162  0.00  0.00     0.274 C 
ATOM     22  H   UNL d   1      32.445 -13.538   7.685  0.00  0.00     0.280 HD
ENDBRANCH  11  12
ENDBRANCH  10  11
ENDBRANCH   8  10
ENDBRANCH   3   5
BRANCH   1  23
ATOM     23  C   UNL d   1      26.720 -14.391   0.075  0.00  0.00     0.037 A 
ATOM     24  C   UNL d   1      26.006 -15.573  -0.284  0.00  0.00     0.057 A 
ATOM     25  C   UNL d   1      25.582 -15.851  -1.613  0.00  0.00     0.105 A 
ATOM     26  C   UNL d   1      25.923 -14.899  -2.607  0.00  0.00     0.135 A 
ATOM     27  C   UNL d   1      26.708 -13.756  -2.269  0.00  0.00     0.105 A 
ATOM     28  C   UNL d   1      27.117 -13.527  -0.943  0.00  0.00     0.057 A 
BRANCH  25  29
ATOM     29  O   UNL d   1      24.678 -16.916  -1.686  0.00  0.00    -0.349 OA
BRANCH  29  30
ATOM     30  C   UNL d   1      24.410 -17.725  -0.537  0.00  0.00     0.171 C 
ATOM     31  C   UNL d   1      23.184 -18.613  -0.539  0.00  0.00     0.034 C 
ENDBRANCH  29  30
ENDBRANCH  25  29
BRANCH  26  32
ATOM     32  O   UNL d   1      25.531 -14.830  -3.918  0.00  0.00    -0.346 OA
BRANCH  32  33
ATOM     33  C   UNL d   1      26.323 -15.389  -4.881  0.00  0.00     0.171 C 
ATOM     34  C   UNL d   1      27.591 -14.791  -5.397  0.00  0.00     0.034 C 
ENDBRANCH  32  33
ENDBRANCH  26  32
BRANCH  27  35
ATOM     35  O   UNL d   1      27.090 -12.746  -3.152  0.00  0.00    -0.349 OA
BRANCH  35  36
ATOM     36  C   UNL d   1      26.724 -11.402  -2.799  0.00  0.00     0.171 C 
ATOM     37  C   UNL d   1      25.534 -10.887  -3.554  0.00  0.00     0.034 C 
ENDBRANCH  35  36
ENDBRANCH  27  35
ENDBRANCH   1  23
TORSDOF 11
ENDMDL
MODEL 2
REMARK VINA RESULT:    -8.943      0.935      3.180
REMARK INTER + INTRA:         -13.512
REMARK INTER:                 -12.224
REMARK INTRA:                  -1.287
REMARK CONF_INDEPENDENT:        3.281
REMARK UNBOUND:                -1.287
REMARK  11 active torsions:
REMARK  status: ('A' for Active; 'I' for Inactive)
REMARK    1  A    between atoms: C_2  and  O_3 
REMARK    2  A    between atoms: O_3  and  C_4 
REMARK    3  A    between atoms: C_6  and  C_7 
REMARK       I    between atoms: C_7  and  N_9 
REMARK    4  A    between atoms: N_9  and  C_10 
REMARK    5  A    between atoms: C_13  and  C_14 
REMARK    6  A    between atoms: C_14  and  C_15 
REMARK    7  A    between atoms: N_16  and  C_15 
REMARK    8  A    between atoms: C_28  and  O_29 
REMARK    9  A    between atoms: O_29  and  C_30 
REMARK   10  A    between atoms: C_32  and  O_33 
REMARK   11  A    between atoms: O_33  and  C_34 
ROOT
ATOM      1  C   UNL d   1      27.118 -13.896   1.204  0.00  0.00     0.257 C 
ATOM      2  O   UNL d   1      27.076 -12.749   1.584  0.00  0.00    -0.267 OA
ATOM      3  N   UNL d   1      27.790 -14.917   1.908  0.00  0.00    -0.300 N 
ATOM      4  H   UNL d   1      28.120 -15.730   1.406  0.00  0.00     0.171 HD
ENDROOT
BRANCH   3   5
ATOM      5  C   UNL d   1      28.504 -14.599   3.068  0.00  0.00     0.196 C 
ATOM      6  N   UNL d   1      29.787 -14.311   3.130  0.00  0.00    -0.123 NA
ATOM      7  N   UNL d   1      30.198 -14.003   4.436  0.00  0.00    -0.145 NA
ATOM      8  C   UNL d   1      29.255 -14.179   5.354  0.00  0.00     0.102 C 
ATOM      9  S   UNL d   1      27.791 -14.761   4.642  0.00  0.00    -0.033 SA
BRANCH   8  10
ATOM     10  C   UNL d   1      29.500 -13.892   6.889  0.00  0.00     0.097 C 
BRANCH  10  11
ATOM     11  C   UNL d   1      30.938 -13.481   7.403  0.00  0.00     0.242 C 
BRANCH  11  12
ATOM     12  N   UNL d   1      31.862 -14.610   8.470  0.00  0.00    -0.067 N 
ATOM     13  C   UNL d   1      32.286 -15.575  10.032  0.00  0.00     0.240 C 
ATOM     14  C   UNL d   1      31.223 -15.477  11.481  0.00  0.00     0.067 C 
ATOM     15  C   UNL d   1      30.001 -14.548  11.409  0.00  0.00    -0.049 C 
ATOM     16  C   UNL d   1      28.899 -14.393  12.230  0.00  0.00     0.007 C 
ATOM     17  C   UNL d   1      29.988 -13.760  10.265  0.00  0.00    -0.026 C 
ATOM     18  C   UNL d   1      27.794 -13.640  11.748  0.00  0.00     0.001 C 
ATOM     19  C   UNL d   1      27.814 -12.965  10.528  0.00  0.00     0.001 C 
ATOM     20  C   UNL d   1      28.953 -12.992   9.801  0.00  0.00     0.009 C 
ATOM     21  C   UNL d   1      31.184 -13.859   9.468  0.00  0.00     0.274 C 
ATOM     22  H   UNL d   1      32.805 -14.292   8.208  0.00  0.00     0.280 HD
ENDBRANCH  11  12
ENDBRANCH  10  11
ENDBRANCH   8  10
ENDBRANCH   3   5
BRANCH   1  23
ATOM     23  C   UNL d   1      26.503 -14.220  -0.154  0.00  0.00     0.037 A 
ATOM     24  C   UNL d   1      26.508 -13.207  -1.158  0.00  0.00     0.057 A 
ATOM     25  C   UNL d   1      26.146 -13.453  -2.512  0.00  0.00     0.105 A 
ATOM     26  C   UNL d   1      25.743 -14.773  -2.838  0.00  0.00     0.135 A 
ATOM     27  C   UNL d   1      25.657 -15.770  -1.821  0.00  0.00     0.105 A 
ATOM     28  C   UNL d   1      26.012 -15.480  -0.492  0.00  0.00     0.057 A 
BRANCH  25  29
ATOM     29  O   UNL d   1      26.479 -12.397  -3.366  0.00  0.00    -0.349 OA
BRANCH  29  30
ATOM     30  C   UNL d   1      26.847 -11.120  -2.838  0.00  0.00     0.171 C 
ATOM     31  C   UNL d   1      25.892  -9.957  -3.007  0.00  0.00     0.034 C 
ENDBRANCH  29  30
ENDBRANCH  25  29
BRANCH  26  32
ATOM     32  O   UNL d   1      25.484 -15.327  -4.064  0.00  0.00    -0.346 OA
BRANCH  32  33
ATOM     33  C   UNL d   1      26.525 -15.580  -4.913  0.00  0.00     0.171 C 
ATOM     34  C   UNL d   1      27.449 -14.544  -5.465  0.00  0.00     0.034 C 
ENDBRANCH  32  33
ENDBRANCH  26  32
BRANCH  27  35
ATOM     35  O   UNL d   1      25.291 -17.102  -2.021  0.00  0.00    -0.349 OA
BRANCH  35  36
ATOM     36  C   UNL d   1      24.613 -17.759  -0.937  0.00  0.00     0.171 C 
ATOM     37  C   UNL d   1      23.166 -18.040  -1.217  0.00  0.00     0.034 C 
ENDBRANCH  35  36
ENDBRANCH  27  35
ENDBRANCH   1  23
TORSDOF 11
ENDMDL
MODEL 3
REMARK VINA RESULT:    -8.940      1.916      2.894
REMARK INTER + INTRA:         -13.733
REMARK INTER:                 -12.221
REMARK INTRA:                  -1.512
REMARK CONF_INDEPENDENT:        3.281
REMARK UNBOUND:                -1.512
REMARK  11 active torsions:
REMARK  status: ('A' for Active; 'I' for Inactive)
REMARK    1  A    between atoms: C_2  and  O_3 
REMARK    2  A    between atoms: O_3  and  C_4 
REMARK    3  A    between atoms: C_6  and  C_7 
REMARK       I    between atoms: C_7  and  N_9 
REMARK    4  A    between atoms: N_9  and  C_10 
REMARK    5  A    between atoms: C_13  and  C_14 
REMARK    6  A    between atoms: C_14  and  C_15 
REMARK    7  A    between atoms: N_16  and  C_15 
REMARK    8  A    between atoms: C_28  and  O_29 
REMARK    9  A    between atoms: O_29  and  C_30 
REMARK   10  A    between atoms: C_32  and  O_33 
REMARK   11  A    between atoms: O_33  and  C_34 
ROOT
ATOM      1  C   UNL d   1      27.415 -15.111   0.181  0.00  0.00     0.257 C 
ATOM      2  O   UNL d   1      26.643 -15.899   0.676  0.00  0.00    -0.267 OA
ATOM      3  N   UNL d   1      28.177 -14.199   0.939  0.00  0.00    -0.300 N 
ATOM      4  H   UNL d   1      28.501 -13.345   0.507  0.00  0.00     0.171 HD
ENDROOT
BRANCH   3   5
ATOM      5  C   UNL d   1      28.000 -14.137   2.325  0.00  0.00     0.196 C 
ATOM      6  N   UNL d   1      26.924 -13.702   2.948  0.00  0.00    -0.123 NA
ATOM      7  N   UNL d   1      27.044 -13.799   4.343  0.00  0.00    -0.145 NA
ATOM      8  C   UNL d   1      28.244 -14.191   4.756  0.00  0.00     0.102 C 
ATOM      9  S   UNL d   1      29.311 -14.447   3.420  0.00  0.00    -0.033 SA
BRANCH   8  10
ATOM     10  C   UNL d   1      28.599 -14.369   6.285  0.00  0.00     0.097 C 
BRANCH  10  11
ATOM     11  C   UNL d   1      29.798 -13.560   6.925  0.00  0.00     0.242 C 
BRANCH  11  12
ATOM     12  N   UNL d   1      31.121 -14.449   7.778  0.00  0.00    -0.067 N 
ATOM     13  C   UNL d   1      32.068 -15.188   9.230  0.00  0.00     0.240 C 
ATOM     14  C   UNL d   1      31.406 -15.080  10.900  0.00  0.00     0.067 C 
ATOM     15  C   UNL d   1      30.082 -14.327  11.096  0.00  0.00    -0.049 C 
ATOM     16  C   UNL d   1      29.215 -14.232  12.169  0.00  0.00     0.007 C 
ATOM     17  C   UNL d   1      29.660 -13.667   9.948  0.00  0.00    -0.026 C 
ATOM     18  C   UNL d   1      27.923 -13.678  11.951  0.00  0.00     0.001 C 
ATOM     19  C   UNL d   1      27.531 -13.134  10.729  0.00  0.00     0.001 C 
ATOM     20  C   UNL d   1      28.438 -13.088   9.728  0.00  0.00     0.009 C 
ATOM     21  C   UNL d   1      30.615 -13.693   8.870  0.00  0.00     0.274 C 
ATOM     22  H   UNL d   1      31.908 -14.042   7.255  0.00  0.00     0.280 HD
ENDBRANCH  11  12
ENDBRANCH  10  11
ENDBRANCH   8  10
ENDBRANCH   3   5
BRANCH   1  23
ATOM     23  C   UNL d   1      27.481 -15.039  -1.341  0.00  0.00     0.037 A 
ATOM     24  C   UNL d   1      28.711 -15.370  -1.982  0.00  0.00     0.057 A 
ATOM     25  C   UNL d   1      28.836 -15.530  -3.390  0.00  0.00     0.105 A 
ATOM     26  C   UNL d   1      27.667 -15.317  -4.165  0.00  0.00     0.135 A 
ATOM     27  C   UNL d   1      26.454 -14.905  -3.538  0.00  0.00     0.105 A 
ATOM     28  C   UNL d   1      26.378 -14.747  -2.143  0.00  0.00     0.057 A 
BRANCH  25  29
ATOM     29  O   UNL d   1      30.050 -16.111  -3.768  0.00  0.00    -0.349 OA
BRANCH  29  30
ATOM     30  C   UNL d   1      30.076 -17.361  -4.464  0.00  0.00     0.171 C 
ATOM     31  C   UNL d   1      31.120 -17.578  -5.537  0.00  0.00     0.034 C 
ENDBRANCH  29  30
ENDBRANCH  25  29
BRANCH  26  32
ATOM     32  O   UNL d   1      27.457 -15.538  -5.501  0.00  0.00    -0.346 OA
BRANCH  32  33
ATOM     33  C   UNL d   1      28.178 -14.825  -6.416  0.00  0.00     0.171 C 
ATOM     34  C   UNL d   1      28.699 -13.441  -6.203  0.00  0.00     0.034 C 
ENDBRANCH  32  33
ENDBRANCH  26  32
BRANCH  27  35
ATOM     35  O   UNL d   1      25.240 -14.683  -4.190  0.00  0.00    -0.349 OA
BRANCH  35  36
ATOM     36  C   UNL d   1      24.774 -13.325  -4.249  0.00  0.00     0.171 C 
ATOM     37  C   UNL d   1      25.775 -12.373  -4.836  0.00  0.00     0.034 C 
ENDBRANCH  35  36
ENDBRANCH  27  35
ENDBRANCH   1  23
TORSDOF 11
ENDMDL
MODEL 4
REMARK VINA RESULT:    -8.843      3.330     10.775
REMARK INTER + INTRA:         -13.783
REMARK INTER:                 -12.124
REMARK INTRA:                  -1.659
REMARK CONF_INDEPENDENT:        3.281
REMARK UNBOUND:                -1.659
REMARK  11 active torsions:
REMARK  status: ('A' for Active; 'I' for Inactive)
REMARK    1  A    between atoms: C_2  and  O_3 
REMARK    2  A    between atoms: O_3  and  C_4 
REMARK    3  A    between atoms: C_6  and  C_7 
REMARK       I    between atoms: C_7  and  N_9 
REMARK    4  A    between atoms: N_9  and  C_10 
REMARK    5  A    between atoms: C_13  and  C_14 
REMARK    6  A    between atoms: C_14  and  C_15 
REMARK    7  A    between atoms: N_16  and  C_15 
REMARK    8  A    between atoms: C_28  and  O_29 
REMARK    9  A    between atoms: O_29  and  C_30 
REMARK   10  A    between atoms: C_32  and  O_33 
REMARK   11  A    between atoms: O_33  and  C_34 
ROOT
ATOM      1  C   UNL d   1      29.322 -14.150   4.689  0.00  0.00     0.257 C 
ATOM      2  O   UNL d   1      28.466 -14.818   4.157  0.00  0.00    -0.267 OA
ATOM      3  N   UNL d   1      30.609 -13.970   4.143  0.00  0.00    -0.300 N 
ATOM      4  H   UNL d   1      31.381 -13.744   4.756  0.00  0.00     0.171 HD
ENDROOT
BRANCH   3   5
ATOM      5  C   UNL d   1      30.958 -14.639   2.966  0.00  0.00     0.196 C 
ATOM      6  N   UNL d   1      32.097 -15.261   2.739  0.00  0.00    -0.123 NA
ATOM      7  N   UNL d   1      32.128 -15.864   1.472  0.00  0.00    -0.145 NA
ATOM      8  C   UNL d   1      31.070 -15.589   0.718  0.00  0.00     0.102 C 
ATOM      9  S   UNL d   1      29.971 -14.540   1.541  0.00  0.00    -0.033 SA
BRANCH   8  10
ATOM     10  C   UNL d   1      30.899 -16.164  -0.744  0.00  0.00     0.097 C 
BRANCH  10  11
ATOM     11  C   UNL d   1      29.488 -16.684  -1.237  0.00  0.00     0.242 C 
BRANCH  11  12
ATOM     12  N   UNL d   1      28.547 -17.830  -0.202  0.00  0.00    -0.067 N 
ATOM     13  C   UNL d   1      27.030 -18.600   0.607  0.00  0.00     0.240 C 
ATOM     14  C   UNL d   1      25.383 -17.976   0.237  0.00  0.00     0.067 C 
ATOM     15  C   UNL d   1      25.272 -16.774  -0.714  0.00  0.00    -0.049 C 
ATOM     16  C   UNL d   1      24.194 -16.190  -1.354  0.00  0.00     0.007 C 
ATOM     17  C   UNL d   1      26.504 -16.214  -1.024  0.00  0.00    -0.026 C 
ATOM     18  C   UNL d   1      24.449 -15.254  -2.394  0.00  0.00     0.001 C 
ATOM     19  C   UNL d   1      25.732 -14.823  -2.725  0.00  0.00     0.001 C 
ATOM     20  C   UNL d   1      26.770 -15.280  -1.990  0.00  0.00     0.009 C 
ATOM     21  C   UNL d   1      27.607 -16.766  -0.278  0.00  0.00     0.274 C 
ATOM     22  H   UNL d   1      29.186 -17.829   0.604  0.00  0.00     0.280 HD
ENDBRANCH  11  12
ENDBRANCH  10  11
ENDBRANCH   8  10
ENDBRANCH   3   5
BRANCH   1  23
ATOM     23  C   UNL d   1      29.018 -13.566   6.065  0.00  0.00     0.037 A 
ATOM     24  C   UNL d   1      29.025 -14.445   7.189  0.00  0.00     0.057 A 
ATOM     25  C   UNL d   1      28.953 -13.987   8.534  0.00  0.00     0.105 A 
ATOM     26  C   UNL d   1      28.844 -12.586   8.729  0.00  0.00     0.135 A 
ATOM     27  C   UNL d   1      28.754 -11.709   7.607  0.00  0.00     0.105 A 
ATOM     28  C   UNL d   1      28.817 -12.206   6.294  0.00  0.00     0.057 A 
BRANCH  25  29
ATOM     29  O   UNL d   1      29.244 -14.986   9.467  0.00  0.00    -0.349 OA
BRANCH  29  30
ATOM     30  C   UNL d   1      30.533 -15.056  10.083  0.00  0.00     0.171 C 
ATOM     31  C   UNL d   1      31.764 -14.833   9.230  0.00  0.00     0.034 C 
ENDBRANCH  29  30
ENDBRANCH  25  29
BRANCH  26  32
ATOM     32  O   UNL d   1      28.903 -11.862   9.891  0.00  0.00    -0.346 OA
BRANCH  32  33
ATOM     33  C   UNL d   1      28.888 -12.520  11.088  0.00  0.00     0.171 C 
ATOM     34  C   UNL d   1      27.780 -13.401  11.565  0.00  0.00     0.034 C 
ENDBRANCH  32  33
ENDBRANCH  26  32
BRANCH  27  35
ATOM     35  O   UNL d   1      28.662 -10.318   7.672  0.00  0.00    -0.349 OA
BRANCH  35  36
ATOM     36  C   UNL d   1      29.897  -9.590   7.767  0.00  0.00     0.171 C 
ATOM     37  C   UNL d   1      30.417  -9.470   9.169  0.00  0.00     0.034 C 
ENDBRANCH  35  36
ENDBRANCH  27  35
ENDBRANCH   1  23
TORSDOF 11
ENDMDL
MODEL 5
REMARK VINA RESULT:    -8.702      1.937      3.146
REMARK INTER + INTRA:         -13.466
REMARK INTER:                 -11.983
REMARK INTRA:                  -1.483
REMARK CONF_INDEPENDENT:        3.281
REMARK UNBOUND:                -1.483
REMARK  11 active torsions:
REMARK  status: ('A' for Active; 'I' for Inactive)
REMARK    1  A    between atoms: C_2  and  O_3 
REMARK    2  A    between atoms: O_3  and  C_4 
REMARK    3  A    between atoms: C_6  and  C_7 
REMARK       I    between atoms: C_7  and  N_9 
REMARK    4  A    between atoms: N_9  and  C_10 
REMARK    5  A    between atoms: C_13  and  C_14 
REMARK    6  A    between atoms: C_14  and  C_15 
REMARK    7  A    between atoms: N_16  and  C_15 
REMARK    8  A    between atoms: C_28  and  O_29 
REMARK    9  A    between atoms: O_29  and  C_30 
REMARK   10  A    between atoms: C_32  and  O_33 
REMARK   11  A    between atoms: O_33  and  C_34 
ROOT
ATOM      1  C   UNL d   1      27.618 -15.388   0.146  0.00  0.00     0.257 C 
ATOM      2  O   UNL d   1      27.155 -16.297   0.795  0.00  0.00    -0.267 OA
ATOM      3  N   UNL d   1      28.056 -14.177   0.720  0.00  0.00    -0.300 N 
ATOM      4  H   UNL d   1      28.075 -13.339   0.154  0.00  0.00     0.171 HD
ENDROOT
BRANCH   3   5
ATOM      5  C   UNL d   1      27.896 -13.967   2.093  0.00  0.00     0.196 C 
ATOM      6  N   UNL d   1      26.932 -13.273   2.662  0.00  0.00    -0.123 NA
ATOM      7  N   UNL d   1      27.030 -13.278   4.062  0.00  0.00    -0.145 NA
ATOM      8  C   UNL d   1      28.126 -13.869   4.524  0.00  0.00     0.102 C 
ATOM      9  S   UNL d   1      29.118 -14.444   3.230  0.00  0.00    -0.033 SA
BRANCH   8  10
ATOM     10  C   UNL d   1      28.438 -13.989   6.068  0.00  0.00     0.097 C 
BRANCH  10  11
ATOM     11  C   UNL d   1      29.676 -13.228   6.693  0.00  0.00     0.242 C 
BRANCH  11  12
ATOM     12  N   UNL d   1      30.971 -14.168   7.534  0.00  0.00    -0.067 N 
ATOM     13  C   UNL d   1      31.904 -14.939   8.978  0.00  0.00     0.240 C 
ATOM     14  C   UNL d   1      31.268 -14.794  10.656  0.00  0.00     0.067 C 
ATOM     15  C   UNL d   1      29.979 -13.985  10.864  0.00  0.00    -0.049 C 
ATOM     16  C   UNL d   1      29.130 -13.847  11.947  0.00  0.00     0.007 C 
ATOM     17  C   UNL d   1      29.571 -13.314   9.718  0.00  0.00    -0.026 C 
ATOM     18  C   UNL d   1      27.861 -13.240  11.742  0.00  0.00     0.001 C 
ATOM     19  C   UNL d   1      27.477 -12.686  10.521  0.00  0.00     0.001 C 
ATOM     20  C   UNL d   1      28.373 -12.684   9.509  0.00  0.00     0.009 C 
ATOM     21  C   UNL d   1      30.511 -13.385   8.628  0.00  0.00     0.274 C 
ATOM     22  H   UNL d   1      31.767 -13.797   6.999  0.00  0.00     0.280 HD
ENDBRANCH  11  12
ENDBRANCH  10  11
ENDBRANCH   8  10
ENDBRANCH   3   5
BRANCH   1  23
ATOM     23  C   UNL d   1      27.626 -15.528  -1.373  0.00  0.00     0.037 A 
ATOM     24  C   UNL d   1      26.397 -15.353  -2.075  0.00  0.00     0.057 A 
ATOM     25  C   UNL d   1      26.318 -15.265  -3.493  0.00  0.00     0.105 A 
ATOM     26  C   UNL d   1      27.535 -15.385  -4.212  0.00  0.00     0.135 A 
ATOM     27  C   UNL d   1      28.756 -15.643  -3.520  0.00  0.00     0.105 A 
ATOM     28  C   UNL d   1      28.787 -15.736  -2.117  0.00  0.00     0.057 A 
BRANCH  25  29
ATOM     29  O   UNL d   1      25.069 -14.829  -3.943  0.00  0.00    -0.349 OA
BRANCH  29  30
ATOM     30  C   UNL d   1      24.845 -13.450  -4.254  0.00  0.00     0.171 C 
ATOM     31  C   UNL d   1      25.619 -12.395  -3.493  0.00  0.00     0.034 C 
ENDBRANCH  29  30
ENDBRANCH  25  29
BRANCH  26  32
ATOM     32  O   UNL d   1      27.780 -15.198  -5.546  0.00  0.00    -0.346 OA
BRANCH  32  33
ATOM     33  C   UNL d   1      27.840 -13.925  -6.041  0.00  0.00     0.171 C 
ATOM     34  C   UNL d   1      28.810 -13.455  -7.075  0.00  0.00     0.034 C 
ENDBRANCH  32  33
ENDBRANCH  26  32
BRANCH  27  35
ATOM     35  O   UNL d   1      30.013 -15.764  -4.113  0.00  0.00    -0.349 OA
BRANCH  35  36
ATOM     36  C   UNL d   1      30.150 -16.750  -5.149  0.00  0.00     0.171 C 
ATOM     37  C   UNL d   1      30.303 -18.149  -4.630  0.00  0.00     0.034 C 
ENDBRANCH  35  36
ENDBRANCH  27  35
ENDBRANCH   1  23
TORSDOF 11
ENDMDL
MODEL 6
REMARK VINA RESULT:    -8.602      3.423     11.431
REMARK INTER + INTRA:         -13.519
REMARK INTER:                 -11.883
REMARK INTRA:                  -1.636
REMARK CONF_INDEPENDENT:        3.281
REMARK UNBOUND:                -1.636
REMARK  11 active torsions:
REMARK  status: ('A' for Active; 'I' for Inactive)
REMARK    1  A    between atoms: C_2  and  O_3 
REMARK    2  A    between atoms: O_3  and  C_4 
REMARK    3  A    between atoms: C_6  and  C_7 
REMARK       I    between atoms: C_7  and  N_9 
REMARK    4  A    between atoms: N_9  and  C_10 
REMARK    5  A    between atoms: C_13  and  C_14 
REMARK    6  A    between atoms: C_14  and  C_15 
REMARK    7  A    between atoms: N_16  and  C_15 
REMARK    8  A    between atoms: C_28  and  O_29 
REMARK    9  A    between atoms: O_29  and  C_30 
REMARK   10  A    between atoms: C_32  and  O_33 
REMARK   11  A    between atoms: O_33  and  C_34 
ROOT
ATOM      1  C   UNL d   1      29.246 -13.611   5.383  0.00  0.00     0.257 C 
ATOM      2  O   UNL d   1      28.117 -13.961   5.130  0.00  0.00    -0.267 OA
ATOM      3  N   UNL d   1      30.281 -13.596   4.427  0.00  0.00    -0.300 N 
ATOM      4  H   UNL d   1      31.241 -13.667   4.735  0.00  0.00     0.171 HD
ENDROOT
BRANCH   3   5
ATOM      5  C   UNL d   1      30.033 -14.068   3.134  0.00  0.00     0.196 C 
ATOM      6  N   UNL d   1      28.861 -14.096   2.534  0.00  0.00    -0.123 NA
ATOM      7  N   UNL d   1      28.948 -14.597   1.226  0.00  0.00    -0.145 NA
ATOM      8  C   UNL d   1      30.153 -15.050   0.900  0.00  0.00     0.102 C 
ATOM      9  S   UNL d   1      31.257 -14.894   2.221  0.00  0.00    -0.033 SA
BRANCH   8  10
ATOM     10  C   UNL d   1      30.475 -15.656  -0.523  0.00  0.00     0.097 C 
BRANCH  10  11
ATOM     11  C   UNL d   1      29.464 -16.661  -1.209  0.00  0.00     0.242 C 
BRANCH  11  12
ATOM     12  N   UNL d   1      28.538 -17.832  -0.189  0.00  0.00    -0.067 N 
ATOM     13  C   UNL d   1      27.029 -18.636   0.604  0.00  0.00     0.240 C 
ATOM     14  C   UNL d   1      25.374 -18.041   0.225  0.00  0.00     0.067 C 
ATOM     15  C   UNL d   1      25.246 -16.835  -0.718  0.00  0.00    -0.049 C 
ATOM     16  C   UNL d   1      24.163 -16.267  -1.363  0.00  0.00     0.007 C 
ATOM     17  C   UNL d   1      26.470 -16.249  -1.015  0.00  0.00    -0.026 C 
ATOM     18  C   UNL d   1      24.407 -15.319  -2.394  0.00  0.00     0.001 C 
ATOM     19  C   UNL d   1      25.684 -14.862  -2.713  0.00  0.00     0.001 C 
ATOM     20  C   UNL d   1      26.725 -15.304  -1.973  0.00  0.00     0.009 C 
ATOM     21  C   UNL d   1      27.578 -16.786  -0.265  0.00  0.00     0.274 C 
ATOM     22  H   UNL d   1      29.170 -17.825   0.621  0.00  0.00     0.280 HD
ENDBRANCH  11  12
ENDBRANCH  10  11
ENDBRANCH   8  10
ENDBRANCH   3   5
BRANCH   1  23
ATOM     23  C   UNL d   1      29.577 -13.270   6.833  0.00  0.00     0.037 A 
ATOM     24  C   UNL d   1      29.493 -11.907   7.244  0.00  0.00     0.057 A 
ATOM     25  C   UNL d   1      29.585 -11.498   8.604  0.00  0.00     0.105 A 
ATOM     26  C   UNL d   1      29.795 -12.519   9.567  0.00  0.00     0.135 A 
ATOM     27  C   UNL d   1      29.962 -13.874   9.153  0.00  0.00     0.105 A 
ATOM     28  C   UNL d   1      29.876 -14.232   7.797  0.00  0.00     0.057 A 
BRANCH  25  29
ATOM     29  O   UNL d   1      29.210 -10.166   8.799  0.00  0.00    -0.349 OA
BRANCH  29  30
ATOM     30  C   UNL d   1      30.199  -9.135   8.885  0.00  0.00     0.171 C 
ATOM     31  C   UNL d   1      30.031  -8.047   9.924  0.00  0.00     0.034 C 
ENDBRANCH  29  30
ENDBRANCH  25  29
BRANCH  26  32
ATOM     32  O   UNL d   1      29.778 -12.441  10.934  0.00  0.00    -0.346 OA
BRANCH  32  33
ATOM     33  C   UNL d   1      28.585 -12.541  11.593  0.00  0.00     0.171 C 
ATOM     34  C   UNL d   1      27.404 -13.319  11.109  0.00  0.00     0.034 C 
ENDBRANCH  32  33
ENDBRANCH  26  32
BRANCH  27  35
ATOM     35  O   UNL d   1      30.157 -14.962  10.005  0.00  0.00    -0.349 OA
BRANCH  35  36
ATOM     36  C   UNL d   1      31.435 -15.616   9.941  0.00  0.00     0.171 C 
ATOM     37  C   UNL d   1      32.540 -14.838  10.592  0.00  0.00     0.034 C 
ENDBRANCH  35  36
ENDBRANCH  27  35
ENDBRANCH   1  23
TORSDOF 11
ENDMDL
MODEL 7
REMARK VINA RESULT:    -8.323      3.402     11.365
REMARK INTER + INTRA:         -13.365
REMARK INTER:                 -11.604
REMARK INTRA:                  -1.761
REMARK CONF_INDEPENDENT:        3.281
REMARK UNBOUND:                -1.761
REMARK  11 active torsions:
REMARK  status: ('A' for Active; 'I' for Inactive)
REMARK    1  A    between atoms: C_2  and  O_3 
REMARK    2  A    between atoms: O_3  and  C_4 
REMARK    3  A    between atoms: C_6  and  C_7 
REMARK       I    between atoms: C_7  and  N_9 
REMARK    4  A    between atoms: N_9  and  C_10 
REMARK    5  A    between atoms: C_13  and  C_14 
REMARK    6  A    between atoms: C_14  and  C_15 
REMARK    7  A    between atoms: N_16  and  C_15 
REMARK    8  A    between atoms: C_28  and  O_29 
REMARK    9  A    between atoms: O_29  and  C_30 
REMARK   10  A    between atoms: C_32  and  O_33 
REMARK   11  A    between atoms: O_33  and  C_34 
ROOT
ATOM      1  C   UNL d   1      29.198 -13.721   5.545  0.00  0.00     0.257 C 
ATOM      2  O   UNL d   1      28.082 -14.111   5.294  0.00  0.00    -0.267 OA
ATOM      3  N   UNL d   1      30.225 -13.650   4.581  0.00  0.00    -0.300 N 
ATOM      4  H   UNL d   1      31.189 -13.688   4.880  0.00  0.00     0.171 HD
ENDROOT
BRANCH   3   5
ATOM      5  C   UNL d   1      29.984 -14.110   3.282  0.00  0.00     0.196 C 
ATOM      6  N   UNL d   1      28.805 -14.200   2.701  0.00  0.00    -0.123 NA
ATOM      7  N   UNL d   1      28.900 -14.667   1.381  0.00  0.00    -0.145 NA
ATOM      8  C   UNL d   1      30.126 -15.035   1.025  0.00  0.00     0.102 C 
ATOM      9  S   UNL d   1      31.241 -14.837   2.331  0.00  0.00    -0.033 SA
BRANCH   8  10
ATOM     10  C   UNL d   1      30.461 -15.590  -0.416  0.00  0.00     0.097 C 
BRANCH  10  11
ATOM     11  C   UNL d   1      29.467 -16.585  -1.138  0.00  0.00     0.242 C 
BRANCH  11  12
ATOM     12  N   UNL d   1      28.541 -17.791  -0.158  0.00  0.00    -0.067 N 
ATOM     13  C   UNL d   1      27.032 -18.635   0.591  0.00  0.00     0.240 C 
ATOM     14  C   UNL d   1      25.373 -18.060   0.192  0.00  0.00     0.067 C 
ATOM     15  C   UNL d   1      25.244 -16.839  -0.731  0.00  0.00    -0.049 C 
ATOM     16  C   UNL d   1      24.163 -16.277  -1.385  0.00  0.00     0.007 C 
ATOM     17  C   UNL d   1      26.463 -16.228  -0.993  0.00  0.00    -0.026 C 
ATOM     18  C   UNL d   1      24.410 -15.306  -2.394  0.00  0.00     0.001 C 
ATOM     19  C   UNL d   1      25.686 -14.821  -2.680  0.00  0.00     0.001 C 
ATOM     20  C   UNL d   1      26.720 -15.260  -1.929  0.00  0.00     0.009 C 
ATOM     21  C   UNL d   1      27.565 -16.760  -0.232  0.00  0.00     0.274 C 
ATOM     22  H   UNL d   1      29.158 -17.788   0.665  0.00  0.00     0.280 HD
ENDBRANCH  11  12
ENDBRANCH  10  11
ENDBRANCH   8  10
ENDBRANCH   3   5
BRANCH   1  23
ATOM     23  C   UNL d   1      29.529 -13.392   6.998  0.00  0.00     0.037 A 
ATOM     24  C   UNL d   1      30.901 -13.270   7.368  0.00  0.00     0.057 A 
ATOM     25  C   UNL d   1      31.323 -12.776   8.634  0.00  0.00     0.105 A 
ATOM     26  C   UNL d   1      30.305 -12.422   9.556  0.00  0.00     0.135 A 
ATOM     27  C   UNL d   1      28.932 -12.620   9.221  0.00  0.00     0.105 A 
ATOM     28  C   UNL d   1      28.560 -13.122   7.962  0.00  0.00     0.057 A 
BRANCH  25  29
ATOM     29  O   UNL d   1      32.691 -12.492   8.680  0.00  0.00    -0.349 OA
BRANCH  29  30
ATOM     30  C   UNL d   1      33.550 -13.182   9.593  0.00  0.00     0.171 C 
ATOM     31  C   UNL d   1      33.203 -14.600   9.992  0.00  0.00     0.034 C 
ENDBRANCH  29  30
ENDBRANCH  25  29
BRANCH  26  32
ATOM     32  O   UNL d   1      30.409 -11.795  10.769  0.00  0.00    -0.346 OA
BRANCH  32  33
ATOM     33  C   UNL d   1      30.706 -10.462  10.807  0.00  0.00     0.171 C 
ATOM     34  C   UNL d   1      30.790  -9.570   9.610  0.00  0.00     0.034 C 
ENDBRANCH  32  33
ENDBRANCH  26  32
BRANCH  27  35
ATOM     35  O   UNL d   1      27.845 -12.295  10.034  0.00  0.00    -0.349 OA
BRANCH  35  36
ATOM     36  C   UNL d   1      27.744 -12.988  11.289  0.00  0.00     0.171 C 
ATOM     37  C   UNL d   1      28.152 -14.429  11.213  0.00  0.00     0.034 C 
ENDBRANCH  35  36
ENDBRANCH  27  35
ENDBRANCH   1  23
TORSDOF 11
ENDMDL
MODEL 8
REMARK VINA RESULT:    -7.872      3.233     11.290
REMARK INTER + INTRA:         -13.376
REMARK INTER:                 -11.154
REMARK INTRA:                  -2.223
REMARK CONF_INDEPENDENT:        3.281
REMARK UNBOUND:                -2.223
REMARK  11 active torsions:
REMARK  status: ('A' for Active; 'I' for Inactive)
REMARK    1  A    between atoms: C_2  and  O_3 
REMARK    2  A    between atoms: O_3  and  C_4 
REMARK    3  A    between atoms: C_6  and  C_7 
REMARK       I    between atoms: C_7  and  N_9 
REMARK    4  A    between atoms: N_9  and  C_10 
REMARK    5  A    between atoms: C_13  and  C_14 
REMARK    6  A    between atoms: C_14  and  C_15 
REMARK    7  A    between atoms: N_16  and  C_15 
REMARK    8  A    between atoms: C_28  and  O_29 
REMARK    9  A    between atoms: O_29  and  C_30 
REMARK   10  A    between atoms: C_32  and  O_33 
REMARK   11  A    between atoms: O_33  and  C_34 
ROOT
ATOM      1  C   UNL d   1      28.398 -13.399   5.253  0.00  0.00     0.257 C 
ATOM      2  O   UNL d   1      27.777 -14.420   5.074  0.00  0.00    -0.267 OA
ATOM      3  N   UNL d   1      28.769 -12.529   4.208  0.00  0.00    -0.300 N 
ATOM      4  H   UNL d   1      29.569 -11.923   4.328  0.00  0.00     0.171 HD
ENDROOT
BRANCH   3   5
ATOM      5  C   UNL d   1      28.474 -12.874   2.885  0.00  0.00     0.196 C 
ATOM      6  N   UNL d   1      29.251 -13.564   2.075  0.00  0.00    -0.123 NA
ATOM      7  N   UNL d   1      28.655 -13.775   0.822  0.00  0.00    -0.145 NA
ATOM      8  C   UNL d   1      27.497 -13.145   0.662  0.00  0.00     0.102 C 
ATOM      9  S   UNL d   1      27.084 -12.228   2.069  0.00  0.00    -0.033 SA
BRANCH   8  10
ATOM     10  C   UNL d   1      26.654 -13.244  -0.671  0.00  0.00     0.097 C 
BRANCH  10  11
ATOM     11  C   UNL d   1      26.454 -14.640  -1.386  0.00  0.00     0.242 C 
BRANCH  11  12
ATOM     12  N   UNL d   1      27.402 -16.075  -0.825  0.00  0.00    -0.067 N 
ATOM     13  C   UNL d   1      27.701 -17.806  -0.144  0.00  0.00     0.240 C 
ATOM     14  C   UNL d   1      26.314 -18.895   0.220  0.00  0.00     0.067 C 
ATOM     15  C   UNL d   1      24.897 -18.343   0.004  0.00  0.00    -0.049 C 
ATOM     16  C   UNL d   1      23.654 -18.949  -0.013  0.00  0.00     0.007 C 
ATOM     17  C   UNL d   1      24.884 -16.984  -0.284  0.00  0.00    -0.026 C 
ATOM     18  C   UNL d   1      22.547 -18.212  -0.516  0.00  0.00     0.001 C 
ATOM     19  C   UNL d   1      22.639 -16.874  -0.895  0.00  0.00     0.001 C 
ATOM     20  C   UNL d   1      23.822 -16.242  -0.728  0.00  0.00     0.009 C 
ATOM     21  C   UNL d   1      26.171 -16.345  -0.169  0.00  0.00     0.274 C 
ATOM     22  H   UNL d   1      28.112 -15.559  -0.289  0.00  0.00     0.280 HD
ENDBRANCH  11  12
ENDBRANCH  10  11
ENDBRANCH   8  10
ENDBRANCH   3   5
BRANCH   1  23
ATOM     23  C   UNL d   1      28.888 -13.103   6.667  0.00  0.00     0.037 A 
ATOM     24  C   UNL d   1      28.929 -11.743   7.098  0.00  0.00     0.057 A 
ATOM     25  C   UNL d   1      29.176 -11.363   8.446  0.00  0.00     0.105 A 
ATOM     26  C   UNL d   1      29.414 -12.409   9.375  0.00  0.00     0.135 A 
ATOM     27  C   UNL d   1      29.457 -13.765   8.933  0.00  0.00     0.105 A 
ATOM     28  C   UNL d   1      29.219 -14.096   7.588  0.00  0.00     0.057 A 
BRANCH  25  29
ATOM     29  O   UNL d   1      28.905 -10.013   8.691  0.00  0.00    -0.349 OA
BRANCH  29  30
ATOM     30  C   UNL d   1      29.903  -9.015   8.456  0.00  0.00     0.171 C 
ATOM     31  C   UNL d   1      29.743  -8.087   7.271  0.00  0.00     0.034 C 
ENDBRANCH  29  30
ENDBRANCH  25  29
BRANCH  26  32
ATOM     32  O   UNL d   1      29.534 -12.352  10.738  0.00  0.00    -0.346 OA
BRANCH  32  33
ATOM     33  C   UNL d   1      28.448 -12.642  11.515  0.00  0.00     0.171 C 
ATOM     34  C   UNL d   1      28.155 -13.981  12.110  0.00  0.00     0.034 C 
ENDBRANCH  32  33
ENDBRANCH  26  32
BRANCH  27  35
ATOM     35  O   UNL d   1      29.665 -14.877   9.751  0.00  0.00    -0.349 OA
BRANCH  35  36
ATOM     36  C   UNL d   1      31.029 -15.222  10.043  0.00  0.00     0.171 C 
ATOM     37  C   UNL d   1      31.205 -15.904  11.367  0.00  0.00     0.034 C 
ENDBRANCH  35  36
ENDBRANCH  27  35
ENDBRANCH   1  23
TORSDOF 11
ENDMDL
MODEL 9
REMARK VINA RESULT:    -7.653      3.274     10.935
REMARK INTER + INTRA:         -13.356
REMARK INTER:                 -10.934
REMARK INTRA:                  -2.421
REMARK CONF_INDEPENDENT:        3.281
REMARK UNBOUND:                -2.421
REMARK  11 active torsions:
REMARK  status: ('A' for Active; 'I' for Inactive)
REMARK    1  A    between atoms: C_2  and  O_3 
REMARK    2  A    between atoms: O_3  and  C_4 
REMARK    3  A    between atoms: C_6  and  C_7 
REMARK       I    between atoms: C_7  and  N_9 
REMARK    4  A    between atoms: N_9  and  C_10 
REMARK    5  A    between atoms: C_13  and  C_14 
REMARK    6  A    between atoms: C_14  and  C_15 
REMARK    7  A    between atoms: N_16  and  C_15 
REMARK    8  A    between atoms: C_28  and  O_29 
REMARK    9  A    between atoms: O_29  and  C_30 
REMARK   10  A    between atoms: C_32  and  O_33 
REMARK   11  A    between atoms: O_33  and  C_34 
ROOT
ATOM      1  C   UNL d   1      28.049 -13.472   5.353  0.00  0.00     0.257 C 
ATOM      2  O   UNL d   1      27.759 -14.628   5.151  0.00  0.00    -0.267 OA
ATOM      3  N   UNL d   1      28.159 -12.513   4.325  0.00  0.00    -0.300 N 
ATOM      4  H   UNL d   1      28.745 -11.701   4.465  0.00  0.00     0.171 HD
ENDROOT
BRANCH   3   5
ATOM      5  C   UNL d   1      27.994 -12.909   2.994  0.00  0.00     0.196 C 
ATOM      6  N   UNL d   1      28.737 -13.786   2.351  0.00  0.00    -0.123 NA
ATOM      7  N   UNL d   1      28.295 -13.991   1.035  0.00  0.00    -0.145 NA
ATOM      8  C   UNL d   1      27.306 -13.184   0.666  0.00  0.00     0.102 C 
ATOM      9  S   UNL d   1      26.877 -12.099   1.941  0.00  0.00    -0.033 SA
BRANCH   8  10
ATOM     10  C   UNL d   1      26.656 -13.243  -0.773  0.00  0.00     0.097 C 
BRANCH  10  11
ATOM     11  C   UNL d   1      26.671 -14.591  -1.601  0.00  0.00     0.242 C 
BRANCH  11  12
ATOM     12  N   UNL d   1      27.618 -16.004  -0.989  0.00  0.00    -0.067 N 
ATOM     13  C   UNL d   1      27.917 -17.701  -0.225  0.00  0.00     0.240 C 
ATOM     14  C   UNL d   1      26.530 -18.752   0.233  0.00  0.00     0.067 C 
ATOM     15  C   UNL d   1      25.113 -18.196   0.024  0.00  0.00    -0.049 C 
ATOM     16  C   UNL d   1      23.864 -18.788   0.071  0.00  0.00     0.007 C 
ATOM     17  C   UNL d   1      25.106 -16.854  -0.336  0.00  0.00    -0.026 C 
ATOM     18  C   UNL d   1      22.751 -18.066  -0.442  0.00  0.00     0.001 C 
ATOM     19  C   UNL d   1      22.847 -16.751  -0.894  0.00  0.00     0.001 C 
ATOM     20  C   UNL d   1      24.040 -16.124  -0.792  0.00  0.00     0.009 C 
ATOM     21  C   UNL d   1      26.402 -16.225  -0.288  0.00  0.00     0.274 C 
ATOM     22  H   UNL d   1      28.347 -15.469  -0.500  0.00  0.00     0.280 HD
ENDBRANCH  11  12
ENDBRANCH  10  11
ENDBRANCH   8  10
ENDBRANCH   3   5
BRANCH   1  23
ATOM     23  C   UNL d   1      28.414 -13.068   6.779  0.00  0.00     0.037 A 
ATOM     24  C   UNL d   1      28.905 -14.074   7.663  0.00  0.00     0.057 A 
ATOM     25  C   UNL d   1      29.459 -13.783   8.940  0.00  0.00     0.105 A 
ATOM     26  C   UNL d   1      29.487 -12.420   9.332  0.00  0.00     0.135 A 
ATOM     27  C   UNL d   1      28.922 -11.418   8.487  0.00  0.00     0.105 A 
ATOM     28  C   UNL d   1      28.373 -11.752   7.236  0.00  0.00     0.057 A 
BRANCH  25  29
ATOM     29  O   UNL d   1      30.114 -14.877   9.512  0.00  0.00    -0.349 OA
BRANCH  29  30
ATOM     30  C   UNL d   1      31.542 -14.965   9.494  0.00  0.00     0.171 C 
ATOM     31  C   UNL d   1      32.344 -13.744   9.096  0.00  0.00     0.034 C 
ENDBRANCH  29  30
ENDBRANCH  25  29
BRANCH  26  32
ATOM     32  O   UNL d   1      30.081 -11.839  10.420  0.00  0.00    -0.346 OA
BRANCH  32  33
ATOM     33  C   UNL d   1      29.828 -12.342  11.665  0.00  0.00     0.171 C 
ATOM     34  C   UNL d   1      28.478 -12.735  12.170  0.00  0.00     0.034 C 
ENDBRANCH  32  33
ENDBRANCH  26  32
BRANCH  27  35
ATOM     35  O   UNL d   1      28.905 -10.048   8.755  0.00  0.00    -0.349 OA
BRANCH  35  36
ATOM     36  C   UNL d   1      29.932  -9.254   8.139  0.00  0.00     0.171 C 
ATOM     37  C   UNL d   1      31.316  -9.787   8.360  0.00  0.00     0.034 C 
ENDBRANCH  35  36
ENDBRANCH  27  35
ENDBRANCH   1  23
TORSDOF 11
ENDMDL
