MODEL 1
REMARK VINA RESULT:   -11.593      0.000      0.000
REMARK INTER + INTRA:         -20.831
REMARK INTER:                 -16.366
REMARK INTRA:                  -4.465
REMARK CONF_INDEPENDENT:        4.773
REMARK UNBOUND:                -4.465
REMARK  16 active torsions:
REMARK  status: ('A' for Active; 'I' for Inactive)
REMARK    1  A    between atoms: C_2  and  C_4 
REMARK    2  A    between atoms: C_6  and  C_7 
REMARK    3  A    between atoms: C_7  and  N_8 
REMARK       I    between atoms: N_8  and  C_10 
REMARK       I    between atoms: C_10  and  N_12 
REMARK    4  A    between atoms: C_13  and  N_12 
REMARK    5  A    between atoms: C_13  and  C_37 
REMARK    6  A    between atoms: C_13  and  C_14 
REMARK       I    between atoms: C_14  and  N_16 
REMARK    7  A    between atoms: N_16  and  C_17 
REMARK    8  A    between atoms: C_17  and  C_18 
REMARK    9  A    between atoms: C_17  and  C_25 
REMARK   10  A    between atoms: C_18  and  C_19 
REMARK   11  A    between atoms: C_26  and  C_25 
REMARK   12  A    between atoms: C_26  and  C_28 
REMARK   13  A    between atoms: C_26  and  O_27 
REMARK   14  A    between atoms: C_28  and  N_29 
REMARK   15  A    between atoms: C_28  and  C_30 
REMARK   16  A    between atoms: C_30  and  C_31 
ROOT
ATOM      1  C   UNL d   1      25.907 -15.489  -0.611  0.00  0.00     0.091 C 
ENDROOT
BRANCH   1   2
ATOM      2  N   UNL d   1      26.556 -14.608  -1.567  0.00  0.00    -0.354 N 
ATOM      3  C   UNL d   1      26.161 -14.396  -2.869  0.00  0.00     0.241 C 
ATOM      4  O   UNL d   1      25.174 -14.816  -3.390  0.00  0.00    -0.271 OA
ATOM      5  H   UNL d   1      27.109 -13.862  -1.187  0.00  0.00     0.162 HD
BRANCH   3   6
ATOM      6  C   UNL d   1      27.102 -13.598  -3.740  0.00  0.00     0.181 C 
BRANCH   6   7
ATOM      7  C   UNL d   1      26.977 -12.048  -3.744  0.00  0.00     0.009 C 
ATOM      8  C   UNL d   1      25.903 -11.638  -4.772  0.00  0.00     0.012 C 
ATOM      9  C   UNL d   1      26.669 -11.356  -2.392  0.00  0.00     0.012 C 
ENDBRANCH   6   7
BRANCH   6  10
ATOM     10  N   UNL d   1      27.093 -14.222  -5.054  0.00  0.00    -0.329 N 
ATOM     11  C   UNL d   1      28.089 -14.851  -5.735  0.00  0.00     0.319 C 
ATOM     12  N   UNL d   1      29.337 -14.997  -5.136  0.00  0.00    -0.333 N 
ATOM     13  O   UNL d   1      27.843 -15.199  -6.890  0.00  0.00    -0.247 OA
ATOM     14  C   UNL d   1      29.502 -15.048  -3.688  0.00  0.00     0.154 C 
ATOM     15  H   UNL d   1      26.181 -14.348  -5.486  0.00  0.00     0.165 HD
BRANCH  12  16
ATOM     16  C   UNL d   1      30.444 -15.448  -6.010  0.00  0.00     0.186 C 
BRANCH  16  17
ATOM     17  C   UNL d   1      30.525 -16.949  -6.244  0.00  0.00     0.060 C 
ATOM     18  N   UNL d   1      30.895 -17.438  -7.476  0.00  0.00    -0.248 NA
ATOM     19  C   UNL d   1      31.162 -18.713  -7.512  0.00  0.00     0.078 C 
ATOM     20  S   UNL d   1      30.634 -19.508  -6.091  0.00  0.00    -0.084 SA
ATOM     21  C   UNL d   1      30.219 -17.980  -5.381  0.00  0.00     0.080 C 
BRANCH  19  22
ATOM     22  C   UNL d   1      31.811 -19.331  -8.737  0.00  0.00     0.037 C 
ATOM     23  C   UNL d   1      30.782 -20.003  -9.656  0.00  0.00     0.016 C 
ATOM     24  C   UNL d   1      32.663 -18.343  -9.511  0.00  0.00     0.016 C 
ENDBRANCH  19  22
ENDBRANCH  16  17
ENDBRANCH  12  16
ENDBRANCH   6  10
ENDBRANCH   3   6
ENDBRANCH   1   2
BRANCH   1  25
ATOM     25  C   UNL d   1      25.547 -16.872  -1.207  0.00  0.00     0.063 C 
BRANCH  25  26
ATOM     26  C   UNL d   1      24.187 -17.402  -0.838  0.00  0.00    -0.056 C 
ATOM     27  C   UNL d   1      23.034 -16.609  -0.895  0.00  0.00     0.007 C 
ATOM     28  C   UNL d   1      21.770 -17.201  -0.895  0.00  0.00     0.001 C 
ATOM     29  C   UNL d   1      21.649 -18.567  -0.686  0.00  0.00     0.000 C 
ATOM     30  C   UNL d   1      22.788 -19.330  -0.440  0.00  0.00     0.001 C 
ATOM     31  C   UNL d   1      24.054 -18.757  -0.534  0.00  0.00     0.007 C 
ENDBRANCH  25  26
ENDBRANCH   1  25
BRANCH   1  32
ATOM     32  C   UNL d   1      26.865 -15.737   0.562  0.00  0.00     0.059 C 
BRANCH  32  33
ATOM     33  C   UNL d   1      27.579 -14.464   1.010  0.00  0.00     0.150 C 
BRANCH  33  34
ATOM     34  C   UNL d   1      28.018 -14.533   2.476  0.00  0.00     0.216 C 
BRANCH  34  35
ATOM     35  N   UNL d   1      29.491 -14.826   2.441  0.00  0.00    -0.072 N 
ATOM     36  H   UNL d   1      29.718 -15.555   1.753  0.00  0.00     0.274 HD
ATOM     37  H   UNL d   1      29.801 -15.190   3.355  0.00  0.00     0.274 HD
ATOM     38  H   UNL d   1      30.039 -13.980   2.240  0.00  0.00     0.274 HD
ENDBRANCH  34  35
BRANCH  34  39
ATOM     39  C   UNL d   1      27.699 -13.249   3.232  0.00  0.00     0.074 C 
BRANCH  39  40
ATOM     40  C   UNL d   1      28.190 -13.245   4.647  0.00  0.00    -0.056 A 
ATOM     41  C   UNL d   1      28.659 -14.424   5.234  0.00  0.00     0.007 A 
ATOM     42  C   UNL d   1      28.903 -14.451   6.604  0.00  0.00     0.001 A 
ATOM     43  C   UNL d   1      28.814 -13.279   7.356  0.00  0.00     0.000 A 
ATOM     44  C   UNL d   1      28.431 -12.086   6.757  0.00  0.00     0.001 A 
ATOM     45  C   UNL d   1      28.073 -12.084   5.421  0.00  0.00     0.007 A 
ENDBRANCH  39  40
ENDBRANCH  34  39
ENDBRANCH  33  34
BRANCH  33  46
ATOM     46  O   UNL d   1      28.779 -14.220   0.255  0.00  0.00    -0.393 OA
ATOM     47  H   UNL d   1      28.541 -13.875  -0.627  0.00  0.00     0.210 HD
ENDBRANCH  33  46
ENDBRANCH  32  33
ENDBRANCH   1  32
TORSDOF 16
ENDMDL
MODEL 2
REMARK VINA RESULT:   -11.291      1.404      5.194
REMARK INTER + INTRA:         -20.711
REMARK INTER:                 -16.064
REMARK INTRA:                  -4.647
REMARK CONF_INDEPENDENT:        4.773
REMARK UNBOUND:                -4.647
REMARK  16 active torsions:
REMARK  status: ('A' for Active; 'I' for Inactive)
REMARK    1  A    between atoms: C_2  and  C_4 
REMARK    2  A    between atoms: C_6  and  C_7 
REMARK    3  A    between atoms: C_7  and  N_8 
REMARK       I    between atoms: N_8  and  C_10 
REMARK       I    between atoms: C_10  and  N_12 
REMARK    4  A    between atoms: C_13  and  N_12 
REMARK    5  A    between atoms: C_13  and  C_37 
REMARK    6  A    between atoms: C_13  and  C_14 
REMARK       I    between atoms: C_14  and  N_16 
REMARK    7  A    between atoms: N_16  and  C_17 
REMARK    8  A    between atoms: C_17  and  C_18 
REMARK    9  A    between atoms: C_17  and  C_25 
REMARK   10  A    between atoms: C_18  and  C_19 
REMARK   11  A    between atoms: C_26  and  C_25 
REMARK   12  A    between atoms: C_26  and  C_28 
REMARK   13  A    between atoms: C_26  and  O_27 
REMARK   14  A    between atoms: C_28  and  N_29 
REMARK   15  A    between atoms: C_28  and  C_30 
REMARK   16  A    between atoms: C_30  and  C_31 
ROOT
ATOM      1  C   UNL d   1      27.498 -13.210   0.314  0.00  0.00     0.091 C 
ENDROOT
BRANCH   1   2
ATOM      2  N   UNL d   1      27.389 -12.790  -1.072  0.00  0.00    -0.354 N 
ATOM      3  C   UNL d   1      26.457 -13.236  -1.982  0.00  0.00     0.241 C 
ATOM      4  O   UNL d   1      25.533 -13.956  -1.759  0.00  0.00    -0.271 OA
ATOM      5  H   UNL d   1      27.781 -11.895  -1.302  0.00  0.00     0.162 HD
BRANCH   3   6
ATOM      6  C   UNL d   1      26.660 -12.817  -3.419  0.00  0.00     0.181 C 
BRANCH   6   7
ATOM      7  C   UNL d   1      25.995 -11.500  -3.910  0.00  0.00     0.009 C 
ATOM      8  C   UNL d   1      26.402 -10.353  -2.963  0.00  0.00     0.012 C 
ATOM      9  C   UNL d   1      26.268 -11.067  -5.372  0.00  0.00     0.012 C 
ENDBRANCH   6   7
BRANCH   6  10
ATOM     10  N   UNL d   1      26.394 -13.988  -4.242  0.00  0.00    -0.329 N 
ATOM     11  C   UNL d   1      27.215 -14.675  -5.082  0.00  0.00     0.319 C 
ATOM     12  N   UNL d   1      28.547 -14.286  -5.204  0.00  0.00    -0.333 N 
ATOM     13  O   UNL d   1      26.704 -15.575  -5.750  0.00  0.00    -0.247 OA
ATOM     14  C   UNL d   1      29.257 -13.602  -4.130  0.00  0.00     0.154 C 
ATOM     15  H   UNL d   1      25.515 -14.467  -4.070  0.00  0.00     0.165 HD
BRANCH  12  16
ATOM     16  C   UNL d   1      29.316 -14.894  -6.312  0.00  0.00     0.186 C 
BRANCH  16  17
ATOM     17  C   UNL d   1      29.869 -16.285  -6.041  0.00  0.00     0.060 C 
ATOM     18  N   UNL d   1      30.404 -17.030  -7.068  0.00  0.00    -0.248 NA
ATOM     19  C   UNL d   1      31.058 -18.095  -6.701  0.00  0.00     0.078 C 
ATOM     20  S   UNL d   1      30.772 -18.476  -5.057  0.00  0.00    -0.084 SA
ATOM     21  C   UNL d   1      29.882 -17.000  -4.862  0.00  0.00     0.080 C 
BRANCH  19  22
ATOM     22  C   UNL d   1      31.898 -18.867  -7.703  0.00  0.00     0.037 C 
ATOM     23  C   UNL d   1      31.142 -20.073  -8.278  0.00  0.00     0.016 C 
ATOM     24  C   UNL d   1      32.440 -17.989  -8.814  0.00  0.00     0.016 C 
ENDBRANCH  19  22
ENDBRANCH  16  17
ENDBRANCH  12  16
ENDBRANCH   6  10
ENDBRANCH   3   6
ENDBRANCH   1   2
BRANCH   1  25
ATOM     25  C   UNL d   1      26.670 -12.331   1.282  0.00  0.00     0.063 C 
BRANCH  25  26
ATOM     26  C   UNL d   1      27.032 -12.451   2.738  0.00  0.00    -0.056 C 
ATOM     27  C   UNL d   1      27.032 -13.680   3.409  0.00  0.00     0.007 C 
ATOM     28  C   UNL d   1      27.698 -13.818   4.629  0.00  0.00     0.001 C 
ATOM     29  C   UNL d   1      28.233 -12.701   5.251  0.00  0.00     0.000 C 
ATOM     30  C   UNL d   1      28.068 -11.444   4.674  0.00  0.00     0.001 C 
ATOM     31  C   UNL d   1      27.488 -11.319   3.414  0.00  0.00     0.007 C 
ENDBRANCH  25  26
ENDBRANCH   1  25
BRANCH   1  32
ATOM     32  C   UNL d   1      26.965 -14.645   0.439  0.00  0.00     0.059 C 
BRANCH  32  33
ATOM     33  C   UNL d   1      28.012 -15.610   0.989  0.00  0.00     0.150 C 
BRANCH  33  34
ATOM     34  C   UNL d   1      28.329 -16.741   0.006  0.00  0.00     0.216 C 
BRANCH  34  35
ATOM     35  N   UNL d   1      29.776 -17.074   0.230  0.00  0.00    -0.072 N 
ATOM     36  H   UNL d   1      29.993 -18.040  -0.051  0.00  0.00     0.274 HD
ATOM     37  H   UNL d   1      30.002 -17.013   1.235  0.00  0.00     0.274 HD
ATOM     38  H   UNL d   1      30.396 -16.423  -0.268  0.00  0.00     0.274 HD
ENDBRANCH  34  35
BRANCH  34  39
ATOM     39  C   UNL d   1      27.417 -17.946   0.203  0.00  0.00     0.074 C 
BRANCH  39  40
ATOM     40  C   UNL d   1      25.993 -17.693  -0.181  0.00  0.00    -0.056 A 
ATOM     41  C   UNL d   1      24.950 -18.199   0.601  0.00  0.00     0.007 A 
ATOM     42  C   UNL d   1      23.647 -18.144   0.116  0.00  0.00     0.001 A 
ATOM     43  C   UNL d   1      23.368 -17.468  -1.071  0.00  0.00     0.000 A 
ATOM     44  C   UNL d   1      24.393 -16.889  -1.808  0.00  0.00     0.001 A 
ATOM     45  C   UNL d   1      25.702 -17.047  -1.388  0.00  0.00     0.007 A 
ENDBRANCH  39  40
ENDBRANCH  34  39
ENDBRANCH  33  34
BRANCH  33  46
ATOM     46  O   UNL d   1      29.268 -14.956   1.249  0.00  0.00    -0.393 OA
ATOM     47  H   UNL d   1      29.634 -15.285   2.093  0.00  0.00     0.210 HD
ENDBRANCH  33  46
ENDBRANCH  32  33
ENDBRANCH   1  32
TORSDOF 16
ENDMDL
MODEL 3
REMARK VINA RESULT:   -10.227      4.067     10.543
REMARK INTER + INTRA:         -20.782
REMARK INTER:                 -15.000
REMARK INTRA:                  -5.782
REMARK CONF_INDEPENDENT:        4.773
REMARK UNBOUND:                -5.782
REMARK  16 active torsions:
REMARK  status: ('A' for Active; 'I' for Inactive)
REMARK    1  A    between atoms: C_2  and  C_4 
REMARK    2  A    between atoms: C_6  and  C_7 
REMARK    3  A    between atoms: C_7  and  N_8 
REMARK       I    between atoms: N_8  and  C_10 
REMARK       I    between atoms: C_10  and  N_12 
REMARK    4  A    between atoms: C_13  and  N_12 
REMARK    5  A    between atoms: C_13  and  C_37 
REMARK    6  A    between atoms: C_13  and  C_14 
REMARK       I    between atoms: C_14  and  N_16 
REMARK    7  A    between atoms: N_16  and  C_17 
REMARK    8  A    between atoms: C_17  and  C_18 
REMARK    9  A    between atoms: C_17  and  C_25 
REMARK   10  A    between atoms: C_18  and  C_19 
REMARK   11  A    between atoms: C_26  and  C_25 
REMARK   12  A    between atoms: C_26  and  C_28 
REMARK   13  A    between atoms: C_26  and  O_27 
REMARK   14  A    between atoms: C_28  and  N_29 
REMARK   15  A    between atoms: C_28  and  C_30 
REMARK   16  A    between atoms: C_30  and  C_31 
ROOT
ATOM      1  C   UNL d   1      26.362 -15.949  -0.157  0.00  0.00     0.091 C 
ENDROOT
BRANCH   1   2
ATOM      2  N   UNL d   1      26.653 -14.921   0.826  0.00  0.00    -0.354 N 
ATOM      3  C   UNL d   1      27.888 -14.649   1.371  0.00  0.00     0.241 C 
ATOM      4  O   UNL d   1      28.928 -15.139   1.055  0.00  0.00    -0.271 OA
ATOM      5  H   UNL d   1      26.014 -14.148   0.871  0.00  0.00     0.162 HD
BRANCH   3   6
ATOM      6  C   UNL d   1      27.919 -13.674   2.524  0.00  0.00     0.181 C 
BRANCH   6   7
ATOM      7  C   UNL d   1      27.072 -12.374   2.421  0.00  0.00     0.009 C 
ATOM      8  C   UNL d   1      27.560 -11.374   3.489  0.00  0.00     0.012 C 
ATOM      9  C   UNL d   1      27.029 -11.660   1.047  0.00  0.00     0.012 C 
ENDBRANCH   6   7
BRANCH   6  10
ATOM     10  N   UNL d   1      29.318 -13.473   2.870  0.00  0.00    -0.329 N 
ATOM     11  C   UNL d   1      29.966 -13.657   4.053  0.00  0.00     0.319 C 
ATOM     12  N   UNL d   1      29.259 -14.148   5.148  0.00  0.00    -0.333 N 
ATOM     13  O   UNL d   1      31.145 -13.305   4.105  0.00  0.00    -0.247 OA
ATOM     14  C   UNL d   1      28.079 -14.990   4.996  0.00  0.00     0.154 C 
ATOM     15  H   UNL d   1      29.954 -13.312   2.094  0.00  0.00     0.165 HD
BRANCH  12  16
ATOM     16  C   UNL d   1      29.940 -14.080   6.461  0.00  0.00     0.186 C 
BRANCH  16  17
ATOM     17  C   UNL d   1      29.436 -13.000   7.406  0.00  0.00     0.060 C 
ATOM     18  N   UNL d   1      28.794 -13.346   8.573  0.00  0.00    -0.248 NA
ATOM     19  C   UNL d   1      28.613 -12.372   9.419  0.00  0.00     0.078 C 
ATOM     20  S   UNL d   1      28.904 -10.848   8.697  0.00  0.00    -0.084 SA
ATOM     21  C   UNL d   1      29.473 -11.630   7.256  0.00  0.00     0.080 C 
BRANCH  19  22
ATOM     22  C   UNL d   1      28.142 -12.657  10.834  0.00  0.00     0.037 C 
ATOM     23  C   UNL d   1      27.780 -14.135  11.032  0.00  0.00     0.016 C 
ATOM     24  C   UNL d   1      29.134 -12.198  11.886  0.00  0.00     0.016 C 
ENDBRANCH  19  22
ENDBRANCH  16  17
ENDBRANCH  12  16
ENDBRANCH   6  10
ENDBRANCH   3   6
ENDBRANCH   1   2
BRANCH   1  25
ATOM     25  C   UNL d   1      25.030 -15.711  -0.909  0.00  0.00     0.063 C 
BRANCH  25  26
ATOM     26  C   UNL d   1      24.077 -16.875  -0.925  0.00  0.00    -0.056 C 
ATOM     27  C   UNL d   1      24.518 -18.203  -0.858  0.00  0.00     0.007 C 
ATOM     28  C   UNL d   1      23.628 -19.226  -0.522  0.00  0.00     0.001 C 
ATOM     29  C   UNL d   1      22.275 -18.949  -0.401  0.00  0.00     0.000 C 
ATOM     30  C   UNL d   1      21.809 -17.661  -0.653  0.00  0.00     0.001 C 
ATOM     31  C   UNL d   1      22.706 -16.623  -0.896  0.00  0.00     0.007 C 
ENDBRANCH  25  26
ENDBRANCH   1  25
BRANCH   1  32
ATOM     32  C   UNL d   1      27.480 -15.958  -1.209  0.00  0.00     0.059 C 
BRANCH  32  33
ATOM     33  C   UNL d   1      28.404 -17.165  -1.067  0.00  0.00     0.150 C 
BRANCH  33  34
ATOM     34  C   UNL d   1      29.883 -16.769  -1.107  0.00  0.00     0.216 C 
BRANCH  34  35
ATOM     35  N   UNL d   1      30.423 -17.094   0.257  0.00  0.00    -0.072 N 
ATOM     36  H   UNL d   1      30.381 -18.102   0.454  0.00  0.00     0.274 HD
ATOM     37  H   UNL d   1      29.848 -16.637   0.983  0.00  0.00     0.274 HD
ATOM     38  H   UNL d   1      31.389 -16.761   0.370  0.00  0.00     0.274 HD
ENDBRANCH  34  35
BRANCH  34  39
ATOM     39  C   UNL d   1      30.640 -17.487  -2.218  0.00  0.00     0.074 C 
BRANCH  39  40
ATOM     40  C   UNL d   1      30.241 -17.057  -3.595  0.00  0.00    -0.056 A 
ATOM     41  C   UNL d   1      30.594 -17.828  -4.706  0.00  0.00     0.007 A 
ATOM     42  C   UNL d   1      30.409 -17.306  -5.983  0.00  0.00     0.001 A 
ATOM     43  C   UNL d   1      29.750 -16.089  -6.155  0.00  0.00     0.000 A 
ATOM     44  C   UNL d   1      29.320 -15.360  -5.054  0.00  0.00     0.001 A 
ATOM     45  C   UNL d   1      29.611 -15.820  -3.782  0.00  0.00     0.007 A 
ENDBRANCH  39  40
ENDBRANCH  34  39
ENDBRANCH  33  34
BRANCH  33  46
ATOM     46  O   UNL d   1      28.217 -17.847   0.187  0.00  0.00    -0.393 OA
ATOM     47  H   UNL d   1      28.360 -17.217   0.921  0.00  0.00     0.210 HD
ENDBRANCH  33  46
ENDBRANCH  32  33
ENDBRANCH   1  32
TORSDOF 16
ENDMDL
MODEL 4
REMARK VINA RESULT:    -9.929      4.387     10.058
REMARK INTER + INTRA:         -20.758
REMARK INTER:                 -14.702
REMARK INTRA:                  -6.056
REMARK CONF_INDEPENDENT:        4.773
REMARK UNBOUND:                -6.056
REMARK  16 active torsions:
REMARK  status: ('A' for Active; 'I' for Inactive)
REMARK    1  A    between atoms: C_2  and  C_4 
REMARK    2  A    between atoms: C_6  and  C_7 
REMARK    3  A    between atoms: C_7  and  N_8 
REMARK       I    between atoms: N_8  and  C_10 
REMARK       I    between atoms: C_10  and  N_12 
REMARK    4  A    between atoms: C_13  and  N_12 
REMARK    5  A    between atoms: C_13  and  C_37 
REMARK    6  A    between atoms: C_13  and  C_14 
REMARK       I    between atoms: C_14  and  N_16 
REMARK    7  A    between atoms: N_16  and  C_17 
REMARK    8  A    between atoms: C_17  and  C_18 
REMARK    9  A    between atoms: C_17  and  C_25 
REMARK   10  A    between atoms: C_18  and  C_19 
REMARK   11  A    between atoms: C_26  and  C_25 
REMARK   12  A    between atoms: C_26  and  C_28 
REMARK   13  A    between atoms: C_26  and  O_27 
REMARK   14  A    between atoms: C_28  and  N_29 
REMARK   15  A    between atoms: C_28  and  C_30 
REMARK   16  A    between atoms: C_30  and  C_31 
ROOT
ATOM      1  C   UNL d   1      27.210 -16.729   0.353  0.00  0.00     0.091 C 
ENDROOT
BRANCH   1   2
ATOM      2  N   UNL d   1      27.782 -15.654   1.146  0.00  0.00    -0.354 N 
ATOM      3  C   UNL d   1      27.211 -14.421   1.368  0.00  0.00     0.241 C 
ATOM      4  O   UNL d   1      26.121 -14.072   1.035  0.00  0.00    -0.271 OA
ATOM      5  H   UNL d   1      28.454 -15.919   1.843  0.00  0.00     0.162 HD
BRANCH   3   6
ATOM      6  C   UNL d   1      28.076 -13.389   2.052  0.00  0.00     0.181 C 
BRANCH   6   7
ATOM      7  C   UNL d   1      28.186 -11.974   1.418  0.00  0.00     0.009 C 
ATOM      8  C   UNL d   1      27.775 -12.059  -0.066  0.00  0.00     0.012 C 
ATOM      9  C   UNL d   1      27.392 -10.828   2.094  0.00  0.00     0.012 C 
ENDBRANCH   6   7
BRANCH   6  10
ATOM     10  N   UNL d   1      29.347 -14.034   2.350  0.00  0.00    -0.329 N 
ATOM     11  C   UNL d   1      29.876 -14.424   3.541  0.00  0.00     0.319 C 
ATOM     12  N   UNL d   1      29.133 -14.252   4.706  0.00  0.00    -0.333 N 
ATOM     13  O   UNL d   1      31.030 -14.852   3.527  0.00  0.00    -0.247 OA
ATOM     14  C   UNL d   1      27.675 -14.222   4.700  0.00  0.00     0.154 C 
ATOM     15  H   UNL d   1      29.871 -14.385   1.552  0.00  0.00     0.165 HD
BRANCH  12  16
ATOM     16  C   UNL d   1      29.850 -14.449   5.986  0.00  0.00     0.186 C 
BRANCH  16  17
ATOM     17  C   UNL d   1      29.285 -13.693   7.179  0.00  0.00     0.060 C 
ATOM     18  N   UNL d   1      28.905 -14.373   8.313  0.00  0.00    -0.248 NA
ATOM     19  C   UNL d   1      28.660 -13.628   9.353  0.00  0.00     0.078 C 
ATOM     20  S   UNL d   1      28.529 -11.976   8.928  0.00  0.00    -0.084 SA
ATOM     21  C   UNL d   1      29.023 -12.345   7.307  0.00  0.00     0.080 C 
BRANCH  19  22
ATOM     22  C   UNL d   1      28.471 -14.255  10.723  0.00  0.00     0.037 C 
ATOM     23  C   UNL d   1      29.670 -15.122  11.129  0.00  0.00     0.016 C 
ATOM     24  C   UNL d   1      28.155 -13.232  11.798  0.00  0.00     0.016 C 
ENDBRANCH  19  22
ENDBRANCH  16  17
ENDBRANCH  12  16
ENDBRANCH   6  10
ENDBRANCH   3   6
ENDBRANCH   1   2
BRANCH   1  25
ATOM     25  C   UNL d   1      26.186 -16.231  -0.696  0.00  0.00     0.063 C 
BRANCH  25  26
ATOM     26  C   UNL d   1      24.897 -17.004  -0.761  0.00  0.00    -0.056 C 
ATOM     27  C   UNL d   1      24.819 -18.359  -0.415  0.00  0.00     0.007 C 
ATOM     28  C   UNL d   1      23.582 -18.949  -0.145  0.00  0.00     0.001 C 
ATOM     29  C   UNL d   1      22.415 -18.233  -0.367  0.00  0.00     0.000 C 
ATOM     30  C   UNL d   1      22.486 -16.945  -0.893  0.00  0.00     0.001 C 
ATOM     31  C   UNL d   1      23.719 -16.324  -1.073  0.00  0.00     0.007 C 
ENDBRANCH  25  26
ENDBRANCH   1  25
BRANCH   1  32
ATOM     32  C   UNL d   1      28.339 -17.432  -0.414  0.00  0.00     0.059 C 
BRANCH  32  33
ATOM     33  C   UNL d   1      29.523 -16.507  -0.684  0.00  0.00     0.150 C 
BRANCH  33  34
ATOM     34  C   UNL d   1      29.087 -15.180  -1.314  0.00  0.00     0.216 C 
BRANCH  34  35
ATOM     35  N   UNL d   1      30.102 -14.169  -0.863  0.00  0.00    -0.072 N 
ATOM     36  H   UNL d   1      30.175 -13.383  -1.523  0.00  0.00     0.274 HD
ATOM     37  H   UNL d   1      31.039 -14.600  -0.828  0.00  0.00     0.274 HD
ATOM     38  H   UNL d   1      29.888 -13.812   0.076  0.00  0.00     0.274 HD
ENDBRANCH  34  35
BRANCH  34  39
ATOM     39  C   UNL d   1      28.991 -15.270  -2.833  0.00  0.00     0.074 C 
BRANCH  39  40
ATOM     40  C   UNL d   1      27.692 -14.770  -3.385  0.00  0.00    -0.056 A 
ATOM     41  C   UNL d   1      26.962 -13.796  -2.698  0.00  0.00     0.007 A 
ATOM     42  C   UNL d   1      25.663 -13.505  -3.107  0.00  0.00     0.001 A 
ATOM     43  C   UNL d   1      25.149 -14.077  -4.270  0.00  0.00     0.000 A 
ATOM     44  C   UNL d   1      25.906 -14.981  -5.003  0.00  0.00     0.001 A 
ATOM     45  C   UNL d   1      27.150 -15.362  -4.532  0.00  0.00     0.007 A 
ENDBRANCH  39  40
ENDBRANCH  34  39
ENDBRANCH  33  34
BRANCH  33  46
ATOM     46  O   UNL d   1      30.222 -16.153   0.523  0.00  0.00    -0.393 OA
ATOM     47  H   UNL d   1      30.028 -16.816   1.214  0.00  0.00     0.210 HD
ENDBRANCH  33  46
ENDBRANCH  32  33
ENDBRANCH   1  32
TORSDOF 16
ENDMDL
