MODEL 1
REMARK VINA RESULT:   -11.270      0.000      0.000
REMARK INTER + INTRA:         -14.958
REMARK INTER:                 -13.955
REMARK INTRA:                  -1.003
REMARK CONF_INDEPENDENT:        2.685
REMARK UNBOUND:                -1.003
REMARK  9 active torsions:
REMARK  status: ('A' for Active; 'I' for Inactive)
REMARK    1  A    between atoms: O_2  and  C_3 
REMARK    2  A    between atoms: C_6  and  C_7 
REMARK       I    between atoms: C_7  and  N_9 
REMARK    3  A    between atoms: N_9  and  C_10 
REMARK    4  A    between atoms: C_10  and  N_12 
REMARK    5  A    between atoms: N_12  and  C_13 
REMARK    6  A    between atoms: C_18  and  C_19 
REMARK    7  A    between atoms: C_19  and  O_21 
REMARK    8  A    between atoms: O_21  and  C_22 
REMARK    9  A    between atoms: C_29  and  O_30 
ROOT
ATOM      1  N   UNL d   1      27.749 -16.444   0.091  0.00  0.00    -0.312 N 
ATOM      2  H   UNL d   1      28.387 -17.227   0.179  0.00  0.00     0.170 HD
ENDROOT
BRANCH   1   3
ATOM      3  C   UNL d   1      28.207 -15.134   0.401  0.00  0.00     0.180 C 
ATOM      4  S   UNL d   1      28.361 -13.917  -0.751  0.00  0.00    -0.040 SA
BRANCH   3   5
ATOM      5  N   UNL d   1      28.508 -14.885   1.803  0.00  0.00    -0.299 N 
ATOM      6  C   UNL d   1      27.709 -14.096   2.708  0.00  0.00     0.257 C 
ATOM      7  O   UNL d   1      26.655 -13.552   2.375  0.00  0.00    -0.267 OA
ATOM      8  H   UNL d   1      29.354 -15.279   2.191  0.00  0.00     0.171 HD
BRANCH   6   9
ATOM      9  C   UNL d   1      28.078 -13.794   4.141  0.00  0.00     0.035 A 
ATOM     10  C   UNL d   1      28.693 -14.809   4.914  0.00  0.00     0.020 A 
ATOM     11  C   UNL d   1      28.948 -14.651   6.296  0.00  0.00     0.040 A 
ATOM     12  C   UNL d   1      28.674 -13.439   6.952  0.00  0.00     0.101 A 
ATOM     13  C   UNL d   1      28.140 -12.394   6.159  0.00  0.00     0.102 A 
ATOM     14  C   UNL d   1      27.833 -12.594   4.783  0.00  0.00     0.056 A 
BRANCH  12  15
ATOM     15  O   UNL d   1      29.213 -13.365   8.220  0.00  0.00    -0.353 OA
ATOM     16  C   UNL d   1      30.594 -13.656   8.455  0.00  0.00     0.210 C 
ENDBRANCH  12  15
BRANCH  13  17
ATOM     17  O   UNL d   1      27.886 -11.075   6.455  0.00  0.00    -0.353 OA
ATOM     18  C   UNL d   1      28.944 -10.187   6.234  0.00  0.00     0.210 C 
ENDBRANCH  13  17
ENDBRANCH   6   9
ENDBRANCH   3   5
ENDBRANCH   1   3
BRANCH   1  19
ATOM     19  C   UNL d   1      26.400 -16.910  -0.087  0.00  0.00     0.174 C 
ATOM     20  N   UNL d   1      25.371 -16.088  -0.147  0.00  0.00    -0.223 NA
ATOM     21  C   UNL d   1      24.167 -16.787  -0.378  0.00  0.00     0.076 C 
ATOM     22  C   UNL d   1      22.935 -16.229  -0.778  0.00  0.00     0.034 C 
ATOM     23  C   UNL d   1      24.207 -18.173  -0.209  0.00  0.00     0.038 C 
ATOM     24  C   UNL d   1      21.778 -17.027  -0.895  0.00  0.00     0.020 C 
ATOM     25  C   UNL d   1      21.785 -18.402  -0.612  0.00  0.00     0.041 C 
ATOM     26  C   UNL d   1      23.012 -18.987  -0.219  0.00  0.00     0.039 C 
ATOM     27  S   UNL d   1      25.902 -18.574  -0.142  0.00  0.00    -0.050 SA
BRANCH  25  28
ATOM     28  C   UNL d   1      20.488 -19.146  -0.882  0.00  0.00     0.293 C 
ATOM     29  O   UNL d   1      20.306 -19.706  -1.974  0.00  0.00    -0.259 OA
BRANCH  28  30
ATOM     30  O   UNL d   1      19.597 -19.201   0.145  0.00  0.00    -0.313 OA
BRANCH  30  31
ATOM     31  C   UNL d   1      19.631 -20.404   0.986  0.00  0.00     0.124 C 
ATOM     32  C   UNL d   1      19.903 -20.078   2.460  0.00  0.00     0.040 C 
ATOM     33  C   UNL d   1      18.271 -21.108   0.908  0.00  0.00     0.040 C 
ENDBRANCH  30  31
ENDBRANCH  28  30
ENDBRANCH  25  28
ENDBRANCH   1  19
TORSDOF 9
ENDMDL
MODEL 2
REMARK VINA RESULT:   -10.805      0.860      1.637
REMARK INTER + INTRA:         -14.393
REMARK INTER:                 -13.490
REMARK INTRA:                  -0.903
REMARK CONF_INDEPENDENT:        2.685
REMARK UNBOUND:                -0.903
REMARK  9 active torsions:
REMARK  status: ('A' for Active; 'I' for Inactive)
REMARK    1  A    between atoms: O_2  and  C_3 
REMARK    2  A    between atoms: C_6  and  C_7 
REMARK       I    between atoms: C_7  and  N_9 
REMARK    3  A    between atoms: N_9  and  C_10 
REMARK    4  A    between atoms: C_10  and  N_12 
REMARK    5  A    between atoms: N_12  and  C_13 
REMARK    6  A    between atoms: C_18  and  C_19 
REMARK    7  A    between atoms: C_19  and  O_21 
REMARK    8  A    between atoms: O_21  and  C_22 
REMARK    9  A    between atoms: C_29  and  O_30 
ROOT
ATOM      1  N   UNL d   1      28.244 -16.597   0.287  0.00  0.00    -0.312 N 
ATOM      2  H   UNL d   1      28.835 -17.402   0.457  0.00  0.00     0.170 HD
ENDROOT
BRANCH   1   3
ATOM      3  C   UNL d   1      28.753 -15.293   0.536  0.00  0.00     0.180 C 
ATOM      4  S   UNL d   1      29.314 -14.277  -0.683  0.00  0.00    -0.040 SA
BRANCH   3   5
ATOM      5  N   UNL d   1      28.732 -14.860   1.926  0.00  0.00    -0.299 N 
ATOM      6  C   UNL d   1      28.088 -13.672   2.426  0.00  0.00     0.257 C 
ATOM      7  O   UNL d   1      27.463 -12.891   1.707  0.00  0.00    -0.267 OA
ATOM      8  H   UNL d   1      29.218 -15.422   2.611  0.00  0.00     0.171 HD
BRANCH   6   9
ATOM      9  C   UNL d   1      28.139 -13.207   3.863  0.00  0.00     0.035 A 
ATOM     10  C   UNL d   1      27.682 -11.903   4.174  0.00  0.00     0.020 A 
ATOM     11  C   UNL d   1      27.818 -11.346   5.466  0.00  0.00     0.040 A 
ATOM     12  C   UNL d   1      28.345 -12.098   6.530  0.00  0.00     0.101 A 
ATOM     13  C   UNL d   1      28.722 -13.432   6.239  0.00  0.00     0.102 A 
ATOM     14  C   UNL d   1      28.633 -13.954   4.916  0.00  0.00     0.056 A 
BRANCH  12  15
ATOM     15  O   UNL d   1      28.173 -11.504   7.763  0.00  0.00    -0.353 OA
ATOM     16  C   UNL d   1      28.303 -12.259   8.972  0.00  0.00     0.210 C 
ENDBRANCH  12  15
BRANCH  13  17
ATOM     17  O   UNL d   1      29.141 -14.453   7.061  0.00  0.00    -0.353 OA
ATOM     18  C   UNL d   1      30.400 -14.285   7.645  0.00  0.00     0.210 C 
ENDBRANCH  13  17
ENDBRANCH   6   9
ENDBRANCH   3   5
ENDBRANCH   1   3
BRANCH   1  19
ATOM     19  C   UNL d   1      26.882 -17.007   0.070  0.00  0.00     0.174 C 
ATOM     20  N   UNL d   1      25.892 -16.143  -0.038  0.00  0.00    -0.223 NA
ATOM     21  C   UNL d   1      24.667 -16.793  -0.299  0.00  0.00     0.076 C 
ATOM     22  C   UNL d   1      23.476 -16.190  -0.751  0.00  0.00     0.034 C 
ATOM     23  C   UNL d   1      24.641 -18.176  -0.107  0.00  0.00     0.038 C 
ATOM     24  C   UNL d   1      22.289 -16.939  -0.894  0.00  0.00     0.020 C 
ATOM     25  C   UNL d   1      22.227 -18.307  -0.589  0.00  0.00     0.041 C 
ATOM     26  C   UNL d   1      23.413 -18.937  -0.144  0.00  0.00     0.039 C 
ATOM     27  S   UNL d   1      26.314 -18.648   0.025  0.00  0.00    -0.050 SA
BRANCH  25  28
ATOM     28  C   UNL d   1      20.908 -18.999  -0.891  0.00  0.00     0.293 C 
ATOM     29  O   UNL d   1      20.745 -19.587  -1.972  0.00  0.00    -0.259 OA
BRANCH  28  30
ATOM     30  O   UNL d   1      19.974 -18.979   0.097  0.00  0.00    -0.313 OA
BRANCH  30  31
ATOM     31  C   UNL d   1      19.696 -20.253   0.772  0.00  0.00     0.124 C 
ATOM     32  C   UNL d   1      19.548 -20.090   2.289  0.00  0.00     0.040 C 
ATOM     33  C   UNL d   1      18.380 -20.828   0.234  0.00  0.00     0.040 C 
ENDBRANCH  30  31
ENDBRANCH  28  30
ENDBRANCH  25  28
ENDBRANCH   1  19
TORSDOF 9
ENDMDL
MODEL 3
REMARK VINA RESULT:    -9.886      4.641      7.651
REMARK INTER + INTRA:         -13.703
REMARK INTER:                 -12.571
REMARK INTRA:                  -1.132
REMARK CONF_INDEPENDENT:        2.685
REMARK UNBOUND:                -1.132
REMARK  9 active torsions:
REMARK  status: ('A' for Active; 'I' for Inactive)
REMARK    1  A    between atoms: O_2  and  C_3 
REMARK    2  A    between atoms: C_6  and  C_7 
REMARK       I    between atoms: C_7  and  N_9 
REMARK    3  A    between atoms: N_9  and  C_10 
REMARK    4  A    between atoms: C_10  and  N_12 
REMARK    5  A    between atoms: N_12  and  C_13 
REMARK    6  A    between atoms: C_18  and  C_19 
REMARK    7  A    between atoms: C_19  and  O_21 
REMARK    8  A    between atoms: O_21  and  C_22 
REMARK    9  A    between atoms: C_29  and  O_30 
ROOT
ATOM      1  N   UNL d   1      28.044 -16.554   0.419  0.00  0.00    -0.312 N 
ATOM      2  H   UNL d   1      28.422 -17.017   1.238  0.00  0.00     0.170 HD
ENDROOT
BRANCH   1   3
ATOM      3  C   UNL d   1      28.739 -15.447  -0.140  0.00  0.00     0.180 C 
ATOM      4  S   UNL d   1      28.953 -13.990   0.673  0.00  0.00    -0.040 SA
BRANCH   3   5
ATOM      5  N   UNL d   1      29.299 -15.657  -1.467  0.00  0.00    -0.299 N 
ATOM      6  C   UNL d   1      28.545 -15.758  -2.691  0.00  0.00     0.257 C 
ATOM      7  O   UNL d   1      27.317 -15.659  -2.736  0.00  0.00    -0.267 OA
ATOM      8  H   UNL d   1      30.301 -15.758  -1.556  0.00  0.00     0.171 HD
BRANCH   6   9
ATOM      9  C   UNL d   1      29.143 -16.046  -4.048  0.00  0.00     0.035 A 
ATOM     10  C   UNL d   1      30.032 -17.139  -4.183  0.00  0.00     0.020 A 
ATOM     11  C   UNL d   1      30.734 -17.395  -5.383  0.00  0.00     0.040 A 
ATOM     12  C   UNL d   1      30.518 -16.615  -6.532  0.00  0.00     0.101 A 
ATOM     13  C   UNL d   1      29.563 -15.575  -6.423  0.00  0.00     0.102 A 
ATOM     14  C   UNL d   1      28.912 -15.295  -5.187  0.00  0.00     0.056 A 
BRANCH  12  15
ATOM     15  O   UNL d   1      31.080 -17.148  -7.674  0.00  0.00    -0.353 OA
ATOM     16  C   UNL d   1      32.276 -16.598  -8.235  0.00  0.00     0.210 C 
ENDBRANCH  12  15
BRANCH  13  17
ATOM     17  O   UNL d   1      29.035 -14.730  -7.372  0.00  0.00    -0.353 OA
ATOM     18  C   UNL d   1      28.708 -13.445  -6.928  0.00  0.00     0.210 C 
ENDBRANCH  13  17
ENDBRANCH   6   9
ENDBRANCH   3   5
ENDBRANCH   1   3
BRANCH   1  19
ATOM     19  C   UNL d   1      26.697 -16.994   0.168  0.00  0.00     0.174 C 
ATOM     20  N   UNL d   1      25.690 -16.152   0.049  0.00  0.00    -0.223 NA
ATOM     21  C   UNL d   1      24.487 -16.827  -0.247  0.00  0.00     0.076 C 
ATOM     22  C   UNL d   1      23.291 -16.247  -0.717  0.00  0.00     0.034 C 
ATOM     23  C   UNL d   1      24.489 -18.213  -0.071  0.00  0.00     0.038 C 
ATOM     24  C   UNL d   1      22.126 -17.022  -0.895  0.00  0.00     0.020 C 
ATOM     25  C   UNL d   1      22.090 -18.395  -0.607  0.00  0.00     0.041 C 
ATOM     26  C   UNL d   1      23.280 -19.002  -0.144  0.00  0.00     0.039 C 
ATOM     27  S   UNL d   1      26.170 -18.647   0.091  0.00  0.00    -0.050 SA
BRANCH  25  28
ATOM     28  C   UNL d   1      20.794 -19.114  -0.946  0.00  0.00     0.293 C 
ATOM     29  O   UNL d   1      20.672 -19.700  -2.033  0.00  0.00    -0.259 OA
BRANCH  28  30
ATOM     30  O   UNL d   1      19.835 -19.119   0.018  0.00  0.00    -0.313 OA
BRANCH  30  31
ATOM     31  C   UNL d   1      19.711 -20.341   0.822  0.00  0.00     0.124 C 
ATOM     32  C   UNL d   1      19.894 -20.075   2.321  0.00  0.00     0.040 C 
ATOM     33  C   UNL d   1      18.310 -20.932   0.621  0.00  0.00     0.040 C 
ENDBRANCH  30  31
ENDBRANCH  28  30
ENDBRANCH  25  28
ENDBRANCH   1  19
TORSDOF 9
ENDMDL
MODEL 4
REMARK VINA RESULT:    -9.800      2.508      3.263
REMARK INTER + INTRA:         -13.433
REMARK INTER:                 -12.485
REMARK INTRA:                  -0.948
REMARK CONF_INDEPENDENT:        2.685
REMARK UNBOUND:                -0.948
REMARK  9 active torsions:
REMARK  status: ('A' for Active; 'I' for Inactive)
REMARK    1  A    between atoms: O_2  and  C_3 
REMARK    2  A    between atoms: C_6  and  C_7 
REMARK       I    between atoms: C_7  and  N_9 
REMARK    3  A    between atoms: N_9  and  C_10 
REMARK    4  A    between atoms: C_10  and  N_12 
REMARK    5  A    between atoms: N_12  and  C_13 
REMARK    6  A    between atoms: C_18  and  C_19 
REMARK    7  A    between atoms: C_19  and  O_21 
REMARK    8  A    between atoms: O_21  and  C_22 
REMARK    9  A    between atoms: C_29  and  O_30 
ROOT
ATOM      1  N   UNL d   1      28.029 -16.434   0.331  0.00  0.00    -0.312 N 
ATOM      2  H   UNL d   1      28.530 -17.074   0.936  0.00  0.00     0.170 HD
ENDROOT
BRANCH   1   3
ATOM      3  C   UNL d   1      28.595 -15.163   0.039  0.00  0.00     0.180 C 
ATOM      4  S   UNL d   1      29.576 -14.878  -1.298  0.00  0.00    -0.040 SA
BRANCH   3   5
ATOM      5  N   UNL d   1      28.244 -14.089   0.957  0.00  0.00    -0.299 N 
ATOM      6  C   UNL d   1      27.883 -12.745   0.581  0.00  0.00     0.257 C 
ATOM      7  O   UNL d   1      27.820 -12.368  -0.590  0.00  0.00    -0.267 OA
ATOM      8  H   UNL d   1      28.264 -14.280   1.950  0.00  0.00     0.171 HD
BRANCH   6   9
ATOM      9  C   UNL d   1      27.591 -11.629   1.556  0.00  0.00     0.035 A 
ATOM     10  C   UNL d   1      28.290 -11.599   2.786  0.00  0.00     0.020 A 
ATOM     11  C   UNL d   1      27.982 -10.668   3.805  0.00  0.00     0.040 A 
ATOM     12  C   UNL d   1      27.012  -9.670   3.608  0.00  0.00     0.101 A 
ATOM     13  C   UNL d   1      26.374  -9.645   2.344  0.00  0.00     0.102 A 
ATOM     14  C   UNL d   1      26.655 -10.630   1.354  0.00  0.00     0.056 A 
BRANCH  12  15
ATOM     15  O   UNL d   1      27.015  -8.698   4.587  0.00  0.00    -0.353 OA
ATOM     16  C   UNL d   1      27.436  -7.360   4.300  0.00  0.00     0.210 C 
ENDBRANCH  12  15
BRANCH  13  17
ATOM     17  O   UNL d   1      25.493  -8.743   1.793  0.00  0.00    -0.353 OA
ATOM     18  C   UNL d   1      25.933  -8.091   0.637  0.00  0.00     0.210 C 
ENDBRANCH  13  17
ENDBRANCH   6   9
ENDBRANCH   3   5
ENDBRANCH   1   3
BRANCH   1  19
ATOM     19  C   UNL d   1      26.683 -16.894   0.114  0.00  0.00     0.174 C 
ATOM     20  N   UNL d   1      25.668 -16.065  -0.030  0.00  0.00    -0.223 NA
ATOM     21  C   UNL d   1      24.466 -16.762  -0.282  0.00  0.00     0.076 C 
ATOM     22  C   UNL d   1      23.261 -16.211  -0.763  0.00  0.00     0.034 C 
ATOM     23  C   UNL d   1      24.482 -18.138  -0.047  0.00  0.00     0.038 C 
ATOM     24  C   UNL d   1      22.100 -17.001  -0.895  0.00  0.00     0.020 C 
ATOM     25  C   UNL d   1      22.078 -18.361  -0.548  0.00  0.00     0.041 C 
ATOM     26  C   UNL d   1      23.278 -18.939  -0.072  0.00  0.00     0.039 C 
ATOM     27  S   UNL d   1      26.167 -18.553   0.115  0.00  0.00    -0.050 SA
BRANCH  25  28
ATOM     28  C   UNL d   1      20.784 -19.103  -0.840  0.00  0.00     0.293 C 
ATOM     29  O   UNL d   1      20.638 -19.699  -1.918  0.00  0.00    -0.259 OA
BRANCH  28  30
ATOM     30  O   UNL d   1      19.856 -19.116   0.153  0.00  0.00    -0.313 OA
BRANCH  30  31
ATOM     31  C   UNL d   1      19.423 -20.432   0.639  0.00  0.00     0.124 C 
ATOM     32  C   UNL d   1      19.148 -20.437   2.147  0.00  0.00     0.040 C 
ATOM     33  C   UNL d   1      18.123 -20.825  -0.074  0.00  0.00     0.040 C 
ENDBRANCH  30  31
ENDBRANCH  28  30
ENDBRANCH  25  28
ENDBRANCH   1  19
TORSDOF 9
ENDMDL
MODEL 5
REMARK VINA RESULT:    -9.701      4.951      8.066
REMARK INTER + INTRA:         -13.437
REMARK INTER:                 -12.386
REMARK INTRA:                  -1.051
REMARK CONF_INDEPENDENT:        2.685
REMARK UNBOUND:                -1.051
REMARK  9 active torsions:
REMARK  status: ('A' for Active; 'I' for Inactive)
REMARK    1  A    between atoms: O_2  and  C_3 
REMARK    2  A    between atoms: C_6  and  C_7 
REMARK       I    between atoms: C_7  and  N_9 
REMARK    3  A    between atoms: N_9  and  C_10 
REMARK    4  A    between atoms: C_10  and  N_12 
REMARK    5  A    between atoms: N_12  and  C_13 
REMARK    6  A    between atoms: C_18  and  C_19 
REMARK    7  A    between atoms: C_19  and  O_21 
REMARK    8  A    between atoms: O_21  and  C_22 
REMARK    9  A    between atoms: C_29  and  O_30 
ROOT
ATOM      1  N   UNL d   1      27.995 -16.454   0.165  0.00  0.00    -0.312 N 
ATOM      2  H   UNL d   1      28.363 -16.783   1.050  0.00  0.00     0.170 HD
ENDROOT
BRANCH   1   3
ATOM      3  C   UNL d   1      28.706 -15.458  -0.559  0.00  0.00     0.180 C 
ATOM      4  S   UNL d   1      29.189 -13.996   0.121  0.00  0.00    -0.040 SA
BRANCH   3   5
ATOM      5  N   UNL d   1      29.033 -15.791  -1.938  0.00  0.00    -0.299 N 
ATOM      6  C   UNL d   1      29.713 -16.984  -2.376  0.00  0.00     0.257 C 
ATOM      7  O   UNL d   1      30.083 -17.870  -1.605  0.00  0.00    -0.267 OA
ATOM      8  H   UNL d   1      28.781 -15.134  -2.664  0.00  0.00     0.171 HD
BRANCH   6   9
ATOM      9  C   UNL d   1      30.103 -17.275  -3.806  0.00  0.00     0.035 A 
ATOM     10  C   UNL d   1      30.138 -16.205  -4.734  0.00  0.00     0.020 A 
ATOM     11  C   UNL d   1      30.363 -16.413  -6.114  0.00  0.00     0.040 A 
ATOM     12  C   UNL d   1      30.644 -17.694  -6.620  0.00  0.00     0.101 A 
ATOM     13  C   UNL d   1      30.695 -18.751  -5.679  0.00  0.00     0.102 A 
ATOM     14  C   UNL d   1      30.405 -18.530  -4.302  0.00  0.00     0.056 A 
BRANCH  12  15
ATOM     15  O   UNL d   1      31.087 -17.685  -7.927  0.00  0.00    -0.353 OA
ATOM     16  C   UNL d   1      32.476 -17.835  -8.237  0.00  0.00     0.210 C 
ENDBRANCH  12  15
BRANCH  13  17
ATOM     17  O   UNL d   1      31.062 -20.069  -5.820  0.00  0.00    -0.353 OA
ATOM     18  C   UNL d   1      31.535 -20.697  -4.663  0.00  0.00     0.210 C 
ENDBRANCH  13  17
ENDBRANCH   6   9
ENDBRANCH   3   5
ENDBRANCH   1   3
BRANCH   1  19
ATOM     19  C   UNL d   1      26.645 -16.914  -0.023  0.00  0.00     0.174 C 
ATOM     20  N   UNL d   1      25.623 -16.087  -0.114  0.00  0.00    -0.223 NA
ATOM     21  C   UNL d   1      24.417 -16.782  -0.348  0.00  0.00     0.076 C 
ATOM     22  C   UNL d   1      23.195 -16.224  -0.778  0.00  0.00     0.034 C 
ATOM     23  C   UNL d   1      24.445 -18.164  -0.150  0.00  0.00     0.038 C 
ATOM     24  C   UNL d   1      22.034 -17.017  -0.895  0.00  0.00     0.020 C 
ATOM     25  C   UNL d   1      22.028 -18.385  -0.583  0.00  0.00     0.041 C 
ATOM     26  C   UNL d   1      23.244 -18.970  -0.160  0.00  0.00     0.039 C 
ATOM     27  S   UNL d   1      26.136 -18.575  -0.050  0.00  0.00    -0.050 SA
BRANCH  25  28
ATOM     28  C   UNL d   1      20.729 -19.126  -0.856  0.00  0.00     0.293 C 
ATOM     29  O   UNL d   1      20.555 -19.700  -1.942  0.00  0.00    -0.259 OA
BRANCH  28  30
ATOM     30  O   UNL d   1      19.827 -19.161   0.161  0.00  0.00    -0.313 OA
BRANCH  30  31
ATOM     31  C   UNL d   1      19.801 -20.380   0.980  0.00  0.00     0.124 C 
ATOM     32  C   UNL d   1      19.786 -20.074   2.482  0.00  0.00     0.040 C 
ATOM     33  C   UNL d   1      18.532 -21.175   0.653  0.00  0.00     0.040 C 
ENDBRANCH  30  31
ENDBRANCH  28  30
ENDBRANCH  25  28
ENDBRANCH   1  19
TORSDOF 9
ENDMDL
MODEL 6
REMARK VINA RESULT:    -9.676      1.827      2.999
REMARK INTER + INTRA:         -13.634
REMARK INTER:                 -12.361
REMARK INTRA:                  -1.273
REMARK CONF_INDEPENDENT:        2.685
REMARK UNBOUND:                -1.273
REMARK  9 active torsions:
REMARK  status: ('A' for Active; 'I' for Inactive)
REMARK    1  A    between atoms: O_2  and  C_3 
REMARK    2  A    between atoms: C_6  and  C_7 
REMARK       I    between atoms: C_7  and  N_9 
REMARK    3  A    between atoms: N_9  and  C_10 
REMARK    4  A    between atoms: C_10  and  N_12 
REMARK    5  A    between atoms: N_12  and  C_13 
REMARK    6  A    between atoms: C_18  and  C_19 
REMARK    7  A    between atoms: C_19  and  O_21 
REMARK    8  A    between atoms: O_21  and  C_22 
REMARK    9  A    between atoms: C_29  and  O_30 
ROOT
ATOM      1  N   UNL d   1      27.569 -15.795  -0.200  0.00  0.00    -0.312 N 
ATOM      2  H   UNL d   1      28.109 -16.157   0.578  0.00  0.00     0.170 HD
ENDROOT
BRANCH   1   3
ATOM      3  C   UNL d   1      27.996 -14.604  -0.850  0.00  0.00     0.180 C 
ATOM      4  S   UNL d   1      28.584 -14.577  -2.426  0.00  0.00    -0.040 SA
BRANCH   3   5
ATOM      5  N   UNL d   1      27.861 -13.378  -0.075  0.00  0.00    -0.299 N 
ATOM      6  C   UNL d   1      27.602 -13.303   1.341  0.00  0.00     0.257 C 
ATOM      7  O   UNL d   1      27.480 -14.298   2.057  0.00  0.00    -0.267 OA
ATOM      8  H   UNL d   1      27.938 -12.494  -0.558  0.00  0.00     0.171 HD
BRANCH   6   9
ATOM      9  C   UNL d   1      27.397 -12.019   2.110  0.00  0.00     0.035 A 
ATOM     10  C   UNL d   1      26.903 -10.884   1.422  0.00  0.00     0.020 A 
ATOM     11  C   UNL d   1      26.809  -9.614   2.035  0.00  0.00     0.040 A 
ATOM     12  C   UNL d   1      27.128  -9.437   3.393  0.00  0.00     0.101 A 
ATOM     13  C   UNL d   1      27.539 -10.591   4.104  0.00  0.00     0.102 A 
ATOM     14  C   UNL d   1      27.686 -11.848   3.452  0.00  0.00     0.056 A 
BRANCH  12  15
ATOM     15  O   UNL d   1      26.741  -8.212   3.895  0.00  0.00    -0.353 OA
ATOM     16  C   UNL d   1      27.625  -7.433   4.707  0.00  0.00     0.210 C 
ENDBRANCH  12  15
BRANCH  13  17
ATOM     17  O   UNL d   1      27.794 -10.784   5.442  0.00  0.00    -0.353 OA
ATOM     18  C   UNL d   1      28.042 -12.105   5.830  0.00  0.00     0.210 C 
ENDBRANCH  13  17
ENDBRANCH   6   9
ENDBRANCH   3   5
ENDBRANCH   1   3
BRANCH   1  19
ATOM     19  C   UNL d   1      26.301 -16.468  -0.292  0.00  0.00     0.174 C 
ATOM     20  N   UNL d   1      25.158 -15.815  -0.358  0.00  0.00    -0.223 NA
ATOM     21  C   UNL d   1      24.067 -16.699  -0.495  0.00  0.00     0.076 C 
ATOM     22  C   UNL d   1      22.752 -16.360  -0.876  0.00  0.00     0.034 C 
ATOM     23  C   UNL d   1      24.322 -18.049  -0.242  0.00  0.00     0.038 C 
ATOM     24  C   UNL d   1      21.727 -17.328  -0.894  0.00  0.00     0.020 C 
ATOM     25  C   UNL d   1      21.951 -18.664  -0.527  0.00  0.00     0.041 C 
ATOM     26  C   UNL d   1      23.265 -19.031  -0.151  0.00  0.00     0.039 C 
ATOM     27  S   UNL d   1      26.060 -18.187  -0.222  0.00  0.00    -0.050 SA
BRANCH  25  28
ATOM     28  C   UNL d   1      20.774 -19.610  -0.695  0.00  0.00     0.293 C 
ATOM     29  O   UNL d   1      20.197 -19.699  -1.790  0.00  0.00    -0.259 OA
BRANCH  28  30
ATOM     30  O   UNL d   1      20.447 -20.366   0.386  0.00  0.00    -0.313 OA
BRANCH  30  31
ATOM     31  C   UNL d   1      19.097 -20.186   0.936  0.00  0.00     0.124 C 
ATOM     32  C   UNL d   1      18.079 -21.148   0.314  0.00  0.00     0.040 C 
ATOM     33  C   UNL d   1      19.133 -20.456   2.446  0.00  0.00     0.040 C 
ENDBRANCH  30  31
ENDBRANCH  28  30
ENDBRANCH  25  28
ENDBRANCH   1  19
TORSDOF 9
ENDMDL
MODEL 7
REMARK VINA RESULT:    -9.602      4.825      6.374
REMARK INTER + INTRA:         -13.530
REMARK INTER:                 -12.287
REMARK INTRA:                  -1.243
REMARK CONF_INDEPENDENT:        2.685
REMARK UNBOUND:                -1.243
REMARK  9 active torsions:
REMARK  status: ('A' for Active; 'I' for Inactive)
REMARK    1  A    between atoms: O_2  and  C_3 
REMARK    2  A    between atoms: C_6  and  C_7 
REMARK       I    between atoms: C_7  and  N_9 
REMARK    3  A    between atoms: N_9  and  C_10 
REMARK    4  A    between atoms: C_10  and  N_12 
REMARK    5  A    between atoms: N_12  and  C_13 
REMARK    6  A    between atoms: C_18  and  C_19 
REMARK    7  A    between atoms: C_19  and  O_21 
REMARK    8  A    between atoms: O_21  and  C_22 
REMARK    9  A    between atoms: C_29  and  O_30 
ROOT
ATOM      1  N   UNL d   1      27.750 -16.462   0.133  0.00  0.00    -0.312 N 
ATOM      2  H   UNL d   1      27.967 -16.374   1.119  0.00  0.00     0.170 HD
ENDROOT
BRANCH   1   3
ATOM      3  C   UNL d   1      28.639 -15.907  -0.828  0.00  0.00     0.180 C 
ATOM      4  S   UNL d   1      30.097 -16.628  -1.258  0.00  0.00    -0.040 SA
BRANCH   3   5
ATOM      5  N   UNL d   1      28.195 -14.672  -1.460  0.00  0.00    -0.299 N 
ATOM      6  C   UNL d   1      27.097 -14.549  -2.386  0.00  0.00     0.257 C 
ATOM      7  O   UNL d   1      26.398 -15.503  -2.732  0.00  0.00    -0.267 OA
ATOM      8  H   UNL d   1      28.698 -13.820  -1.255  0.00  0.00     0.171 HD
BRANCH   6   9
ATOM      9  C   UNL d   1      26.699 -13.269  -3.082  0.00  0.00     0.035 A 
ATOM     10  C   UNL d   1      26.080 -13.349  -4.353  0.00  0.00     0.020 A 
ATOM     11  C   UNL d   1      25.798 -12.200  -5.127  0.00  0.00     0.040 A 
ATOM     12  C   UNL d   1      26.050 -10.909  -4.629  0.00  0.00     0.101 A 
ATOM     13  C   UNL d   1      26.589 -10.826  -3.322  0.00  0.00     0.102 A 
ATOM     14  C   UNL d   1      26.922 -11.998  -2.584  0.00  0.00     0.056 A 
BRANCH  12  15
ATOM     15  O   UNL d   1      25.488  -9.906  -5.392  0.00  0.00    -0.353 OA
ATOM     16  C   UNL d   1      24.775  -8.825  -4.782  0.00  0.00     0.210 C 
ENDBRANCH  12  15
BRANCH  13  17
ATOM     17  O   UNL d   1      26.827  -9.742  -2.510  0.00  0.00    -0.353 OA
ATOM     18  C   UNL d   1      27.422 -10.024  -1.277  0.00  0.00     0.210 C 
ENDBRANCH  13  17
ENDBRANCH   6   9
ENDBRANCH   3   5
ENDBRANCH   1   3
BRANCH   1  19
ATOM     19  C   UNL d   1      26.400 -16.926  -0.048  0.00  0.00     0.174 C 
ATOM     20  N   UNL d   1      25.376 -16.101  -0.134  0.00  0.00    -0.223 NA
ATOM     21  C   UNL d   1      24.171 -16.799  -0.362  0.00  0.00     0.076 C 
ATOM     22  C   UNL d   1      22.945 -16.244  -0.785  0.00  0.00     0.034 C 
ATOM     23  C   UNL d   1      24.203 -18.181  -0.163  0.00  0.00     0.038 C 
ATOM     24  C   UNL d   1      21.786 -17.039  -0.896  0.00  0.00     0.020 C 
ATOM     25  C   UNL d   1      21.784 -18.407  -0.584  0.00  0.00     0.041 C 
ATOM     26  C   UNL d   1      23.004 -18.989  -0.166  0.00  0.00     0.039 C 
ATOM     27  S   UNL d   1      25.896 -18.588  -0.072  0.00  0.00    -0.050 SA
BRANCH  25  28
ATOM     28  C   UNL d   1      20.485 -19.151  -0.849  0.00  0.00     0.293 C 
ATOM     29  O   UNL d   1      20.303 -19.718  -1.938  0.00  0.00    -0.259 OA
BRANCH  28  30
ATOM     30  O   UNL d   1      19.594 -19.199   0.177  0.00  0.00    -0.313 OA
BRANCH  30  31
ATOM     31  C   UNL d   1      19.487 -20.471   0.901  0.00  0.00     0.124 C 
ATOM     32  C   UNL d   1      19.563 -20.285   2.421  0.00  0.00     0.040 C 
ATOM     33  C   UNL d   1      18.134 -21.118   0.577  0.00  0.00     0.040 C 
ENDBRANCH  30  31
ENDBRANCH  28  30
ENDBRANCH  25  28
ENDBRANCH   1  19
TORSDOF 9
ENDMDL
MODEL 8
REMARK VINA RESULT:    -9.506      4.623      7.142
REMARK INTER + INTRA:         -13.422
REMARK INTER:                 -12.191
REMARK INTRA:                  -1.232
REMARK CONF_INDEPENDENT:        2.685
REMARK UNBOUND:                -1.232
REMARK  9 active torsions:
REMARK  status: ('A' for Active; 'I' for Inactive)
REMARK    1  A    between atoms: O_2  and  C_3 
REMARK    2  A    between atoms: C_6  and  C_7 
REMARK       I    between atoms: C_7  and  N_9 
REMARK    3  A    between atoms: N_9  and  C_10 
REMARK    4  A    between atoms: C_10  and  N_12 
REMARK    5  A    between atoms: N_12  and  C_13 
REMARK    6  A    between atoms: C_18  and  C_19 
REMARK    7  A    between atoms: C_19  and  O_21 
REMARK    8  A    between atoms: O_21  and  C_22 
REMARK    9  A    between atoms: C_29  and  O_30 
ROOT
ATOM      1  N   UNL d   1      28.117 -16.698   0.230  0.00  0.00    -0.312 N 
ATOM      2  H   UNL d   1      28.624 -17.392   0.768  0.00  0.00     0.170 HD
ENDROOT
BRANCH   1   3
ATOM      3  C   UNL d   1      28.701 -15.420   0.014  0.00  0.00     0.180 C 
ATOM      4  S   UNL d   1      30.063 -14.880   0.841  0.00  0.00    -0.040 SA
BRANCH   3   5
ATOM      5  N   UNL d   1      28.066 -14.599  -1.007  0.00  0.00    -0.299 N 
ATOM      6  C   UNL d   1      28.141 -14.820  -2.429  0.00  0.00     0.257 C 
ATOM      7  O   UNL d   1      28.757 -15.760  -2.933  0.00  0.00    -0.267 OA
ATOM      8  H   UNL d   1      27.534 -13.791  -0.712  0.00  0.00     0.171 HD
BRANCH   6   9
ATOM      9  C   UNL d   1      27.531 -13.914  -3.473  0.00  0.00     0.035 A 
ATOM     10  C   UNL d   1      26.515 -13.009  -3.080  0.00  0.00     0.020 A 
ATOM     11  C   UNL d   1      25.803 -12.224  -4.016  0.00  0.00     0.040 A 
ATOM     12  C   UNL d   1      26.131 -12.247  -5.382  0.00  0.00     0.101 A 
ATOM     13  C   UNL d   1      27.206 -13.086  -5.763  0.00  0.00     0.102 A 
ATOM     14  C   UNL d   1      27.869 -13.916  -4.814  0.00  0.00     0.056 A 
BRANCH  12  15
ATOM     15  O   UNL d   1      25.523 -11.246  -6.112  0.00  0.00    -0.353 OA
ATOM     16  C   UNL d   1      26.215 -10.032  -6.421  0.00  0.00     0.210 C 
ENDBRANCH  12  15
BRANCH  13  17
ATOM     17  O   UNL d   1      27.848 -13.240  -6.970  0.00  0.00    -0.353 OA
ATOM     18  C   UNL d   1      29.030 -13.987  -6.940  0.00  0.00     0.210 C 
ENDBRANCH  13  17
ENDBRANCH   6   9
ENDBRANCH   3   5
ENDBRANCH   1   3
BRANCH   1  19
ATOM     19  C   UNL d   1      26.754 -17.114   0.027  0.00  0.00     0.174 C 
ATOM     20  N   UNL d   1      25.762 -16.252  -0.075  0.00  0.00    -0.223 NA
ATOM     21  C   UNL d   1      24.536 -16.907  -0.322  0.00  0.00     0.076 C 
ATOM     22  C   UNL d   1      23.338 -16.310  -0.765  0.00  0.00     0.034 C 
ATOM     23  C   UNL d   1      24.516 -18.289  -0.125  0.00  0.00     0.038 C 
ATOM     24  C   UNL d   1      22.153 -17.063  -0.895  0.00  0.00     0.020 C 
ATOM     25  C   UNL d   1      22.098 -18.430  -0.584  0.00  0.00     0.041 C 
ATOM     26  C   UNL d   1      23.290 -19.055  -0.148  0.00  0.00     0.039 C 
ATOM     27  S   UNL d   1      26.192 -18.756  -0.006  0.00  0.00    -0.050 SA
BRANCH  25  28
ATOM     28  C   UNL d   1      20.778 -19.127  -0.871  0.00  0.00     0.293 C 
ATOM     29  O   UNL d   1      20.599 -19.699  -1.957  0.00  0.00    -0.259 OA
BRANCH  28  30
ATOM     30  O   UNL d   1      19.863 -19.129   0.135  0.00  0.00    -0.313 OA
BRANCH  30  31
ATOM     31  C   UNL d   1      19.767 -20.353   0.941  0.00  0.00     0.124 C 
ATOM     32  C   UNL d   1      19.904 -20.075   2.442  0.00  0.00     0.040 C 
ATOM     33  C   UNL d   1      18.396 -20.998   0.709  0.00  0.00     0.040 C 
ENDBRANCH  30  31
ENDBRANCH  28  30
ENDBRANCH  25  28
ENDBRANCH   1  19
TORSDOF 9
ENDMDL
MODEL 9
REMARK VINA RESULT:    -9.468      1.612      2.006
REMARK INTER + INTRA:         -13.253
REMARK INTER:                 -12.153
REMARK INTRA:                  -1.100
REMARK CONF_INDEPENDENT:        2.685
REMARK UNBOUND:                -1.100
REMARK  9 active torsions:
REMARK  status: ('A' for Active; 'I' for Inactive)
REMARK    1  A    between atoms: O_2  and  C_3 
REMARK    2  A    between atoms: C_6  and  C_7 
REMARK       I    between atoms: C_7  and  N_9 
REMARK    3  A    between atoms: N_9  and  C_10 
REMARK    4  A    between atoms: C_10  and  N_12 
REMARK    5  A    between atoms: N_12  and  C_13 
REMARK    6  A    between atoms: C_18  and  C_19 
REMARK    7  A    between atoms: C_19  and  O_21 
REMARK    8  A    between atoms: O_21  and  C_22 
REMARK    9  A    between atoms: C_29  and  O_30 
ROOT
ATOM      1  N   UNL d   1      28.446 -15.584  -1.234  0.00  0.00    -0.312 N 
ATOM      2  H   UNL d   1      28.575 -15.190  -2.158  0.00  0.00     0.170 HD
ENDROOT
BRANCH   1   3
ATOM      3  C   UNL d   1      29.571 -15.737  -0.377  0.00  0.00     0.180 C 
ATOM      4  S   UNL d   1      31.044 -16.361  -0.897  0.00  0.00    -0.040 SA
BRANCH   3   5
ATOM      5  N   UNL d   1      29.388 -15.282   0.994  0.00  0.00    -0.299 N 
ATOM      6  C   UNL d   1      28.341 -14.405   1.456  0.00  0.00     0.257 C 
ATOM      7  O   UNL d   1      27.467 -13.951   0.716  0.00  0.00    -0.267 OA
ATOM      8  H   UNL d   1      30.050 -15.587   1.694  0.00  0.00     0.171 HD
BRANCH   6   9
ATOM      9  C   UNL d   1      28.213 -13.891   2.871  0.00  0.00     0.035 A 
ATOM     10  C   UNL d   1      28.122 -14.827   3.929  0.00  0.00     0.020 A 
ATOM     11  C   UNL d   1      27.867 -14.432   5.263  0.00  0.00     0.040 A 
ATOM     12  C   UNL d   1      27.773 -13.075   5.614  0.00  0.00     0.101 A 
ATOM     13  C   UNL d   1      27.951 -12.135   4.569  0.00  0.00     0.102 A 
ATOM     14  C   UNL d   1      28.145 -12.555   3.222  0.00  0.00     0.056 A 
BRANCH  12  15
ATOM     15  O   UNL d   1      27.780 -12.855   6.976  0.00  0.00    -0.353 OA
ATOM     16  C   UNL d   1      28.790 -12.049   7.590  0.00  0.00     0.210 C 
ENDBRANCH  12  15
BRANCH  13  17
ATOM     17  O   UNL d   1      28.045 -10.763   4.594  0.00  0.00    -0.353 OA
ATOM     18  C   UNL d   1      28.917 -10.195   3.659  0.00  0.00     0.210 C 
ENDBRANCH  13  17
ENDBRANCH   6   9
ENDBRANCH   3   5
ENDBRANCH   1   3
BRANCH   1  19
ATOM     19  C   UNL d   1      27.132 -16.157  -1.108  0.00  0.00     0.174 C 
ATOM     20  N   UNL d   1      26.852 -17.095  -0.225  0.00  0.00    -0.223 NA
ATOM     21  C   UNL d   1      25.487 -17.450  -0.267  0.00  0.00     0.076 C 
ATOM     22  C   UNL d   1      24.781 -18.191   0.703  0.00  0.00     0.034 C 
ATOM     23  C   UNL d   1      24.760 -17.006  -1.374  0.00  0.00     0.038 C 
ATOM     24  C   UNL d   1      23.433 -18.553   0.503  0.00  0.00     0.020 C 
ATOM     25  C   UNL d   1      22.730 -18.211  -0.662  0.00  0.00     0.041 C 
ATOM     26  C   UNL d   1      23.414 -17.458  -1.646  0.00  0.00     0.039 C 
ATOM     27  S   UNL d   1      25.772 -15.805  -2.130  0.00  0.00    -0.050 SA
BRANCH  25  28
ATOM     28  C   UNL d   1      21.257 -18.583  -0.688  0.00  0.00     0.293 C 
ATOM     29  O   UNL d   1      20.431 -17.824  -1.218  0.00  0.00    -0.259 OA
BRANCH  28  30
ATOM     30  O   UNL d   1      20.929 -19.792  -0.159  0.00  0.00    -0.313 OA
BRANCH  30  31
ATOM     31  C   UNL d   1      19.688 -19.857   0.623  0.00  0.00     0.124 C 
ATOM     32  C   UNL d   1      18.813 -21.054   0.231  0.00  0.00     0.040 C 
ATOM     33  C   UNL d   1      20.040 -20.004   2.109  0.00  0.00     0.040 C 
ENDBRANCH  30  31
ENDBRANCH  28  30
ENDBRANCH  25  28
ENDBRANCH   1  19
TORSDOF 9
ENDMDL
