MODEL 1
REMARK VINA RESULT:    -6.726      0.000      0.000
REMARK INTER + INTRA:         -13.973
REMARK INTER:                 -10.603
REMARK INTRA:                  -3.370
REMARK CONF_INDEPENDENT:        3.878
REMARK UNBOUND:                -3.370
REMARK  13 active torsions:
REMARK  status: ('A' for Active; 'I' for Inactive)
REMARK    1  A    between atoms: C_2  and  C_3 
REMARK    2  A    between atoms: C_3  and  C_4 
REMARK    3  A    between atoms: C_4  and  N_5 
REMARK       I    between atoms: N_5  and  C_6 
REMARK    4  A    between atoms: C_8  and  C_6 
REMARK    5  A    between atoms: C_8  and  N_18 
REMARK    6  A    between atoms: C_8  and  C_9 
REMARK    7  A    between atoms: C_10  and  O_11 
REMARK    8  A    between atoms: C_13  and  O_14 
REMARK    9  A    between atoms: C_16  and  O_17 
REMARK       I    between atoms: N_18  and  C_19 
REMARK   10  A    between atoms: N_18  and  C_29 
REMARK   11  A    between atoms: C_19  and  C_21 
REMARK   12  A    between atoms: C_21  and  C_22 
REMARK   13  A    between atoms: C_22  and  C_23 
ROOT
ATOM      1  C   UNL d   1      27.951 -12.979  -2.952  0.00  0.00     0.219 C 
ENDROOT
BRANCH   1   2
ATOM      2  N   UNL d   1      27.761 -13.868  -4.243  0.00  0.00    -0.326 N 
ATOM      3  C   UNL d   1      26.758 -14.883  -4.393  0.00  0.00     0.221 C 
ATOM      4  O   UNL d   1      26.620 -15.583  -5.399  0.00  0.00    -0.273 OA
BRANCH   3   5
ATOM      5  C   UNL d   1      25.743 -15.180  -3.326  0.00  0.00     0.103 C 
BRANCH   5   6
ATOM      6  C   UNL d   1      26.095 -16.291  -2.330  0.00  0.00     0.014 C 
BRANCH   6   7
ATOM      7  C   UNL d   1      25.058 -16.509  -1.193  0.00  0.00    -0.014 C 
ATOM      8  C   UNL d   1      23.663 -16.035  -1.650  0.00  0.00     0.004 C 
ATOM      9  C   UNL d   1      22.568 -16.324  -0.618  0.00  0.00     0.000 C 
ATOM     10  C   UNL d   1      22.498 -17.802  -0.264  0.00  0.00     0.000 C 
ATOM     11  C   UNL d   1      23.859 -18.204   0.295  0.00  0.00     0.000 C 
ATOM     12  C   UNL d   1      24.939 -17.956  -0.750  0.00  0.00     0.004 C 
ENDBRANCH   6   7
ENDBRANCH   5   6
ENDBRANCH   3   5
BRANCH   2  13
ATOM     13  C   UNL d   1      28.586 -13.515  -5.525  0.00  0.00     0.025 C 
ATOM     14  C   UNL d   1      27.774 -12.667  -6.517  0.00  0.00     0.037 C 
ATOM     15  C   UNL d   1      29.863 -12.710  -5.289  0.00  0.00     0.037 C 
ATOM     16  C   UNL d   1      29.174 -14.742  -6.254  0.00  0.00     0.037 C 
ENDBRANCH   2  13
ENDBRANCH   1   2
BRANCH   1  17
ATOM     17  C   UNL d   1      27.255 -11.623  -2.938  0.00  0.00     0.040 C 
ATOM     18  C   UNL d   1      26.120 -11.302  -3.703  0.00  0.00     0.080 C 
ATOM     19  C   UNL d   1      25.526 -10.045  -3.579  0.00  0.00     0.073 C 
ATOM     20  C   UNL d   1      26.107  -9.081  -2.749  0.00  0.00     0.071 C 
ATOM     21  C   UNL d   1      27.160  -9.403  -1.905  0.00  0.00     0.073 C 
ATOM     22  C   UNL d   1      27.734 -10.656  -2.017  0.00  0.00     0.080 C 
BRANCH  18  23
ATOM     23  O   UNL d   1      25.423 -12.192  -4.474  0.00  0.00    -0.360 OA
ATOM     24  H   UNL d   1      24.467 -12.103  -4.353  0.00  0.00     0.217 HD
ENDBRANCH  18  23
BRANCH  20  25
ATOM     25  O   UNL d   1      25.533  -7.859  -2.568  0.00  0.00    -0.361 OA
ATOM     26  H   UNL d   1      24.577  -7.992  -2.453  0.00  0.00     0.217 HD
ENDBRANCH  20  25
BRANCH  22  27
ATOM     27  O   UNL d   1      28.656 -11.047  -1.074  0.00  0.00    -0.360 OA
ATOM     28  H   UNL d   1      28.237 -11.671  -0.457  0.00  0.00     0.217 HD
ENDBRANCH  22  27
ENDBRANCH   1  17
BRANCH   1  29
ATOM     29  C   UNL d   1      27.705 -13.582  -1.484  0.00  0.00     0.245 C 
ATOM     30  N   UNL d   1      28.595 -14.533  -1.104  0.00  0.00    -0.359 N 
ATOM     31  H   UNL d   1      28.928 -15.064  -1.895  0.00  0.00     0.162 HD
ATOM     32  O   UNL d   1      26.770 -13.228  -0.746  0.00  0.00    -0.271 OA
BRANCH  30  33
ATOM     33  C   UNL d   1      28.737 -15.120   0.207  0.00  0.00     0.122 C 
BRANCH  33  34
ATOM     34  C   UNL d   1      28.118 -16.528   0.298  0.00  0.00     0.019 C 
BRANCH  34  35
ATOM     35  C   UNL d   1      28.723 -17.417  -0.776  0.00  0.00    -0.003 C 
ATOM     36  C   UNL d   1      30.240 -17.378  -0.785  0.00  0.00     0.005 C 
ENDBRANCH  34  35
ENDBRANCH  33  34
ENDBRANCH  30  33
ENDBRANCH   1  29
TORSDOF 13
ENDMDL
MODEL 2
REMARK VINA RESULT:    -6.556      2.403      4.122
REMARK INTER + INTRA:         -13.991
REMARK INTER:                 -10.434
REMARK INTRA:                  -3.558
REMARK CONF_INDEPENDENT:        3.878
REMARK UNBOUND:                -3.558
REMARK  13 active torsions:
REMARK  status: ('A' for Active; 'I' for Inactive)
REMARK    1  A    between atoms: C_2  and  C_3 
REMARK    2  A    between atoms: C_3  and  C_4 
REMARK    3  A    between atoms: C_4  and  N_5 
REMARK       I    between atoms: N_5  and  C_6 
REMARK    4  A    between atoms: C_8  and  C_6 
REMARK    5  A    between atoms: C_8  and  N_18 
REMARK    6  A    between atoms: C_8  and  C_9 
REMARK    7  A    between atoms: C_10  and  O_11 
REMARK    8  A    between atoms: C_13  and  O_14 
REMARK    9  A    between atoms: C_16  and  O_17 
REMARK       I    between atoms: N_18  and  C_19 
REMARK   10  A    between atoms: N_18  and  C_29 
REMARK   11  A    between atoms: C_19  and  C_21 
REMARK   12  A    between atoms: C_21  and  C_22 
REMARK   13  A    between atoms: C_22  and  C_23 
ROOT
ATOM      1  C   UNL d   1      28.332 -14.737  -0.559  0.00  0.00     0.219 C 
ENDROOT
BRANCH   1   2
ATOM      2  N   UNL d   1      28.971 -16.151  -0.848  0.00  0.00    -0.326 N 
ATOM      3  C   UNL d   1      28.493 -17.389  -0.302  0.00  0.00     0.221 C 
ATOM      4  O   UNL d   1      29.001 -18.491  -0.522  0.00  0.00    -0.273 OA
BRANCH   3   5
ATOM      5  C   UNL d   1      27.285 -17.465   0.588  0.00  0.00     0.103 C 
BRANCH   5   6
ATOM      6  C   UNL d   1      26.272 -18.575   0.281  0.00  0.00     0.014 C 
BRANCH   6   7
ATOM      7  C   UNL d   1      25.037 -18.127  -0.551  0.00  0.00    -0.014 C 
ATOM      8  C   UNL d   1      23.798 -18.950  -0.145  0.00  0.00     0.004 C 
ATOM      9  C   UNL d   1      22.518 -18.484  -0.846  0.00  0.00     0.000 C 
ATOM     10  C   UNL d   1      22.238 -17.010  -0.597  0.00  0.00     0.000 C 
ATOM     11  C   UNL d   1      23.435 -16.222  -1.121  0.00  0.00     0.000 C 
ATOM     12  C   UNL d   1      24.698 -16.657  -0.389  0.00  0.00     0.004 C 
ENDBRANCH   6   7
ENDBRANCH   5   6
ENDBRANCH   3   5
BRANCH   2  13
ATOM     13  C   UNL d   1      30.085 -16.262  -1.942  0.00  0.00     0.025 C 
ATOM     14  C   UNL d   1      31.341 -16.973  -1.413  0.00  0.00     0.037 C 
ATOM     15  C   UNL d   1      29.704 -17.045  -3.198  0.00  0.00     0.037 C 
ATOM     16  C   UNL d   1      30.483 -14.913  -2.577  0.00  0.00     0.037 C 
ENDBRANCH   2  13
ENDBRANCH   1   2
BRANCH   1  17
ATOM     17  C   UNL d   1      27.477 -14.126  -1.662  0.00  0.00     0.040 C 
ATOM     18  C   UNL d   1      26.710 -14.867  -2.578  0.00  0.00     0.080 C 
ATOM     19  C   UNL d   1      25.917 -14.209  -3.521  0.00  0.00     0.073 C 
ATOM     20  C   UNL d   1      25.949 -12.813  -3.601  0.00  0.00     0.071 C 
ATOM     21  C   UNL d   1      26.611 -12.055  -2.645  0.00  0.00     0.073 C 
ATOM     22  C   UNL d   1      27.379 -12.711  -1.701  0.00  0.00     0.080 C 
BRANCH  18  23
ATOM     23  O   UNL d   1      26.539 -16.224  -2.533  0.00  0.00    -0.360 OA
ATOM     24  H   UNL d   1      27.291 -16.696  -2.917  0.00  0.00     0.217 HD
ENDBRANCH  18  23
BRANCH  20  25
ATOM     25  O   UNL d   1      25.158 -12.134  -4.477  0.00  0.00    -0.361 OA
ATOM     26  H   UNL d   1      24.292 -12.575  -4.503  0.00  0.00     0.217 HD
ENDBRANCH  20  25
BRANCH  22  27
ATOM     27  O   UNL d   1      27.894 -11.987  -0.650  0.00  0.00    -0.360 OA
ATOM     28  H   UNL d   1      27.404 -12.208   0.160  0.00  0.00     0.217 HD
ENDBRANCH  22  27
ENDBRANCH   1  17
BRANCH   1  29
ATOM     29  C   UNL d   1      27.518 -14.454   0.796  0.00  0.00     0.245 C 
ATOM     30  N   UNL d   1      28.175 -14.789   1.935  0.00  0.00    -0.359 N 
ATOM     31  H   UNL d   1      28.791 -15.575   1.788  0.00  0.00     0.162 HD
ATOM     32  O   UNL d   1      26.369 -13.980   0.818  0.00  0.00    -0.271 OA
BRANCH  30  33
ATOM     33  C   UNL d   1      27.779 -14.490   3.291  0.00  0.00     0.122 C 
BRANCH  33  34
ATOM     34  C   UNL d   1      28.296 -13.121   3.773  0.00  0.00     0.019 C 
BRANCH  34  35
ATOM     35  C   UNL d   1      28.880 -13.264   5.169  0.00  0.00    -0.003 C 
ATOM     36  C   UNL d   1      28.529 -14.589   5.819  0.00  0.00     0.005 C 
ENDBRANCH  34  35
ENDBRANCH  33  34
ENDBRANCH  30  33
ENDBRANCH   1  29
TORSDOF 13
ENDMDL
MODEL 3
REMARK VINA RESULT:    -6.437      2.513      6.120
REMARK INTER + INTRA:         -13.895
REMARK INTER:                 -10.315
REMARK INTRA:                  -3.581
REMARK CONF_INDEPENDENT:        3.878
REMARK UNBOUND:                -3.581
REMARK  13 active torsions:
REMARK  status: ('A' for Active; 'I' for Inactive)
REMARK    1  A    between atoms: C_2  and  C_3 
REMARK    2  A    between atoms: C_3  and  C_4 
REMARK    3  A    between atoms: C_4  and  N_5 
REMARK       I    between atoms: N_5  and  C_6 
REMARK    4  A    between atoms: C_8  and  C_6 
REMARK    5  A    between atoms: C_8  and  N_18 
REMARK    6  A    between atoms: C_8  and  C_9 
REMARK    7  A    between atoms: C_10  and  O_11 
REMARK    8  A    between atoms: C_13  and  O_14 
REMARK    9  A    between atoms: C_16  and  O_17 
REMARK       I    between atoms: N_18  and  C_19 
REMARK   10  A    between atoms: N_18  and  C_29 
REMARK   11  A    between atoms: C_19  and  C_21 
REMARK   12  A    between atoms: C_21  and  C_22 
REMARK   13  A    between atoms: C_22  and  C_23 
ROOT
ATOM      1  C   UNL d   1      26.343 -15.264  -1.674  0.00  0.00     0.219 C 
ENDROOT
BRANCH   1   2
ATOM      2  N   UNL d   1      27.322 -15.481  -2.894  0.00  0.00    -0.326 N 
ATOM      3  C   UNL d   1      26.932 -15.414  -4.273  0.00  0.00     0.221 C 
ATOM      4  O   UNL d   1      27.698 -15.595  -5.224  0.00  0.00    -0.273 OA
BRANCH   3   5
ATOM      5  C   UNL d   1      25.530 -15.084  -4.702  0.00  0.00     0.103 C 
BRANCH   5   6
ATOM      6  C   UNL d   1      24.988 -13.712  -4.283  0.00  0.00     0.014 C 
BRANCH   6   7
ATOM      7  C   UNL d   1      26.064 -12.602  -4.115  0.00  0.00    -0.014 C 
ATOM      8  C   UNL d   1      25.898 -11.532  -5.213  0.00  0.00     0.004 C 
ATOM      9  C   UNL d   1      26.856 -10.349  -5.040  0.00  0.00     0.000 C 
ATOM     10  C   UNL d   1      26.704  -9.690  -3.678  0.00  0.00     0.000 C 
ATOM     11  C   UNL d   1      26.992 -10.750  -2.621  0.00  0.00     0.000 C 
ATOM     12  C   UNL d   1      26.010 -11.905  -2.768  0.00  0.00     0.004 C 
ENDBRANCH   6   7
ENDBRANCH   5   6
ENDBRANCH   3   5
BRANCH   2  13
ATOM     13  C   UNL d   1      28.857 -15.598  -2.613  0.00  0.00     0.025 C 
ATOM     14  C   UNL d   1      29.566 -14.238  -2.724  0.00  0.00     0.037 C 
ATOM     15  C   UNL d   1      29.238 -16.116  -1.227  0.00  0.00     0.037 C 
ATOM     16  C   UNL d   1      29.584 -16.634  -3.496  0.00  0.00     0.037 C 
ENDBRANCH   2  13
ENDBRANCH   1   2
BRANCH   1  17
ATOM     17  C   UNL d   1      25.484 -16.451  -1.258  0.00  0.00     0.040 C 
ATOM     18  C   UNL d   1      25.953 -17.554  -0.522  0.00  0.00     0.080 C 
ATOM     19  C   UNL d   1      25.071 -18.569  -0.144  0.00  0.00     0.073 C 
ATOM     20  C   UNL d   1      23.738 -18.523  -0.566  0.00  0.00     0.071 C 
ATOM     21  C   UNL d   1      23.225 -17.399  -1.199  0.00  0.00     0.073 C 
ATOM     22  C   UNL d   1      24.098 -16.387  -1.554  0.00  0.00     0.080 C 
BRANCH  18  23
ATOM     23  O   UNL d   1      27.208 -17.657   0.014  0.00  0.00    -0.360 OA
ATOM     24  H   UNL d   1      27.474 -16.846   0.469  0.00  0.00     0.217 HD
ENDBRANCH  18  23
BRANCH  20  25
ATOM     25  O   UNL d   1      22.838 -19.470  -0.182  0.00  0.00    -0.361 OA
ATOM     26  H   UNL d   1      22.661 -19.348   0.766  0.00  0.00     0.217 HD
ENDBRANCH  20  25
BRANCH  22  27
ATOM     27  O   UNL d   1      23.580 -15.201  -2.020  0.00  0.00    -0.360 OA
ATOM     28  H   UNL d   1      22.635 -15.156  -1.796  0.00  0.00     0.217 HD
ENDBRANCH  22  27
ENDBRANCH   1  17
BRANCH   1  29
ATOM     29  C   UNL d   1      26.864 -14.630  -0.294  0.00  0.00     0.245 C 
ATOM     30  N   UNL d   1      27.338 -13.361  -0.393  0.00  0.00    -0.359 N 
ATOM     31  H   UNL d   1      27.755 -13.194  -1.296  0.00  0.00     0.162 HD
ATOM     32  O   UNL d   1      26.854 -15.242   0.788  0.00  0.00    -0.271 OA
BRANCH  30  33
ATOM     33  C   UNL d   1      27.700 -12.478   0.689  0.00  0.00     0.122 C 
BRANCH  33  34
ATOM     34  C   UNL d   1      26.677 -12.498   1.840  0.00  0.00     0.019 C 
BRANCH  34  35
ATOM     35  C   UNL d   1      27.406 -12.662   3.163  0.00  0.00    -0.003 C 
ATOM     36  C   UNL d   1      27.921 -14.073   3.379  0.00  0.00     0.005 C 
ENDBRANCH  34  35
ENDBRANCH  33  34
ENDBRANCH  30  33
ENDBRANCH   1  29
TORSDOF 13
ENDMDL
MODEL 4
REMARK VINA RESULT:    -6.433      2.638      6.439
REMARK INTER + INTRA:         -13.797
REMARK INTER:                 -10.310
REMARK INTRA:                  -3.487
REMARK CONF_INDEPENDENT:        3.878
REMARK UNBOUND:                -3.487
REMARK  13 active torsions:
REMARK  status: ('A' for Active; 'I' for Inactive)
REMARK    1  A    between atoms: C_2  and  C_3 
REMARK    2  A    between atoms: C_3  and  C_4 
REMARK    3  A    between atoms: C_4  and  N_5 
REMARK       I    between atoms: N_5  and  C_6 
REMARK    4  A    between atoms: C_8  and  C_6 
REMARK    5  A    between atoms: C_8  and  N_18 
REMARK    6  A    between atoms: C_8  and  C_9 
REMARK    7  A    between atoms: C_10  and  O_11 
REMARK    8  A    between atoms: C_13  and  O_14 
REMARK    9  A    between atoms: C_16  and  O_17 
REMARK       I    between atoms: N_18  and  C_19 
REMARK   10  A    between atoms: N_18  and  C_29 
REMARK   11  A    between atoms: C_19  and  C_21 
REMARK   12  A    between atoms: C_21  and  C_22 
REMARK   13  A    between atoms: C_22  and  C_23 
ROOT
ATOM      1  C   UNL d   1      26.781 -15.755  -0.026  0.00  0.00     0.219 C 
ENDROOT
BRANCH   1   2
ATOM      2  N   UNL d   1      25.545 -15.791  -1.007  0.00  0.00    -0.326 N 
ATOM      3  C   UNL d   1      25.409 -14.972  -2.177  0.00  0.00     0.221 C 
ATOM      4  O   UNL d   1      24.436 -14.995  -2.935  0.00  0.00    -0.273 OA
BRANCH   3   5
ATOM      5  C   UNL d   1      26.474 -14.006  -2.616  0.00  0.00     0.103 C 
BRANCH   5   6
ATOM      6  C   UNL d   1      26.520 -13.665  -4.109  0.00  0.00     0.014 C 
BRANCH   6   7
ATOM      7  C   UNL d   1      27.365 -14.636  -4.981  0.00  0.00    -0.014 C 
ATOM      8  C   UNL d   1      28.127 -13.849  -6.066  0.00  0.00     0.004 C 
ATOM      9  C   UNL d   1      29.069 -14.732  -6.891  0.00  0.00     0.000 C 
ATOM     10  C   UNL d   1      30.071 -15.466  -6.015  0.00  0.00     0.000 C 
ATOM     11  C   UNL d   1      29.280 -16.326  -5.035  0.00  0.00     0.000 C 
ATOM     12  C   UNL d   1      28.378 -15.439  -4.186  0.00  0.00     0.004 C 
ENDBRANCH   6   7
ENDBRANCH   5   6
ENDBRANCH   3   5
BRANCH   2  13
ATOM     13  C   UNL d   1      24.468 -16.910  -0.816  0.00  0.00     0.025 C 
ATOM     14  C   UNL d   1      23.079 -16.325  -0.515  0.00  0.00     0.037 C 
ATOM     15  C   UNL d   1      24.245 -17.825  -2.020  0.00  0.00     0.037 C 
ATOM     16  C   UNL d   1      24.831 -17.959   0.256  0.00  0.00     0.037 C 
ENDBRANCH   2  13
ENDBRANCH   1   2
BRANCH   1  17
ATOM     17  C   UNL d   1      28.153 -16.019  -0.633  0.00  0.00     0.040 C 
ATOM     18  C   UNL d   1      29.038 -15.017  -1.070  0.00  0.00     0.080 C 
ATOM     19  C   UNL d   1      30.297 -15.362  -1.566  0.00  0.00     0.073 C 
ATOM     20  C   UNL d   1      30.645 -16.710  -1.698  0.00  0.00     0.071 C 
ATOM     21  C   UNL d   1      29.839 -17.713  -1.177  0.00  0.00     0.073 C 
ATOM     22  C   UNL d   1      28.601 -17.365  -0.669  0.00  0.00     0.080 C 
BRANCH  18  23
ATOM     23  O   UNL d   1      28.835 -13.673  -0.907  0.00  0.00    -0.360 OA
ATOM     24  H   UNL d   1      27.907 -13.468  -0.725  0.00  0.00     0.217 HD
ENDBRANCH  18  23
BRANCH  20  25
ATOM     25  O   UNL d   1      31.879 -17.085  -2.135  0.00  0.00    -0.361 OA
ATOM     26  H   UNL d   1      31.803 -17.974  -2.521  0.00  0.00     0.217 HD
ENDBRANCH  20  25
BRANCH  22  27
ATOM     27  O   UNL d   1      27.871 -18.318   0.003  0.00  0.00    -0.360 OA
ATOM     28  H   UNL d   1      28.469 -18.835   0.570  0.00  0.00     0.217 HD
ENDBRANCH  22  27
ENDBRANCH   1  17
BRANCH   1  29
ATOM     29  C   UNL d   1      27.008 -14.524   0.981  0.00  0.00     0.245 C 
ATOM     30  N   UNL d   1      27.881 -14.769   1.991  0.00  0.00    -0.359 N 
ATOM     31  H   UNL d   1      27.864 -15.740   2.265  0.00  0.00     0.162 HD
ATOM     32  O   UNL d   1      26.430 -13.430   0.867  0.00  0.00    -0.271 OA
BRANCH  30  33
ATOM     33  C   UNL d   1      28.416 -13.815   2.932  0.00  0.00     0.122 C 
BRANCH  33  34
ATOM     34  C   UNL d   1      27.591 -13.732   4.230  0.00  0.00     0.019 C 
BRANCH  34  35
ATOM     35  C   UNL d   1      28.141 -14.724   5.243  0.00  0.00    -0.003 C 
ATOM     36  C   UNL d   1      29.637 -14.935   5.105  0.00  0.00     0.005 C 
ENDBRANCH  34  35
ENDBRANCH  33  34
ENDBRANCH  30  33
ENDBRANCH   1  29
TORSDOF 13
ENDMDL
MODEL 5
REMARK VINA RESULT:    -6.388      2.039      5.462
REMARK INTER + INTRA:         -13.704
REMARK INTER:                 -10.266
REMARK INTRA:                  -3.438
REMARK CONF_INDEPENDENT:        3.878
REMARK UNBOUND:                -3.438
REMARK  13 active torsions:
REMARK  status: ('A' for Active; 'I' for Inactive)
REMARK    1  A    between atoms: C_2  and  C_3 
REMARK    2  A    between atoms: C_3  and  C_4 
REMARK    3  A    between atoms: C_4  and  N_5 
REMARK       I    between atoms: N_5  and  C_6 
REMARK    4  A    between atoms: C_8  and  C_6 
REMARK    5  A    between atoms: C_8  and  N_18 
REMARK    6  A    between atoms: C_8  and  C_9 
REMARK    7  A    between atoms: C_10  and  O_11 
REMARK    8  A    between atoms: C_13  and  O_14 
REMARK    9  A    between atoms: C_16  and  O_17 
REMARK       I    between atoms: N_18  and  C_19 
REMARK   10  A    between atoms: N_18  and  C_29 
REMARK   11  A    between atoms: C_19  and  C_21 
REMARK   12  A    between atoms: C_21  and  C_22 
REMARK   13  A    between atoms: C_22  and  C_23 
ROOT
ATOM      1  C   UNL d   1      27.358 -15.976  -1.637  0.00  0.00     0.219 C 
ENDROOT
BRANCH   1   2
ATOM      2  N   UNL d   1      27.823 -15.779  -3.133  0.00  0.00    -0.326 N 
ATOM      3  C   UNL d   1      26.970 -15.343  -4.200  0.00  0.00     0.221 C 
ATOM      4  O   UNL d   1      27.334 -15.201  -5.370  0.00  0.00    -0.273 OA
BRANCH   3   5
ATOM      5  C   UNL d   1      25.527 -14.984  -3.986  0.00  0.00     0.103 C 
BRANCH   5   6
ATOM      6  C   UNL d   1      25.090 -13.586  -4.441  0.00  0.00     0.014 C 
BRANCH   6   7
ATOM      7  C   UNL d   1      26.157 -12.471  -4.256  0.00  0.00    -0.014 C 
ATOM      8  C   UNL d   1      26.740 -12.062  -5.624  0.00  0.00     0.004 C 
ATOM      9  C   UNL d   1      27.718 -10.887  -5.528  0.00  0.00     0.000 C 
ATOM     10  C   UNL d   1      27.080  -9.669  -4.877  0.00  0.00     0.000 C 
ATOM     11  C   UNL d   1      26.624 -10.082  -3.482  0.00  0.00     0.000 C 
ATOM     12  C   UNL d   1      25.618 -11.221  -3.584  0.00  0.00     0.004 C 
ENDBRANCH   6   7
ENDBRANCH   5   6
ENDBRANCH   3   5
BRANCH   2  13
ATOM     13  C   UNL d   1      29.349 -15.884  -3.464  0.00  0.00     0.025 C 
ATOM     14  C   UNL d   1      30.004 -14.500  -3.598  0.00  0.00     0.037 C 
ATOM     15  C   UNL d   1      30.203 -16.611  -2.426  0.00  0.00     0.037 C 
ATOM     16  C   UNL d   1      29.667 -16.730  -4.715  0.00  0.00     0.037 C 
ENDBRANCH   2  13
ENDBRANCH   1   2
BRANCH   1  17
ATOM     17  C   UNL d   1      27.638 -14.832  -0.670  0.00  0.00     0.040 C 
ATOM     18  C   UNL d   1      26.969 -13.595  -0.685  0.00  0.00     0.080 C 
ATOM     19  C   UNL d   1      27.263 -12.629   0.280  0.00  0.00     0.073 C 
ATOM     20  C   UNL d   1      28.279 -12.866   1.212  0.00  0.00     0.071 C 
ATOM     21  C   UNL d   1      28.878 -14.113   1.317  0.00  0.00     0.073 C 
ATOM     22  C   UNL d   1      28.570 -15.074   0.372  0.00  0.00     0.080 C 
BRANCH  18  23
ATOM     23  O   UNL d   1      25.906 -13.294  -1.492  0.00  0.00    -0.360 OA
ATOM     24  H   UNL d   1      25.319 -14.054  -1.616  0.00  0.00     0.217 HD
ENDBRANCH  18  23
BRANCH  20  25
ATOM     25  O   UNL d   1      28.564 -11.967   2.194  0.00  0.00    -0.361 OA
ATOM     26  H   UNL d   1      29.529 -11.942   2.307  0.00  0.00     0.217 HD
ENDBRANCH  20  25
BRANCH  22  27
ATOM     27  O   UNL d   1      29.020 -16.359   0.566  0.00  0.00    -0.360 OA
ATOM     28  H   UNL d   1      29.611 -16.377   1.339  0.00  0.00     0.217 HD
ENDBRANCH  22  27
ENDBRANCH   1  17
BRANCH   1  29
ATOM     29  C   UNL d   1      25.866 -16.454  -1.286  0.00  0.00     0.245 C 
ATOM     30  N   UNL d   1      25.779 -17.694  -0.741  0.00  0.00    -0.359 N 
ATOM     31  H   UNL d   1      26.511 -18.299  -1.083  0.00  0.00     0.162 HD
ATOM     32  O   UNL d   1      24.856 -15.762  -1.503  0.00  0.00    -0.271 OA
BRANCH  30  33
ATOM     33  C   UNL d   1      24.610 -18.314  -0.164  0.00  0.00     0.122 C 
BRANCH  33  34
ATOM     34  C   UNL d   1      23.460 -18.471  -1.178  0.00  0.00     0.019 C 
BRANCH  34  35
ATOM     35  C   UNL d   1      22.149 -18.072  -0.521  0.00  0.00    -0.003 C 
ATOM     36  C   UNL d   1      20.988 -18.952  -0.944  0.00  0.00     0.005 C 
ENDBRANCH  34  35
ENDBRANCH  33  34
ENDBRANCH  30  33
ENDBRANCH   1  29
TORSDOF 13
ENDMDL
MODEL 6
REMARK VINA RESULT:    -6.367      2.344      3.924
REMARK INTER + INTRA:         -14.016
REMARK INTER:                 -10.244
REMARK INTRA:                  -3.772
REMARK CONF_INDEPENDENT:        3.878
REMARK UNBOUND:                -3.772
REMARK  13 active torsions:
REMARK  status: ('A' for Active; 'I' for Inactive)
REMARK    1  A    between atoms: C_2  and  C_3 
REMARK    2  A    between atoms: C_3  and  C_4 
REMARK    3  A    between atoms: C_4  and  N_5 
REMARK       I    between atoms: N_5  and  C_6 
REMARK    4  A    between atoms: C_8  and  C_6 
REMARK    5  A    between atoms: C_8  and  N_18 
REMARK    6  A    between atoms: C_8  and  C_9 
REMARK    7  A    between atoms: C_10  and  O_11 
REMARK    8  A    between atoms: C_13  and  O_14 
REMARK    9  A    between atoms: C_16  and  O_17 
REMARK       I    between atoms: N_18  and  C_19 
REMARK   10  A    between atoms: N_18  and  C_29 
REMARK   11  A    between atoms: C_19  and  C_21 
REMARK   12  A    between atoms: C_21  and  C_22 
REMARK   13  A    between atoms: C_22  and  C_23 
ROOT
ATOM      1  C   UNL d   1      29.179 -14.490  -3.077  0.00  0.00     0.219 C 
ENDROOT
BRANCH   1   2
ATOM      2  N   UNL d   1      29.708 -15.945  -2.769  0.00  0.00    -0.326 N 
ATOM      3  C   UNL d   1      29.233 -16.776  -1.700  0.00  0.00     0.221 C 
ATOM      4  O   UNL d   1      29.657 -17.908  -1.455  0.00  0.00    -0.273 OA
BRANCH   3   5
ATOM      5  C   UNL d   1      28.131 -16.348  -0.772  0.00  0.00     0.103 C 
BRANCH   5   6
ATOM      6  C   UNL d   1      27.366 -17.463  -0.051  0.00  0.00     0.014 C 
BRANCH   6   7
ATOM      7  C   UNL d   1      25.824 -17.269   0.013  0.00  0.00    -0.014 C 
ATOM      8  C   UNL d   1      25.340 -16.464  -1.210  0.00  0.00     0.004 C 
ATOM      9  C   UNL d   1      23.815 -16.331  -1.269  0.00  0.00     0.000 C 
ATOM     10  C   UNL d   1      23.126 -17.687  -1.264  0.00  0.00     0.000 C 
ATOM     11  C   UNL d   1      23.536 -18.404   0.019  0.00  0.00     0.000 C 
ATOM     12  C   UNL d   1      25.049 -18.573   0.053  0.00  0.00     0.004 C 
ENDBRANCH   6   7
ENDBRANCH   5   6
ENDBRANCH   3   5
BRANCH   2  13
ATOM     13  C   UNL d   1      30.685 -16.621  -3.789  0.00  0.00     0.025 C 
ATOM     14  C   UNL d   1      30.047 -17.839  -4.474  0.00  0.00     0.037 C 
ATOM     15  C   UNL d   1      31.152 -15.734  -4.943  0.00  0.00     0.037 C 
ATOM     16  C   UNL d   1      32.048 -17.020  -3.187  0.00  0.00     0.037 C 
ENDBRANCH   2  13
ENDBRANCH   1   2
BRANCH   1  17
ATOM     17  C   UNL d   1      27.680 -14.333  -3.299  0.00  0.00     0.040 C 
ATOM     18  C   UNL d   1      26.823 -13.598  -2.461  0.00  0.00     0.080 C 
ATOM     19  C   UNL d   1      25.470 -13.472  -2.782  0.00  0.00     0.073 C 
ATOM     20  C   UNL d   1      24.955 -14.142  -3.896  0.00  0.00     0.071 C 
ATOM     21  C   UNL d   1      25.793 -14.783  -4.797  0.00  0.00     0.073 C 
ATOM     22  C   UNL d   1      27.136 -14.890  -4.486  0.00  0.00     0.080 C 
BRANCH  18  23
ATOM     23  O   UNL d   1      27.234 -12.835  -1.402  0.00  0.00    -0.360 OA
ATOM     24  H   UNL d   1      27.863 -12.151  -1.673  0.00  0.00     0.217 HD
ENDBRANCH  18  23
BRANCH  20  25
ATOM     25  O   UNL d   1      23.651 -14.008  -4.266  0.00  0.00    -0.361 OA
ATOM     26  H   UNL d   1      23.607 -13.344  -4.974  0.00  0.00     0.217 HD
ENDBRANCH  20  25
BRANCH  22  27
ATOM     27  O   UNL d   1      28.000 -15.365  -5.445  0.00  0.00    -0.360 OA
ATOM     28  H   UNL d   1      28.802 -15.705  -5.011  0.00  0.00     0.217 HD
ENDBRANCH  22  27
ENDBRANCH   1  17
BRANCH   1  29
ATOM     29  C   UNL d   1      29.589 -13.243  -2.152  0.00  0.00     0.245 C 
ATOM     30  N   UNL d   1      29.543 -13.485  -0.817  0.00  0.00    -0.359 N 
ATOM     31  H   UNL d   1      28.826 -14.158  -0.590  0.00  0.00     0.162 HD
ATOM     32  O   UNL d   1      29.914 -12.132  -2.605  0.00  0.00    -0.271 OA
BRANCH  30  33
ATOM     33  C   UNL d   1      30.021 -12.630   0.241  0.00  0.00     0.122 C 
BRANCH  33  34
ATOM     34  C   UNL d   1      29.640 -13.147   1.642  0.00  0.00     0.019 C 
BRANCH  34  35
ATOM     35  C   UNL d   1      28.258 -13.778   1.589  0.00  0.00    -0.003 C 
ATOM     36  C   UNL d   1      27.530 -13.708   2.919  0.00  0.00     0.005 C 
ENDBRANCH  34  35
ENDBRANCH  33  34
ENDBRANCH  30  33
ENDBRANCH   1  29
TORSDOF 13
ENDMDL
MODEL 7
REMARK VINA RESULT:    -6.349      1.327      2.268
REMARK INTER + INTRA:         -13.629
REMARK INTER:                 -10.227
REMARK INTRA:                  -3.402
REMARK CONF_INDEPENDENT:        3.878
REMARK UNBOUND:                -3.402
REMARK  13 active torsions:
REMARK  status: ('A' for Active; 'I' for Inactive)
REMARK    1  A    between atoms: C_2  and  C_3 
REMARK    2  A    between atoms: C_3  and  C_4 
REMARK    3  A    between atoms: C_4  and  N_5 
REMARK       I    between atoms: N_5  and  C_6 
REMARK    4  A    between atoms: C_8  and  C_6 
REMARK    5  A    between atoms: C_8  and  N_18 
REMARK    6  A    between atoms: C_8  and  C_9 
REMARK    7  A    between atoms: C_10  and  O_11 
REMARK    8  A    between atoms: C_13  and  O_14 
REMARK    9  A    between atoms: C_16  and  O_17 
REMARK       I    between atoms: N_18  and  C_19 
REMARK   10  A    between atoms: N_18  and  C_29 
REMARK   11  A    between atoms: C_19  and  C_21 
REMARK   12  A    between atoms: C_21  and  C_22 
REMARK   13  A    between atoms: C_22  and  C_23 
ROOT
ATOM      1  C   UNL d   1      28.022 -13.008  -3.129  0.00  0.00     0.219 C 
ENDROOT
BRANCH   1   2
ATOM      2  N   UNL d   1      27.690 -13.945  -4.355  0.00  0.00    -0.326 N 
ATOM      3  C   UNL d   1      26.558 -14.823  -4.426  0.00  0.00     0.221 C 
ATOM      4  O   UNL d   1      26.308 -15.563  -5.381  0.00  0.00    -0.273 OA
BRANCH   3   5
ATOM      5  C   UNL d   1      25.531 -14.909  -3.332  0.00  0.00     0.103 C 
BRANCH   5   6
ATOM      6  C   UNL d   1      25.170 -16.314  -2.836  0.00  0.00     0.014 C 
BRANCH   6   7
ATOM      7  C   UNL d   1      25.548 -16.606  -1.356  0.00  0.00    -0.014 C 
ATOM      8  C   UNL d   1      24.710 -17.784  -0.817  0.00  0.00     0.004 C 
ATOM      9  C   UNL d   1      25.110 -18.199   0.602  0.00  0.00     0.000 C 
ATOM     10  C   UNL d   1      26.585 -18.558   0.694  0.00  0.00     0.000 C 
ATOM     11  C   UNL d   1      27.382 -17.330   0.268  0.00  0.00     0.000 C 
ATOM     12  C   UNL d   1      27.014 -16.947  -1.160  0.00  0.00     0.004 C 
ENDBRANCH   6   7
ENDBRANCH   5   6
ENDBRANCH   3   5
BRANCH   2  13
ATOM     13  C   UNL d   1      28.532 -13.793  -5.666  0.00  0.00     0.025 C 
ATOM     14  C   UNL d   1      29.909 -13.167  -5.394  0.00  0.00     0.037 C 
ATOM     15  C   UNL d   1      28.842 -15.093  -6.407  0.00  0.00     0.037 C 
ATOM     16  C   UNL d   1      27.818 -13.008  -6.787  0.00  0.00     0.037 C 
ENDBRANCH   2  13
ENDBRANCH   1   2
BRANCH   1  17
ATOM     17  C   UNL d   1      27.334 -11.649  -3.092  0.00  0.00     0.040 C 
ATOM     18  C   UNL d   1      26.079 -11.375  -3.665  0.00  0.00     0.080 C 
ATOM     19  C   UNL d   1      25.511 -10.107  -3.531  0.00  0.00     0.073 C 
ATOM     20  C   UNL d   1      26.227  -9.089  -2.893  0.00  0.00     0.071 C 
ATOM     21  C   UNL d   1      27.415  -9.357  -2.228  0.00  0.00     0.073 C 
ATOM     22  C   UNL d   1      27.965 -10.620  -2.347  0.00  0.00     0.080 C 
BRANCH  18  23
ATOM     23  O   UNL d   1      25.259 -12.314  -4.230  0.00  0.00    -0.360 OA
ATOM     24  H   UNL d   1      24.788 -11.965  -5.000  0.00  0.00     0.217 HD
ENDBRANCH  18  23
BRANCH  20  25
ATOM     25  O   UNL d   1      25.689  -7.852  -2.705  0.00  0.00    -0.361 OA
ATOM     26  H   UNL d   1      24.721  -7.940  -2.725  0.00  0.00     0.217 HD
ENDBRANCH  20  25
BRANCH  22  27
ATOM     27  O   UNL d   1      29.043 -10.948  -1.557  0.00  0.00    -0.360 OA
ATOM     28  H   UNL d   1      28.853 -11.777  -1.086  0.00  0.00     0.217 HD
ENDBRANCH  22  27
ENDBRANCH   1  17
BRANCH   1  29
ATOM     29  C   UNL d   1      27.937 -13.551  -1.620  0.00  0.00     0.245 C 
ATOM     30  N   UNL d   1      26.711 -13.446  -1.046  0.00  0.00    -0.359 N 
ATOM     31  H   UNL d   1      26.207 -12.646  -1.398  0.00  0.00     0.162 HD
ATOM     32  O   UNL d   1      28.909 -14.022  -1.006  0.00  0.00    -0.271 OA
BRANCH  30  33
ATOM     33  C   UNL d   1      26.288 -14.005   0.216  0.00  0.00     0.122 C 
BRANCH  33  34
ATOM     34  C   UNL d   1      26.290 -12.968   1.356  0.00  0.00     0.019 C 
BRANCH  34  35
ATOM     35  C   UNL d   1      27.602 -13.056   2.118  0.00  0.00    -0.003 C 
ATOM     36  C   UNL d   1      27.858 -14.438   2.689  0.00  0.00     0.005 C 
ENDBRANCH  34  35
ENDBRANCH  33  34
ENDBRANCH  30  33
ENDBRANCH   1  29
TORSDOF 13
ENDMDL
MODEL 8
REMARK VINA RESULT:    -6.196      2.262      4.720
REMARK INTER + INTRA:         -13.767
REMARK INTER:                 -10.074
REMARK INTRA:                  -3.693
REMARK CONF_INDEPENDENT:        3.878
REMARK UNBOUND:                -3.693
REMARK  13 active torsions:
REMARK  status: ('A' for Active; 'I' for Inactive)
REMARK    1  A    between atoms: C_2  and  C_3 
REMARK    2  A    between atoms: C_3  and  C_4 
REMARK    3  A    between atoms: C_4  and  N_5 
REMARK       I    between atoms: N_5  and  C_6 
REMARK    4  A    between atoms: C_8  and  C_6 
REMARK    5  A    between atoms: C_8  and  N_18 
REMARK    6  A    between atoms: C_8  and  C_9 
REMARK    7  A    between atoms: C_10  and  O_11 
REMARK    8  A    between atoms: C_13  and  O_14 
REMARK    9  A    between atoms: C_16  and  O_17 
REMARK       I    between atoms: N_18  and  C_19 
REMARK   10  A    between atoms: N_18  and  C_29 
REMARK   11  A    between atoms: C_19  and  C_21 
REMARK   12  A    between atoms: C_21  and  C_22 
REMARK   13  A    between atoms: C_22  and  C_23 
ROOT
ATOM      1  C   UNL d   1      29.312 -14.689  -3.956  0.00  0.00     0.219 C 
ENDROOT
BRANCH   1   2
ATOM      2  N   UNL d   1      29.901 -16.079  -3.493  0.00  0.00    -0.326 N 
ATOM      3  C   UNL d   1      29.609 -16.710  -2.238  0.00  0.00     0.221 C 
ATOM      4  O   UNL d   1      30.080 -17.791  -1.875  0.00  0.00    -0.273 OA
BRANCH   3   5
ATOM      5  C   UNL d   1      28.662 -16.114  -1.234  0.00  0.00     0.103 C 
BRANCH   5   6
ATOM      6  C   UNL d   1      27.991 -17.088  -0.259  0.00  0.00     0.014 C 
BRANCH   6   7
ATOM      7  C   UNL d   1      26.440 -16.995  -0.200  0.00  0.00    -0.014 C 
ATOM      8  C   UNL d   1      25.868 -16.763  -1.613  0.00  0.00     0.004 C 
ATOM      9  C   UNL d   1      24.336 -16.773  -1.645  0.00  0.00     0.000 C 
ATOM     10  C   UNL d   1      23.766 -18.067  -1.085  0.00  0.00     0.000 C 
ATOM     11  C   UNL d   1      24.257 -18.200   0.353  0.00  0.00     0.000 C 
ATOM     12  C   UNL d   1      25.779 -18.234   0.376  0.00  0.00     0.004 C 
ENDBRANCH   6   7
ENDBRANCH   5   6
ENDBRANCH   3   5
BRANCH   2  13
ATOM     13  C   UNL d   1      30.712 -16.932  -4.524  0.00  0.00     0.025 C 
ATOM     14  C   UNL d   1      32.222 -16.895  -4.239  0.00  0.00     0.037 C 
ATOM     15  C   UNL d   1      30.367 -18.420  -4.569  0.00  0.00     0.037 C 
ATOM     16  C   UNL d   1      30.455 -16.552  -5.998  0.00  0.00     0.037 C 
ENDBRANCH   2  13
ENDBRANCH   1   2
BRANCH   1  17
ATOM     17  C   UNL d   1      27.802 -14.512  -3.861  0.00  0.00     0.040 C 
ATOM     18  C   UNL d   1      27.136 -13.920  -2.772  0.00  0.00     0.080 C 
ATOM     19  C   UNL d   1      25.750 -13.757  -2.805  0.00  0.00     0.073 C 
ATOM     20  C   UNL d   1      25.018 -14.253  -3.888  0.00  0.00     0.071 C 
ATOM     21  C   UNL d   1      25.656 -14.743  -5.020  0.00  0.00     0.073 C 
ATOM     22  C   UNL d   1      27.031 -14.884  -4.991  0.00  0.00     0.080 C 
BRANCH  18  23
ATOM     23  O   UNL d   1      27.759 -13.326  -1.708  0.00  0.00    -0.360 OA
ATOM     24  H   UNL d   1      28.496 -12.765  -1.988  0.00  0.00     0.217 HD
ENDBRANCH  18  23
BRANCH  20  25
ATOM     25  O   UNL d   1      23.671 -14.074  -3.977  0.00  0.00    -0.361 OA
ATOM     26  H   UNL d   1      23.491 -13.538  -4.767  0.00  0.00     0.217 HD
ENDBRANCH  20  25
BRANCH  22  27
ATOM     27  O   UNL d   1      27.686 -15.201  -6.159  0.00  0.00    -0.360 OA
ATOM     28  H   UNL d   1      27.403 -14.589  -6.860  0.00  0.00     0.217 HD
ENDBRANCH  22  27
ENDBRANCH   1  17
BRANCH   1  29
ATOM     29  C   UNL d   1      29.923 -13.306  -3.414  0.00  0.00     0.245 C 
ATOM     30  N   UNL d   1      29.666 -12.226  -4.195  0.00  0.00    -0.359 N 
ATOM     31  H   UNL d   1      29.600 -12.483  -5.168  0.00  0.00     0.162 HD
ATOM     32  O   UNL d   1      30.592 -13.215  -2.370  0.00  0.00    -0.271 OA
BRANCH  30  33
ATOM     33  C   UNL d   1      29.925 -10.842  -3.881  0.00  0.00     0.122 C 
BRANCH  33  34
ATOM     34  C   UNL d   1      28.952  -9.879  -4.590  0.00  0.00     0.019 C 
BRANCH  34  35
ATOM     35  C   UNL d   1      27.543 -10.109  -4.068  0.00  0.00    -0.003 C 
ATOM     36  C   UNL d   1      26.758 -11.096  -4.911  0.00  0.00     0.005 C 
ENDBRANCH  34  35
ENDBRANCH  33  34
ENDBRANCH  30  33
ENDBRANCH   1  29
TORSDOF 13
ENDMDL
MODEL 9
REMARK VINA RESULT:    -6.093      2.216      4.932
REMARK INTER + INTRA:         -13.812
REMARK INTER:                  -9.971
REMARK INTRA:                  -3.841
REMARK CONF_INDEPENDENT:        3.878
REMARK UNBOUND:                -3.841
REMARK  13 active torsions:
REMARK  status: ('A' for Active; 'I' for Inactive)
REMARK    1  A    between atoms: C_2  and  C_3 
REMARK    2  A    between atoms: C_3  and  C_4 
REMARK    3  A    between atoms: C_4  and  N_5 
REMARK       I    between atoms: N_5  and  C_6 
REMARK    4  A    between atoms: C_8  and  C_6 
REMARK    5  A    between atoms: C_8  and  N_18 
REMARK    6  A    between atoms: C_8  and  C_9 
REMARK    7  A    between atoms: C_10  and  O_11 
REMARK    8  A    between atoms: C_13  and  O_14 
REMARK    9  A    between atoms: C_16  and  O_17 
REMARK       I    between atoms: N_18  and  C_19 
REMARK   10  A    between atoms: N_18  and  C_29 
REMARK   11  A    between atoms: C_19  and  C_21 
REMARK   12  A    between atoms: C_21  and  C_22 
REMARK   13  A    between atoms: C_22  and  C_23 
ROOT
ATOM      1  C   UNL d   1      28.853 -15.857  -4.652  0.00  0.00     0.219 C 
ENDROOT
BRANCH   1   2
ATOM      2  N   UNL d   1      29.689 -16.609  -3.545  0.00  0.00    -0.326 N 
ATOM      3  C   UNL d   1      29.240 -16.841  -2.202  0.00  0.00     0.221 C 
ATOM      4  O   UNL d   1      29.901 -17.420  -1.336  0.00  0.00    -0.273 OA
BRANCH   3   5
ATOM      5  C   UNL d   1      27.882 -16.415  -1.719  0.00  0.00     0.103 C 
BRANCH   5   6
ATOM      6  C   UNL d   1      27.404 -17.016  -0.392  0.00  0.00     0.014 C 
BRANCH   6   7
ATOM      7  C   UNL d   1      25.868 -16.953  -0.157  0.00  0.00    -0.014 C 
ATOM      8  C   UNL d   1      25.170 -16.318  -1.377  0.00  0.00     0.004 C 
ATOM      9  C   UNL d   1      23.643 -16.327  -1.260  0.00  0.00     0.000 C 
ATOM     10  C   UNL d   1      23.097 -17.731  -1.052  0.00  0.00     0.000 C 
ATOM     11  C   UNL d   1      23.720 -18.280   0.228  0.00  0.00     0.000 C 
ATOM     12  C   UNL d   1      25.236 -18.311   0.091  0.00  0.00     0.004 C 
ENDBRANCH   6   7
ENDBRANCH   5   6
ENDBRANCH   3   5
BRANCH   2  13
ATOM     13  C   UNL d   1      31.021 -17.318  -3.961  0.00  0.00     0.025 C 
ATOM     14  C   UNL d   1      32.247 -16.420  -3.729  0.00  0.00     0.037 C 
ATOM     15  C   UNL d   1      31.345 -18.610  -3.211  0.00  0.00     0.037 C 
ATOM     16  C   UNL d   1      31.030 -17.841  -5.413  0.00  0.00     0.037 C 
ENDBRANCH   2  13
ENDBRANCH   1   2
BRANCH   1  17
ATOM     17  C   UNL d   1      27.921 -14.747  -4.181  0.00  0.00     0.040 C 
ATOM     18  C   UNL d   1      28.299 -13.701  -3.320  0.00  0.00     0.080 C 
ATOM     19  C   UNL d   1      27.382 -12.702  -2.988  0.00  0.00     0.073 C 
ATOM     20  C   UNL d   1      26.065 -12.787  -3.451  0.00  0.00     0.071 C 
ATOM     21  C   UNL d   1      25.694 -13.745  -4.384  0.00  0.00     0.073 C 
ATOM     22  C   UNL d   1      26.612 -14.722  -4.726  0.00  0.00     0.080 C 
BRANCH  18  23
ATOM     23  O   UNL d   1      29.576 -13.475  -2.883  0.00  0.00    -0.360 OA
ATOM     24  H   UNL d   1      29.641 -13.521  -1.918  0.00  0.00     0.217 HD
ENDBRANCH  18  23
BRANCH  20  25
ATOM     25  O   UNL d   1      25.155 -11.810  -3.185  0.00  0.00    -0.361 OA
ATOM     26  H   UNL d   1      24.753 -11.538  -4.027  0.00  0.00     0.217 HD
ENDBRANCH  20  25
BRANCH  22  27
ATOM     27  O   UNL d   1      26.319 -15.566  -5.771  0.00  0.00    -0.360 OA
ATOM     28  H   UNL d   1      27.063 -15.570  -6.397  0.00  0.00     0.217 HD
ENDBRANCH  22  27
ENDBRANCH   1  17
BRANCH   1  29
ATOM     29  C   UNL d   1      29.559 -15.267  -5.969  0.00  0.00     0.245 C 
ATOM     30  N   UNL d   1      30.561 -14.383  -5.730  0.00  0.00    -0.359 N 
ATOM     31  H   UNL d   1      30.397 -13.861  -4.883  0.00  0.00     0.162 HD
ATOM     32  O   UNL d   1      29.219 -15.574  -7.124  0.00  0.00    -0.271 OA
BRANCH  30  33
ATOM     33  C   UNL d   1      31.486 -13.832  -6.691  0.00  0.00     0.122 C 
BRANCH  33  34
ATOM     34  C   UNL d   1      30.807 -12.871  -7.685  0.00  0.00     0.019 C 
BRANCH  34  35
ATOM     35  C   UNL d   1      29.769 -12.036  -6.953  0.00  0.00    -0.003 C 
ATOM     36  C   UNL d   1      28.350 -12.507  -7.206  0.00  0.00     0.005 C 
ENDBRANCH  34  35
ENDBRANCH  33  34
ENDBRANCH  30  33
ENDBRANCH   1  29
TORSDOF 13
ENDMDL
