MODEL 1
REMARK VINA RESULT:   -11.769      0.000      0.000
REMARK INTER + INTRA:         -15.706
REMARK INTER:                 -14.155
REMARK INTRA:                  -1.551
REMARK CONF_INDEPENDENT:        2.386
REMARK UNBOUND:                -1.551
REMARK  8 active torsions:
REMARK  status: ('A' for Active; 'I' for Inactive)
REMARK    1  A    between atoms: O_2  and  C_3 
REMARK    2  A    between atoms: C_6  and  N_7 
REMARK       I    between atoms: N_7  and  C_8 
REMARK       I    between atoms: C_8  and  N_22 
REMARK       I    between atoms: N_9  and  C_10 
REMARK    3  A    between atoms: C_10  and  C_12 
REMARK    4  A    between atoms: C_16  and  N_17 
REMARK       I    between atoms: N_17  and  C_18 
REMARK    5  A    between atoms: N_22  and  C_23 
REMARK    6  A    between atoms: C_23  and  C_24 
REMARK    7  A    between atoms: C_24  and  C_25 
REMARK    8  A    between atoms: C_35  and  O_36 
ROOT
ATOM      1  N   UNL d   1      25.155 -16.175  -3.075  0.00  0.00    -0.190 N 
ATOM      2  C   UNL d   1      25.048 -16.563  -1.718  0.00  0.00     0.704 C 
ATOM      3  N   UNL d   1      25.476 -15.975  -0.634  0.00  0.00    -0.023 NA
ATOM      4  C   UNL d   1      26.577 -15.161  -0.755  0.00  0.00     0.294 C 
ATOM      5  O   UNL d   1      27.583 -15.542  -1.314  0.00  0.00    -0.265 OA
ATOM      6  N   UNL d   1      24.362 -17.766  -1.457  0.00  0.00    -0.224 N 
ATOM      7  H   UNL d   1      24.987 -16.896  -3.765  0.00  0.00     0.184 HD
ATOM      8  H   UNL d   1      24.207 -18.439  -2.200  0.00  0.00     0.177 HD
ENDROOT
BRANCH   1   9
ATOM      9  C   UNL d   1      25.782 -15.002  -3.639  0.00  0.00     0.052 C 
ATOM     10  C   UNL d   1      25.292 -13.707  -3.560  0.00  0.00     0.033 C 
ATOM     11  C   UNL d   1      25.822 -12.662  -4.405  0.00  0.00     0.042 C 
ATOM     12  C   UNL d   1      26.769 -12.888  -5.429  0.00  0.00     0.101 C 
ATOM     13  C   UNL d   1      27.238 -14.170  -5.483  0.00  0.00     0.103 C 
ATOM     14  C   UNL d   1      26.941 -15.044  -4.394  0.00  0.00     0.069 C 
BRANCH  12  15
ATOM     15  O   UNL d   1      27.366 -11.783  -5.982  0.00  0.00    -0.353 OA
ATOM     16  C   UNL d   1      26.661 -10.818  -6.757  0.00  0.00     0.210 C 
ENDBRANCH  12  15
BRANCH  13  17
ATOM     17  O   UNL d   1      27.845 -14.828  -6.502  0.00  0.00    -0.353 OA
ATOM     18  C   UNL d   1      29.168 -15.265  -6.459  0.00  0.00     0.210 C 
ENDBRANCH  13  17
ENDBRANCH   1   9
BRANCH   6  19
ATOM     19  C   UNL d   1      24.316 -18.291  -0.065  0.00  0.00     0.142 C 
BRANCH  19  20
ATOM     20  C   UNL d   1      22.947 -18.226   0.604  0.00  0.00     0.057 C 
BRANCH  20  21
ATOM     21  C   UNL d   1      21.766 -18.796  -0.153  0.00  0.00    -0.048 A 
ATOM     22  C   UNL d   1      20.722 -19.299   0.512  0.00  0.00    -0.006 A 
ATOM     23  C   UNL d   1      20.490 -19.417   1.905  0.00  0.00     0.014 C 
ATOM     24  C   UNL d   1      19.781 -19.821  -0.486  0.00  0.00     0.038 A 
ATOM     25  C   UNL d   1      19.448 -20.147   2.314  0.00  0.00     0.001 C 
ATOM     26  C   UNL d   1      18.477 -20.669   1.366  0.00  0.00     0.002 C 
ATOM     27  C   UNL d   1      18.585 -20.531   0.027  0.00  0.00     0.030 C 
ATOM     28  N   UNL d   1      20.183 -19.576  -1.675  0.00  0.00    -0.385 N 
ATOM     29  C   UNL d   1      21.550 -18.949  -1.638  0.00  0.00     0.155 A 
ATOM     30  H   UNL d   1      19.616 -19.790  -2.498  0.00  0.00     0.160 HD
ENDBRANCH  20  21
ENDBRANCH  19  20
ENDBRANCH   6  19
BRANCH   4  31
ATOM     31  C   UNL d   1      26.664 -13.977   0.208  0.00  0.00     0.036 C 
ATOM     32  C   UNL d   1      26.750 -12.588   0.122  0.00  0.00     0.017 C 
ATOM     33  C   UNL d   1      27.475 -11.885   1.116  0.00  0.00     0.003 C 
ATOM     34  C   UNL d   1      28.024 -12.559   2.222  0.00  0.00     0.029 C 
ATOM     35  C   UNL d   1      27.828 -13.929   2.328  0.00  0.00     0.035 C 
ATOM     36  C   UNL d   1      27.064 -14.532   1.374  0.00  0.00     0.046 C 
BRANCH  35  37
ATOM     37  N   UNL d   1      28.335 -14.739   3.345  0.00  0.00    -0.327 N 
ATOM     38  C   UNL d   1      28.271 -14.594   4.713  0.00  0.00     0.218 C 
ATOM     39  C   UNL d   1      27.507 -13.509   5.486  0.00  0.00     0.117 C 
ATOM     40  O   UNL d   1      28.923 -15.403   5.387  0.00  0.00    -0.274 OA
ATOM     41  H   UNL d   1      28.830 -15.575   3.056  0.00  0.00     0.169 HD
ENDBRANCH  35  37
ENDBRANCH   4  31
TORSDOF 8
ENDMDL
MODEL 2
REMARK VINA RESULT:   -10.566      2.331      4.770
REMARK INTER + INTRA:         -15.542
REMARK INTER:                 -12.952
REMARK INTRA:                  -2.590
REMARK CONF_INDEPENDENT:        2.386
REMARK UNBOUND:                -2.590
REMARK  8 active torsions:
REMARK  status: ('A' for Active; 'I' for Inactive)
REMARK    1  A    between atoms: O_2  and  C_3 
REMARK    2  A    between atoms: C_6  and  N_7 
REMARK       I    between atoms: N_7  and  C_8 
REMARK       I    between atoms: C_8  and  N_22 
REMARK       I    between atoms: N_9  and  C_10 
REMARK    3  A    between atoms: C_10  and  C_12 
REMARK    4  A    between atoms: C_16  and  N_17 
REMARK       I    between atoms: N_17  and  C_18 
REMARK    5  A    between atoms: N_22  and  C_23 
REMARK    6  A    between atoms: C_23  and  C_24 
REMARK    7  A    between atoms: C_24  and  C_25 
REMARK    8  A    between atoms: C_35  and  O_36 
ROOT
ATOM      1  N   UNL d   1      26.981 -16.860   0.386  0.00  0.00    -0.190 N 
ATOM      2  C   UNL d   1      25.823 -17.201  -0.354  0.00  0.00     0.704 C 
ATOM      3  N   UNL d   1      25.361 -16.716  -1.474  0.00  0.00    -0.023 NA
ATOM      4  C   UNL d   1      25.686 -15.415  -1.776  0.00  0.00     0.294 C 
ATOM      5  O   UNL d   1      25.530 -14.524  -0.969  0.00  0.00    -0.265 OA
ATOM      6  N   UNL d   1      25.022 -18.237   0.169  0.00  0.00    -0.224 N 
ATOM      7  H   UNL d   1      27.010 -17.174   1.347  0.00  0.00     0.184 HD
ATOM      8  H   UNL d   1      25.117 -18.520   1.138  0.00  0.00     0.177 HD
ENDROOT
BRANCH   1   9
ATOM      9  C   UNL d   1      27.983 -15.861   0.095  0.00  0.00     0.052 C 
ATOM     10  C   UNL d   1      28.208 -14.706   0.827  0.00  0.00     0.033 C 
ATOM     11  C   UNL d   1      29.013 -13.633   0.290  0.00  0.00     0.042 C 
ATOM     12  C   UNL d   1      29.524 -13.622  -1.027  0.00  0.00     0.101 C 
ATOM     13  C   UNL d   1      29.291 -14.773  -1.726  0.00  0.00     0.103 C 
ATOM     14  C   UNL d   1      28.813 -15.913  -1.011  0.00  0.00     0.069 C 
BRANCH  12  15
ATOM     15  O   UNL d   1      30.469 -12.673  -1.323  0.00  0.00    -0.353 OA
ATOM     16  C   UNL d   1      31.476 -12.853  -2.315  0.00  0.00     0.210 C 
ENDBRANCH  12  15
BRANCH  13  17
ATOM     17  O   UNL d   1      29.303 -14.991  -3.065  0.00  0.00    -0.353 OA
ATOM     18  C   UNL d   1      29.702 -16.192  -3.649  0.00  0.00     0.210 C 
ENDBRANCH  13  17
ENDBRANCH   1   9
BRANCH   6  19
ATOM     19  C   UNL d   1      23.730 -18.565  -0.495  0.00  0.00     0.142 C 
BRANCH  19  20
ATOM     20  C   UNL d   1      22.494 -18.405   0.385  0.00  0.00     0.057 C 
BRANCH  20  21
ATOM     21  C   UNL d   1      21.185 -18.960  -0.133  0.00  0.00    -0.048 A 
ATOM     22  C   UNL d   1      20.306 -19.507   0.711  0.00  0.00    -0.006 A 
ATOM     23  C   UNL d   1      20.371 -19.687   2.115  0.00  0.00     0.014 C 
ATOM     24  C   UNL d   1      19.181 -20.001  -0.091  0.00  0.00     0.038 A 
ATOM     25  C   UNL d   1      19.442 -20.450   2.700  0.00  0.00     0.001 C 
ATOM     26  C   UNL d   1      18.297 -20.946   1.952  0.00  0.00     0.002 C 
ATOM     27  C   UNL d   1      18.123 -20.750   0.628  0.00  0.00     0.030 C 
ATOM     28  N   UNL d   1      19.324 -19.700  -1.326  0.00  0.00    -0.385 N 
ATOM     29  C   UNL d   1      20.664 -19.054  -1.546  0.00  0.00     0.155 A 
ATOM     30  H   UNL d   1      18.599 -19.888  -2.021  0.00  0.00     0.160 HD
ENDBRANCH  20  21
ENDBRANCH  19  20
ENDBRANCH   6  19
BRANCH   4  31
ATOM     31  C   UNL d   1      25.805 -15.065  -3.258  0.00  0.00     0.036 C 
ATOM     32  C   UNL d   1      26.449 -15.575  -4.386  0.00  0.00     0.017 C 
ATOM     33  C   UNL d   1      26.892 -14.675  -5.386  0.00  0.00     0.003 C 
ATOM     34  C   UNL d   1      26.614 -13.300  -5.296  0.00  0.00     0.029 C 
ATOM     35  C   UNL d   1      25.879 -12.842  -4.210  0.00  0.00     0.035 C 
ATOM     36  C   UNL d   1      25.425 -13.768  -3.320  0.00  0.00     0.046 C 
BRANCH  35  37
ATOM     37  N   UNL d   1      25.551 -11.508  -3.965  0.00  0.00    -0.327 N 
ATOM     38  C   UNL d   1      26.094 -10.606  -3.077  0.00  0.00     0.218 C 
ATOM     39  C   UNL d   1      27.313 -10.832  -2.170  0.00  0.00     0.117 C 
ATOM     40  O   UNL d   1      25.521  -9.513  -2.977  0.00  0.00    -0.274 OA
ATOM     41  H   UNL d   1      24.798 -11.116  -4.519  0.00  0.00     0.169 HD
ENDBRANCH  35  37
ENDBRANCH   4  31
TORSDOF 8
ENDMDL
MODEL 3
REMARK VINA RESULT:   -10.248      2.376      5.320
REMARK INTER + INTRA:         -15.423
REMARK INTER:                 -12.635
REMARK INTRA:                  -2.788
REMARK CONF_INDEPENDENT:        2.386
REMARK UNBOUND:                -2.788
REMARK  8 active torsions:
REMARK  status: ('A' for Active; 'I' for Inactive)
REMARK    1  A    between atoms: O_2  and  C_3 
REMARK    2  A    between atoms: C_6  and  N_7 
REMARK       I    between atoms: N_7  and  C_8 
REMARK       I    between atoms: C_8  and  N_22 
REMARK       I    between atoms: N_9  and  C_10 
REMARK    3  A    between atoms: C_10  and  C_12 
REMARK    4  A    between atoms: C_16  and  N_17 
REMARK       I    between atoms: N_17  and  C_18 
REMARK    5  A    between atoms: N_22  and  C_23 
REMARK    6  A    between atoms: C_23  and  C_24 
REMARK    7  A    between atoms: C_24  and  C_25 
REMARK    8  A    between atoms: C_35  and  O_36 
ROOT
ATOM      1  N   UNL d   1      27.123 -17.330   0.457  0.00  0.00    -0.190 N 
ATOM      2  C   UNL d   1      25.888 -17.314  -0.235  0.00  0.00     0.704 C 
ATOM      3  N   UNL d   1      25.428 -16.477  -1.125  0.00  0.00    -0.023 NA
ATOM      4  C   UNL d   1      25.901 -15.188  -1.077  0.00  0.00     0.294 C 
ATOM      5  O   UNL d   1      25.912 -14.559  -0.041  0.00  0.00    -0.265 OA
ATOM      6  N   UNL d   1      24.992 -18.365   0.047  0.00  0.00    -0.224 N 
ATOM      7  H   UNL d   1      27.169 -17.912   1.283  0.00  0.00     0.184 HD
ATOM      8  H   UNL d   1      25.107 -18.926   0.884  0.00  0.00     0.177 HD
ENDROOT
BRANCH   1   9
ATOM      9  C   UNL d   1      28.228 -16.405   0.365  0.00  0.00     0.052 C 
ATOM     10  C   UNL d   1      28.379 -15.250   1.117  0.00  0.00     0.033 C 
ATOM     11  C   UNL d   1      29.346 -14.244   0.744  0.00  0.00     0.042 C 
ATOM     12  C   UNL d   1      30.110 -14.295  -0.443  0.00  0.00     0.101 C 
ATOM     13  C   UNL d   1      29.945 -15.444  -1.164  0.00  0.00     0.103 C 
ATOM     14  C   UNL d   1      29.258 -16.534  -0.550  0.00  0.00     0.069 C 
BRANCH  12  15
ATOM     15  O   UNL d   1      31.157 -13.415  -0.551  0.00  0.00    -0.353 OA
ATOM     16  C   UNL d   1      32.521 -13.823  -0.602  0.00  0.00     0.210 C 
ENDBRANCH  12  15
BRANCH  13  17
ATOM     17  O   UNL d   1      30.211 -15.691  -2.471  0.00  0.00    -0.353 OA
ATOM     18  C   UNL d   1      31.017 -16.741  -2.910  0.00  0.00     0.210 C 
ENDBRANCH  13  17
ENDBRANCH   1   9
BRANCH   6  19
ATOM     19  C   UNL d   1      23.631 -18.344  -0.556  0.00  0.00     0.142 C 
BRANCH  19  20
ATOM     20  C   UNL d   1      22.483 -18.515   0.435  0.00  0.00     0.057 C 
BRANCH  20  21
ATOM     21  C   UNL d   1      21.162 -19.025  -0.100  0.00  0.00    -0.048 A 
ATOM     22  C   UNL d   1      20.254 -19.540   0.733  0.00  0.00    -0.006 A 
ATOM     23  C   UNL d   1      20.295 -19.721   2.138  0.00  0.00     0.014 C 
ATOM     24  C   UNL d   1      19.123 -19.995  -0.083  0.00  0.00     0.038 A 
ATOM     25  C   UNL d   1      19.333 -20.450   2.711  0.00  0.00     0.001 C 
ATOM     26  C   UNL d   1      18.181 -20.908   1.949  0.00  0.00     0.002 C 
ATOM     27  C   UNL d   1      18.030 -20.707   0.623  0.00  0.00     0.030 C 
ATOM     28  N   UNL d   1      19.292 -19.700  -1.316  0.00  0.00    -0.385 N 
ATOM     29  C   UNL d   1      20.656 -19.101  -1.520  0.00  0.00     0.155 A 
ATOM     30  H   UNL d   1      18.570 -19.864  -2.020  0.00  0.00     0.160 HD
ENDBRANCH  20  21
ENDBRANCH  19  20
ENDBRANCH   6  19
BRANCH   4  31
ATOM     31  C   UNL d   1      25.977 -14.436  -2.406  0.00  0.00     0.036 C 
ATOM     32  C   UNL d   1      25.103 -13.750  -3.248  0.00  0.00     0.017 C 
ATOM     33  C   UNL d   1      25.335 -13.780  -4.645  0.00  0.00     0.003 C 
ATOM     34  C   UNL d   1      26.474 -14.411  -5.176  0.00  0.00     0.029 C 
ATOM     35  C   UNL d   1      27.378 -14.994  -4.297  0.00  0.00     0.035 C 
ATOM     36  C   UNL d   1      27.130 -14.870  -2.963  0.00  0.00     0.046 C 
BRANCH  35  37
ATOM     37  N   UNL d   1      28.533 -15.682  -4.669  0.00  0.00    -0.327 N 
ATOM     38  C   UNL d   1      29.317 -15.561  -5.796  0.00  0.00     0.218 C 
ATOM     39  C   UNL d   1      29.156 -14.526  -6.919  0.00  0.00     0.117 C 
ATOM     40  O   UNL d   1      30.223 -16.394  -5.932  0.00  0.00    -0.274 OA
ATOM     41  H   UNL d   1      28.872 -16.385  -4.023  0.00  0.00     0.169 HD
ENDBRANCH  35  37
ENDBRANCH   4  31
TORSDOF 8
ENDMDL
MODEL 4
REMARK VINA RESULT:   -10.224      4.163      8.100
REMARK INTER + INTRA:         -14.829
REMARK INTER:                 -12.611
REMARK INTRA:                  -2.218
REMARK CONF_INDEPENDENT:        2.386
REMARK UNBOUND:                -2.218
REMARK  8 active torsions:
REMARK  status: ('A' for Active; 'I' for Inactive)
REMARK    1  A    between atoms: O_2  and  C_3 
REMARK    2  A    between atoms: C_6  and  N_7 
REMARK       I    between atoms: N_7  and  C_8 
REMARK       I    between atoms: C_8  and  N_22 
REMARK       I    between atoms: N_9  and  C_10 
REMARK    3  A    between atoms: C_10  and  C_12 
REMARK    4  A    between atoms: C_16  and  N_17 
REMARK       I    between atoms: N_17  and  C_18 
REMARK    5  A    between atoms: N_22  and  C_23 
REMARK    6  A    between atoms: C_23  and  C_24 
REMARK    7  A    between atoms: C_24  and  C_25 
REMARK    8  A    between atoms: C_35  and  O_36 
ROOT
ATOM      1  N   UNL d   1      29.233 -14.405   3.342  0.00  0.00    -0.190 N 
ATOM      2  C   UNL d   1      28.873 -14.207   1.987  0.00  0.00     0.704 C 
ATOM      3  N   UNL d   1      28.179 -13.253   1.427  0.00  0.00    -0.023 NA
ATOM      4  C   UNL d   1      27.247 -12.614   2.210  0.00  0.00     0.294 C 
ATOM      5  O   UNL d   1      26.440 -13.238   2.864  0.00  0.00    -0.265 OA
ATOM      6  N   UNL d   1      29.334 -15.167   1.064  0.00  0.00    -0.224 N 
ATOM      7  H   UNL d   1      29.546 -15.334   3.593  0.00  0.00     0.184 HD
ATOM      8  H   UNL d   1      29.656 -16.074   1.384  0.00  0.00     0.177 HD
ENDROOT
BRANCH   1   9
ATOM      9  C   UNL d   1      28.920 -13.592   4.494  0.00  0.00     0.052 C 
ATOM     10  C   UNL d   1      29.120 -12.224   4.595  0.00  0.00     0.033 C 
ATOM     11  C   UNL d   1      29.064 -11.560   5.877  0.00  0.00     0.042 C 
ATOM     12  C   UNL d   1      28.923 -12.242   7.106  0.00  0.00     0.101 C 
ATOM     13  C   UNL d   1      28.725 -13.588   6.978  0.00  0.00     0.103 C 
ATOM     14  C   UNL d   1      28.431 -14.107   5.682  0.00  0.00     0.069 C 
BRANCH  12  15
ATOM     15  O   UNL d   1      28.637 -11.483   8.212  0.00  0.00    -0.353 OA
ATOM     16  C   UNL d   1      29.621 -11.077   9.160  0.00  0.00     0.210 C 
ENDBRANCH  12  15
BRANCH  13  17
ATOM     17  O   UNL d   1      28.905 -14.579   7.887  0.00  0.00    -0.353 OA
ATOM     18  C   UNL d   1      29.660 -14.433   9.049  0.00  0.00     0.210 C 
ENDBRANCH  13  17
ENDBRANCH   1   9
BRANCH   6  19
ATOM     19  C   UNL d   1      28.893 -15.083  -0.356  0.00  0.00     0.142 C 
BRANCH  19  20
ATOM     20  C   UNL d   1      27.393 -15.255  -0.577  0.00  0.00     0.057 C 
BRANCH  20  21
ATOM     21  C   UNL d   1      26.795 -16.621  -0.311  0.00  0.00    -0.048 A 
ATOM     22  C   UNL d   1      25.493 -16.835  -0.517  0.00  0.00    -0.006 A 
ATOM     23  C   UNL d   1      24.477 -15.955  -0.968  0.00  0.00     0.014 C 
ATOM     24  C   UNL d   1      25.210 -18.217  -0.117  0.00  0.00     0.038 A 
ATOM     25  C   UNL d   1      23.207 -16.363  -0.895  0.00  0.00     0.001 C 
ATOM     26  C   UNL d   1      22.876 -17.730  -0.523  0.00  0.00     0.002 C 
ATOM     27  C   UNL d   1      23.793 -18.651  -0.156  0.00  0.00     0.030 C 
ATOM     28  N   UNL d   1      26.280 -18.829   0.227  0.00  0.00    -0.385 N 
ATOM     29  C   UNL d   1      27.442 -17.874   0.223  0.00  0.00     0.155 A 
ATOM     30  H   UNL d   1      26.290 -19.825   0.455  0.00  0.00     0.160 HD
ENDBRANCH  20  21
ENDBRANCH  19  20
ENDBRANCH   6  19
BRANCH   4  31
ATOM     31  C   UNL d   1      26.966 -11.148   1.880  0.00  0.00     0.036 C 
ATOM     32  C   UNL d   1      27.030 -10.316   0.762  0.00  0.00     0.017 C 
ATOM     33  C   UNL d   1      27.356  -8.950   0.944  0.00  0.00     0.003 C 
ATOM     34  C   UNL d   1      27.526  -8.413   2.233  0.00  0.00     0.029 C 
ATOM     35  C   UNL d   1      27.352  -9.249   3.328  0.00  0.00     0.035 C 
ATOM     36  C   UNL d   1      26.972 -10.534   3.085  0.00  0.00     0.046 C 
BRANCH  35  37
ATOM     37  N   UNL d   1      27.516  -8.873   4.662  0.00  0.00    -0.327 N 
ATOM     38  C   UNL d   1      28.643  -8.461   5.338  0.00  0.00     0.218 C 
ATOM     39  C   UNL d   1      30.034  -8.210   4.737  0.00  0.00     0.117 C 
ATOM     40  O   UNL d   1      28.531  -8.309   6.562  0.00  0.00    -0.274 OA
ATOM     41  H   UNL d   1      26.688  -8.896   5.245  0.00  0.00     0.169 HD
ENDBRANCH  35  37
ENDBRANCH   4  31
TORSDOF 8
ENDMDL
MODEL 5
REMARK VINA RESULT:    -9.786      3.029      7.536
REMARK INTER + INTRA:         -15.037
REMARK INTER:                 -12.172
REMARK INTRA:                  -2.864
REMARK CONF_INDEPENDENT:        2.386
REMARK UNBOUND:                -2.864
REMARK  8 active torsions:
REMARK  status: ('A' for Active; 'I' for Inactive)
REMARK    1  A    between atoms: O_2  and  C_3 
REMARK    2  A    between atoms: C_6  and  N_7 
REMARK       I    between atoms: N_7  and  C_8 
REMARK       I    between atoms: C_8  and  N_22 
REMARK       I    between atoms: N_9  and  C_10 
REMARK    3  A    between atoms: C_10  and  C_12 
REMARK    4  A    between atoms: C_16  and  N_17 
REMARK       I    between atoms: N_17  and  C_18 
REMARK    5  A    between atoms: N_22  and  C_23 
REMARK    6  A    between atoms: C_23  and  C_24 
REMARK    7  A    between atoms: C_24  and  C_25 
REMARK    8  A    between atoms: C_35  and  O_36 
ROOT
ATOM      1  N   UNL d   1      29.245 -14.758   1.937  0.00  0.00    -0.190 N 
ATOM      2  C   UNL d   1      29.270 -15.229   0.602  0.00  0.00     0.704 C 
ATOM      3  N   UNL d   1      28.747 -14.724  -0.482  0.00  0.00    -0.023 NA
ATOM      4  C   UNL d   1      27.630 -13.938  -0.332  0.00  0.00     0.294 C 
ATOM      5  O   UNL d   1      26.680 -14.312   0.321  0.00  0.00    -0.265 OA
ATOM      6  N   UNL d   1      29.976 -16.426   0.367  0.00  0.00    -0.224 N 
ATOM      7  H   UNL d   1      29.486 -15.429   2.656  0.00  0.00     0.184 HD
ATOM      8  H   UNL d   1      30.207 -17.045   1.137  0.00  0.00     0.177 HD
ENDROOT
BRANCH   1   9
ATOM      9  C   UNL d   1      28.620 -13.570   2.471  0.00  0.00     0.052 C 
ATOM     10  C   UNL d   1      28.749 -12.289   1.958  0.00  0.00     0.033 C 
ATOM     11  C   UNL d   1      28.341 -11.138   2.729  0.00  0.00     0.042 C 
ATOM     12  C   UNL d   1      27.901 -11.209   4.070  0.00  0.00     0.101 C 
ATOM     13  C   UNL d   1      27.780 -12.483   4.550  0.00  0.00     0.103 C 
ATOM     14  C   UNL d   1      27.851 -13.565   3.622  0.00  0.00     0.069 C 
BRANCH  12  15
ATOM     15  O   UNL d   1      27.315 -10.086   4.595  0.00  0.00    -0.353 OA
ATOM     16  C   UNL d   1      27.931  -8.802   4.583  0.00  0.00     0.210 C 
ENDBRANCH  12  15
BRANCH  13  17
ATOM     17  O   UNL d   1      27.742 -12.924   5.833  0.00  0.00    -0.353 OA
ATOM     18  C   UNL d   1      28.530 -13.969   6.312  0.00  0.00     0.210 C 
ENDBRANCH  13  17
ENDBRANCH   1   9
BRANCH   6  19
ATOM     19  C   UNL d   1      29.942 -17.037  -0.990  0.00  0.00     0.142 C 
BRANCH  19  20
ATOM     20  C   UNL d   1      28.565 -17.075  -1.646  0.00  0.00     0.057 C 
BRANCH  20  21
ATOM     21  C   UNL d   1      27.387 -17.477  -0.785  0.00  0.00    -0.048 A 
ATOM     22  C   UNL d   1      26.154 -17.073  -1.104  0.00  0.00    -0.006 A 
ATOM     23  C   UNL d   1      25.699 -16.270  -2.179  0.00  0.00     0.014 C 
ATOM     24  C   UNL d   1      25.250 -17.567  -0.059  0.00  0.00     0.038 A 
ATOM     25  C   UNL d   1      24.434 -15.841  -2.159  0.00  0.00     0.001 C 
ATOM     26  C   UNL d   1      23.495 -16.316  -1.156  0.00  0.00     0.002 C 
ATOM     27  C   UNL d   1      23.831 -17.146  -0.145  0.00  0.00     0.030 C 
ATOM     28  N   UNL d   1      25.874 -18.293   0.790  0.00  0.00    -0.385 N 
ATOM     29  C   UNL d   1      27.348 -18.281   0.491  0.00  0.00     0.155 A 
ATOM     30  H   UNL d   1      25.393 -18.791   1.540  0.00  0.00     0.160 HD
ENDBRANCH  20  21
ENDBRANCH  19  20
ENDBRANCH   6  19
BRANCH   4  31
ATOM     31  C   UNL d   1      27.436 -12.821  -1.358  0.00  0.00     0.036 C 
ATOM     32  C   UNL d   1      27.093 -11.469  -1.351  0.00  0.00     0.017 C 
ATOM     33  C   UNL d   1      26.364 -10.943  -2.446  0.00  0.00     0.003 C 
ATOM     34  C   UNL d   1      26.065 -11.740  -3.565  0.00  0.00     0.029 C 
ATOM     35  C   UNL d   1      26.513 -13.054  -3.581  0.00  0.00     0.035 C 
ATOM     36  C   UNL d   1      27.267 -13.477  -2.528  0.00  0.00     0.046 C 
BRANCH  35  37
ATOM     37  N   UNL d   1      26.270 -13.975  -4.601  0.00  0.00    -0.327 N 
ATOM     38  C   UNL d   1      27.084 -14.952  -5.132  0.00  0.00     0.218 C 
ATOM     39  C   UNL d   1      28.485 -15.346  -4.640  0.00  0.00     0.117 C 
ATOM     40  O   UNL d   1      26.655 -15.550  -6.128  0.00  0.00    -0.274 OA
ATOM     41  H   UNL d   1      25.354 -13.943  -5.034  0.00  0.00     0.169 HD
ENDBRANCH  35  37
ENDBRANCH   4  31
TORSDOF 8
ENDMDL
MODEL 6
REMARK VINA RESULT:    -9.726      3.665      6.710
REMARK INTER + INTRA:         -14.965
REMARK INTER:                 -12.113
REMARK INTRA:                  -2.853
REMARK CONF_INDEPENDENT:        2.386
REMARK UNBOUND:                -2.853
REMARK  8 active torsions:
REMARK  status: ('A' for Active; 'I' for Inactive)
REMARK    1  A    between atoms: O_2  and  C_3 
REMARK    2  A    between atoms: C_6  and  N_7 
REMARK       I    between atoms: N_7  and  C_8 
REMARK       I    between atoms: C_8  and  N_22 
REMARK       I    between atoms: N_9  and  C_10 
REMARK    3  A    between atoms: C_10  and  C_12 
REMARK    4  A    between atoms: C_16  and  N_17 
REMARK       I    between atoms: N_17  and  C_18 
REMARK    5  A    between atoms: N_22  and  C_23 
REMARK    6  A    between atoms: C_23  and  C_24 
REMARK    7  A    between atoms: C_24  and  C_25 
REMARK    8  A    between atoms: C_35  and  O_36 
ROOT
ATOM      1  N   UNL d   1      30.153 -16.927   0.201  0.00  0.00    -0.190 N 
ATOM      2  C   UNL d   1      29.092 -16.063  -0.163  0.00  0.00     0.704 C 
ATOM      3  N   UNL d   1      28.754 -15.584  -1.330  0.00  0.00    -0.023 NA
ATOM      4  C   UNL d   1      29.752 -15.445  -2.264  0.00  0.00     0.294 C 
ATOM      5  O   UNL d   1      30.793 -14.887  -1.995  0.00  0.00    -0.265 OA
ATOM      6  N   UNL d   1      28.236 -15.641   0.874  0.00  0.00    -0.224 N 
ATOM      7  H   UNL d   1      30.389 -16.962   1.184  0.00  0.00     0.184 HD
ATOM      8  H   UNL d   1      28.525 -15.724   1.843  0.00  0.00     0.177 HD
ENDROOT
BRANCH   1   9
ATOM      9  C   UNL d   1      31.168 -17.523  -0.636  0.00  0.00     0.052 C 
ATOM     10  C   UNL d   1      32.522 -17.233  -0.594  0.00  0.00     0.033 C 
ATOM     11  C   UNL d   1      33.402 -17.647  -1.663  0.00  0.00     0.042 C 
ATOM     12  C   UNL d   1      32.953 -18.257  -2.855  0.00  0.00     0.101 C 
ATOM     13  C   UNL d   1      31.615 -18.535  -2.869  0.00  0.00     0.103 C 
ATOM     14  C   UNL d   1      30.890 -18.430  -1.645  0.00  0.00     0.069 C 
BRANCH  12  15
ATOM     15  O   UNL d   1      33.905 -18.819  -3.667  0.00  0.00    -0.353 OA
ATOM     16  C   UNL d   1      34.035 -20.223  -3.866  0.00  0.00     0.210 C 
ENDBRANCH  12  15
BRANCH  13  17
ATOM     17  O   UNL d   1      30.791 -18.769  -3.922  0.00  0.00    -0.353 OA
ATOM     18  C   UNL d   1      31.223 -18.809  -5.247  0.00  0.00     0.210 C 
ENDBRANCH  13  17
ENDBRANCH   1   9
BRANCH   6  19
ATOM     19  C   UNL d   1      27.175 -14.639   0.581  0.00  0.00     0.142 C 
BRANCH  19  20
ATOM     20  C   UNL d   1      26.046 -15.139  -0.315  0.00  0.00     0.057 C 
BRANCH  20  21
ATOM     21  C   UNL d   1      25.734 -16.621  -0.293  0.00  0.00    -0.048 A 
ATOM     22  C   UNL d   1      24.496 -17.050  -0.552  0.00  0.00    -0.006 A 
ATOM     23  C   UNL d   1      23.318 -16.325  -0.864  0.00  0.00     0.014 C 
ATOM     24  C   UNL d   1      24.499 -18.509  -0.396  0.00  0.00     0.038 A 
ATOM     25  C   UNL d   1      22.155 -16.982  -0.881  0.00  0.00     0.001 C 
ATOM     26  C   UNL d   1      22.108 -18.430  -0.750  0.00  0.00     0.002 C 
ATOM     27  C   UNL d   1      23.195 -19.201  -0.531  0.00  0.00     0.030 C 
ATOM     28  N   UNL d   1      25.675 -18.946  -0.145  0.00  0.00    -0.385 N 
ATOM     29  C   UNL d   1      26.625 -17.794   0.031  0.00  0.00     0.155 A 
ATOM     30  H   UNL d   1      25.885 -19.944  -0.088  0.00  0.00     0.160 HD
ENDBRANCH  20  21
ENDBRANCH  19  20
ENDBRANCH   6  19
BRANCH   4  31
ATOM     31  C   UNL d   1      29.343 -15.593  -3.730  0.00  0.00     0.036 C 
ATOM     32  C   UNL d   1      29.931 -15.422  -4.982  0.00  0.00     0.017 C 
ATOM     33  C   UNL d   1      29.124 -14.991  -6.064  0.00  0.00     0.003 C 
ATOM     34  C   UNL d   1      27.736 -14.825  -5.909  0.00  0.00     0.029 C 
ATOM     35  C   UNL d   1      27.170 -15.107  -4.673  0.00  0.00     0.035 C 
ATOM     36  C   UNL d   1      27.991 -15.581  -3.695  0.00  0.00     0.046 C 
BRANCH  35  37
ATOM     37  N   UNL d   1      25.819 -14.961  -4.355  0.00  0.00    -0.327 N 
ATOM     38  C   UNL d   1      25.140 -13.887  -3.821  0.00  0.00     0.218 C 
ATOM     39  C   UNL d   1      25.715 -12.494  -3.525  0.00  0.00     0.117 C 
ATOM     40  O   UNL d   1      23.954 -14.075  -3.520  0.00  0.00    -0.274 OA
ATOM     41  H   UNL d   1      25.220 -15.757  -4.541  0.00  0.00     0.169 HD
ENDBRANCH  35  37
ENDBRANCH   4  31
TORSDOF 8
ENDMDL
MODEL 7
REMARK VINA RESULT:    -9.542      4.235      7.842
REMARK INTER + INTRA:         -15.555
REMARK INTER:                 -11.928
REMARK INTRA:                  -3.627
REMARK CONF_INDEPENDENT:        2.386
REMARK UNBOUND:                -3.627
REMARK  8 active torsions:
REMARK  status: ('A' for Active; 'I' for Inactive)
REMARK    1  A    between atoms: O_2  and  C_3 
REMARK    2  A    between atoms: C_6  and  N_7 
REMARK       I    between atoms: N_7  and  C_8 
REMARK       I    between atoms: C_8  and  N_22 
REMARK       I    between atoms: N_9  and  C_10 
REMARK    3  A    between atoms: C_10  and  C_12 
REMARK    4  A    between atoms: C_16  and  N_17 
REMARK       I    between atoms: N_17  and  C_18 
REMARK    5  A    between atoms: N_22  and  C_23 
REMARK    6  A    between atoms: C_23  and  C_24 
REMARK    7  A    between atoms: C_24  and  C_25 
REMARK    8  A    between atoms: C_35  and  O_36 
ROOT
ATOM      1  N   UNL d   1      29.402 -14.570   3.360  0.00  0.00    -0.190 N 
ATOM      2  C   UNL d   1      28.956 -14.285   2.047  0.00  0.00     0.704 C 
ATOM      3  N   UNL d   1      28.233 -13.297   1.595  0.00  0.00    -0.023 NA
ATOM      4  C   UNL d   1      27.358 -12.705   2.476  0.00  0.00     0.294 C 
ATOM      5  O   UNL d   1      26.591 -13.368   3.141  0.00  0.00    -0.265 OA
ATOM      6  N   UNL d   1      29.348 -15.186   1.036  0.00  0.00    -0.224 N 
ATOM      7  H   UNL d   1      29.724 -15.514   3.531  0.00  0.00     0.184 HD
ATOM      8  H   UNL d   1      29.685 -16.112   1.277  0.00  0.00     0.177 HD
ENDROOT
BRANCH   1   9
ATOM      9  C   UNL d   1      29.171 -13.831   4.579  0.00  0.00     0.052 C 
ATOM     10  C   UNL d   1      28.116 -14.028   5.456  0.00  0.00     0.033 C 
ATOM     11  C   UNL d   1      27.804 -13.050   6.472  0.00  0.00     0.042 C 
ATOM     12  C   UNL d   1      28.451 -11.799   6.578  0.00  0.00     0.101 C 
ATOM     13  C   UNL d   1      29.488 -11.631   5.705  0.00  0.00     0.103 C 
ATOM     14  C   UNL d   1      29.962 -12.772   4.991  0.00  0.00     0.069 C 
BRANCH  12  15
ATOM     15  O   UNL d   1      28.233 -11.079   7.726  0.00  0.00    -0.353 OA
ATOM     16  C   UNL d   1      29.230 -10.874   8.722  0.00  0.00     0.210 C 
ENDBRANCH  12  15
BRANCH  13  17
ATOM     17  O   UNL d   1      30.083 -10.489   5.276  0.00  0.00    -0.353 OA
ATOM     18  C   UNL d   1      31.446 -10.384   5.005  0.00  0.00     0.210 C 
ENDBRANCH  13  17
ENDBRANCH   1   9
BRANCH   6  19
ATOM     19  C   UNL d   1      28.816 -15.011  -0.343  0.00  0.00     0.142 C 
BRANCH  19  20
ATOM     20  C   UNL d   1      27.307 -15.190  -0.480  0.00  0.00     0.057 C 
BRANCH  20  21
ATOM     21  C   UNL d   1      26.741 -16.577  -0.263  0.00  0.00    -0.048 A 
ATOM     22  C   UNL d   1      25.448 -16.818  -0.495  0.00  0.00    -0.006 A 
ATOM     23  C   UNL d   1      24.416 -15.952  -0.936  0.00  0.00     0.014 C 
ATOM     24  C   UNL d   1      25.195 -18.219  -0.139  0.00  0.00     0.038 A 
ATOM     25  C   UNL d   1      23.156 -16.394  -0.893  0.00  0.00     0.001 C 
ATOM     26  C   UNL d   1      22.856 -17.779  -0.566  0.00  0.00     0.002 C 
ATOM     27  C   UNL d   1      23.790 -18.687  -0.213  0.00  0.00     0.030 C 
ATOM     28  N   UNL d   1      26.276 -18.813   0.202  0.00  0.00    -0.385 N 
ATOM     29  C   UNL d   1      27.412 -17.829   0.244  0.00  0.00     0.155 A 
ATOM     30  H   UNL d   1      26.308 -19.814   0.402  0.00  0.00     0.160 HD
ENDBRANCH  20  21
ENDBRANCH  19  20
ENDBRANCH   6  19
BRANCH   4  31
ATOM     31  C   UNL d   1      27.067 -11.221   2.259  0.00  0.00     0.036 C 
ATOM     32  C   UNL d   1      27.027 -10.328   1.189  0.00  0.00     0.017 C 
ATOM     33  C   UNL d   1      27.390  -8.977   1.412  0.00  0.00     0.003 C 
ATOM     34  C   UNL d   1      27.699  -8.515   2.704  0.00  0.00     0.029 C 
ATOM     35  C   UNL d   1      27.626  -9.410   3.763  0.00  0.00     0.035 C 
ATOM     36  C   UNL d   1      27.204 -10.677   3.490  0.00  0.00     0.046 C 
BRANCH  35  37
ATOM     37  N   UNL d   1      27.931  -9.113   5.091  0.00  0.00    -0.327 N 
ATOM     38  C   UNL d   1      28.186  -7.902   5.696  0.00  0.00     0.218 C 
ATOM     39  C   UNL d   1      28.096  -6.514   5.045  0.00  0.00     0.117 C 
ATOM     40  O   UNL d   1      28.558  -7.939   6.877  0.00  0.00    -0.274 OA
ATOM     41  H   UNL d   1      27.974  -9.895   5.734  0.00  0.00     0.169 HD
ENDBRANCH  35  37
ENDBRANCH   4  31
TORSDOF 8
ENDMDL
