MODEL 1
REMARK VINA RESULT:    -8.085      0.000      0.000
REMARK INTER + INTRA:         -11.059
REMARK INTER:                  -9.279
REMARK INTRA:                  -1.780
REMARK CONF_INDEPENDENT:        1.193
REMARK UNBOUND:                -1.780
REMARK  4 active torsions:
REMARK  status: ('A' for Active; 'I' for Inactive)
REMARK    1  A    between atoms: C_3  and  N_4 
REMARK    2  A    between atoms: C_3  and  C_16 
REMARK       I    between atoms: N_4  and  C_5 
REMARK    3  A    between atoms: C_5  and  C_7 
REMARK       I    between atoms: C_7  and  N_9 
REMARK    4  A    between atoms: N_9  and  C_10 
ROOT
ATOM      1  N   UNL d   1      27.167 -16.713   0.304  0.00  0.00    -0.099 N 
ATOM      2  C   UNL d   1      26.457 -16.665  -0.737  0.00  0.00     0.010 C 
ATOM      3  C   UNL d   1      25.602 -16.607  -1.992  0.00  0.00     0.214 C 
ENDROOT
BRANCH   3   4
ATOM      4  N   UNL d   1      24.208 -16.980  -1.629  0.00  0.00    -0.333 N 
ATOM      5  C   UNL d   1      23.879 -18.096  -0.868  0.00  0.00     0.310 C 
ATOM      6  O   UNL d   1      24.688 -18.909  -0.428  0.00  0.00    -0.262 OA
ATOM      7  H   UNL d   1      23.430 -16.362  -1.841  0.00  0.00     0.164 HD
BRANCH   5   8
ATOM      8  C   UNL d   1      22.357 -18.274  -0.580  0.00  0.00     0.314 C 
ATOM      9  O   UNL d   1      21.610 -17.355  -0.905  0.00  0.00    -0.262 OA
ATOM     10  N   UNL d   1      22.002 -19.449   0.079  0.00  0.00    -0.319 N 
ATOM     11  H   UNL d   1      22.759 -20.007   0.467  0.00  0.00     0.169 HD
BRANCH  10  12
ATOM     12  C   UNL d   1      20.672 -19.778   0.443  0.00  0.00     0.035 A 
ATOM     13  C   UNL d   1      20.294 -19.773   1.792  0.00  0.00     0.029 A 
ATOM     14  C   UNL d   1      18.983 -20.107   2.165  0.00  0.00     0.002 A 
ATOM     15  C   UNL d   1      18.038 -20.439   1.195  0.00  0.00     0.000 A 
ATOM     16  C   UNL d   1      18.416 -20.477  -0.144  0.00  0.00     0.002 A 
ATOM     17  C   UNL d   1      19.724 -20.147  -0.518  0.00  0.00     0.029 A 
ENDBRANCH  10  12
ENDBRANCH   5   8
ENDBRANCH   3   4
BRANCH   3  18
ATOM     18  C   UNL d   1      25.743 -15.234  -2.624  0.00  0.00     0.016 A 
ATOM     19  C   UNL d   1      25.860 -14.040  -1.896  0.00  0.00     0.016 A 
ATOM     20  C   UNL d   1      25.914 -12.814  -2.568  0.00  0.00     0.043 A 
ATOM     21  C   UNL d   1      25.924 -12.777  -3.960  0.00  0.00     0.119 A 
ATOM     22  F   UNL d   1      26.039 -11.603  -4.590  0.00  0.00    -0.206 F 
ATOM     23  C   UNL d   1      25.819 -13.934  -4.703  0.00  0.00     0.085 A 
ATOM     24  C   UNL d   1      25.697 -15.138  -4.032  0.00  0.00     0.128 A 
ATOM     25  F   UNL d   1      25.533 -16.236  -4.782  0.00  0.00    -0.205 F 
ENDBRANCH   3  18
TORSDOF 4
ENDMDL
MODEL 2
REMARK VINA RESULT:    -7.301      5.105      8.193
REMARK INTER + INTRA:          -9.541
REMARK INTER:                  -8.494
REMARK INTRA:                  -1.047
REMARK CONF_INDEPENDENT:        1.193
REMARK UNBOUND:                -1.047
REMARK  4 active torsions:
REMARK  status: ('A' for Active; 'I' for Inactive)
REMARK    1  A    between atoms: C_3  and  N_4 
REMARK    2  A    between atoms: C_3  and  C_16 
REMARK       I    between atoms: N_4  and  C_5 
REMARK    3  A    between atoms: C_5  and  C_7 
REMARK       I    between atoms: C_7  and  N_9 
REMARK    4  A    between atoms: N_9  and  C_10 
ROOT
ATOM      1  N   UNL d   1      29.151 -15.788  -2.417  0.00  0.00    -0.099 N 
ATOM      2  C   UNL d   1      28.606 -16.298  -1.401  0.00  0.00     0.010 C 
ATOM      3  C   UNL d   1      27.948 -16.912  -0.176  0.00  0.00     0.214 C 
ENDROOT
BRANCH   3   4
ATOM      4  N   UNL d   1      28.153 -15.995   0.978  0.00  0.00    -0.333 N 
ATOM      5  C   UNL d   1      27.406 -14.841   1.190  0.00  0.00     0.310 C 
ATOM      6  O   UNL d   1      26.514 -14.435   0.450  0.00  0.00    -0.262 OA
ATOM      7  H   UNL d   1      28.792 -16.236   1.730  0.00  0.00     0.164 HD
BRANCH   5   8
ATOM      8  C   UNL d   1      27.770 -14.049   2.483  0.00  0.00     0.314 C 
ATOM      9  O   UNL d   1      27.750 -12.822   2.418  0.00  0.00    -0.262 OA
ATOM     10  N   UNL d   1      28.142 -14.823   3.580  0.00  0.00    -0.319 N 
ATOM     11  H   UNL d   1      28.313 -15.812   3.409  0.00  0.00     0.169 HD
BRANCH  10  12
ATOM     12  C   UNL d   1      28.525 -14.284   4.833  0.00  0.00     0.035 A 
ATOM     13  C   UNL d   1      27.780 -13.242   5.403  0.00  0.00     0.029 A 
ATOM     14  C   UNL d   1      28.154 -12.693   6.640  0.00  0.00     0.002 A 
ATOM     15  C   UNL d   1      29.268 -13.185   7.319  0.00  0.00     0.000 A 
ATOM     16  C   UNL d   1      30.031 -14.197   6.744  0.00  0.00     0.002 A 
ATOM     17  C   UNL d   1      29.660 -14.744   5.509  0.00  0.00     0.029 A 
ENDBRANCH  10  12
ENDBRANCH   5   8
ENDBRANCH   3   4
BRANCH   3  18
ATOM     18  C   UNL d   1      26.493 -17.211  -0.493  0.00  0.00     0.016 A 
ATOM     19  C   UNL d   1      25.793 -16.655  -1.574  0.00  0.00     0.016 A 
ATOM     20  C   UNL d   1      24.433 -16.936  -1.743  0.00  0.00     0.043 A 
ATOM     21  C   UNL d   1      23.787 -17.822  -0.885  0.00  0.00     0.119 A 
ATOM     22  F   UNL d   1      22.503 -18.129  -1.095  0.00  0.00    -0.206 F 
ATOM     23  C   UNL d   1      24.451 -18.390   0.182  0.00  0.00     0.085 A 
ATOM     24  C   UNL d   1      25.778 -18.056   0.384  0.00  0.00     0.128 A 
ATOM     25  F   UNL d   1      26.376 -18.574   1.465  0.00  0.00    -0.205 F 
ENDBRANCH   3  18
TORSDOF 4
ENDMDL
MODEL 3
REMARK VINA RESULT:    -7.160      3.874      8.607
REMARK INTER + INTRA:          -9.270
REMARK INTER:                  -8.353
REMARK INTRA:                  -0.917
REMARK CONF_INDEPENDENT:        1.193
REMARK UNBOUND:                -0.917
REMARK  4 active torsions:
REMARK  status: ('A' for Active; 'I' for Inactive)
REMARK    1  A    between atoms: C_3  and  N_4 
REMARK    2  A    between atoms: C_3  and  C_16 
REMARK       I    between atoms: N_4  and  C_5 
REMARK    3  A    between atoms: C_5  and  C_7 
REMARK       I    between atoms: C_7  and  N_9 
REMARK    4  A    between atoms: N_9  and  C_10 
ROOT
ATOM      1  N   UNL d   1      27.368 -15.673   1.104  0.00  0.00    -0.099 N 
ATOM      2  C   UNL d   1      26.543 -15.611   0.152  0.00  0.00     0.010 C 
ATOM      3  C   UNL d   1      25.548 -15.535  -0.995  0.00  0.00     0.214 C 
ENDROOT
BRANCH   3   4
ATOM      4  N   UNL d   1      26.297 -15.655  -2.276  0.00  0.00    -0.333 N 
ATOM      5  C   UNL d   1      25.846 -15.137  -3.485  0.00  0.00     0.310 C 
ATOM      6  O   UNL d   1      24.782 -14.544  -3.643  0.00  0.00    -0.262 OA
ATOM      7  H   UNL d   1      27.237 -16.038  -2.298  0.00  0.00     0.164 HD
BRANCH   5   8
ATOM      8  C   UNL d   1      26.809 -15.348  -4.693  0.00  0.00     0.314 C 
ATOM      9  O   UNL d   1      26.301 -15.575  -5.788  0.00  0.00    -0.262 OA
ATOM     10  N   UNL d   1      28.169 -15.317  -4.392  0.00  0.00    -0.319 N 
ATOM     11  H   UNL d   1      28.424 -15.331  -3.408  0.00  0.00     0.169 HD
BRANCH  10  12
ATOM     12  C   UNL d   1      29.194 -15.507  -5.352  0.00  0.00     0.035 A 
ATOM     13  C   UNL d   1      29.873 -16.731  -5.417  0.00  0.00     0.029 A 
ATOM     14  C   UNL d   1      30.897 -16.929  -6.358  0.00  0.00     0.002 A 
ATOM     15  C   UNL d   1      31.243 -15.910  -7.245  0.00  0.00     0.000 A 
ATOM     16  C   UNL d   1      30.595 -14.681  -7.164  0.00  0.00     0.002 A 
ATOM     17  C   UNL d   1      29.575 -14.482  -6.225  0.00  0.00     0.029 A 
ENDBRANCH  10  12
ENDBRANCH   5   8
ENDBRANCH   3   4
BRANCH   3  18
ATOM     18  C   UNL d   1      24.476 -16.592  -0.791  0.00  0.00     0.016 A 
ATOM     19  C   UNL d   1      23.099 -16.325  -0.794  0.00  0.00     0.016 A 
ATOM     20  C   UNL d   1      22.189 -17.354  -0.526  0.00  0.00     0.043 A 
ATOM     21  C   UNL d   1      22.639 -18.656  -0.328  0.00  0.00     0.119 A 
ATOM     22  F   UNL d   1      21.755 -19.640  -0.134  0.00  0.00    -0.206 F 
ATOM     23  C   UNL d   1      23.987 -18.950  -0.327  0.00  0.00     0.085 A 
ATOM     24  C   UNL d   1      24.885 -17.917  -0.525  0.00  0.00     0.128 A 
ATOM     25  F   UNL d   1      26.187 -18.224  -0.456  0.00  0.00    -0.205 F 
ENDBRANCH   3  18
TORSDOF 4
ENDMDL
MODEL 4
REMARK VINA RESULT:    -6.893      3.963      8.583
REMARK INTER + INTRA:          -9.047
REMARK INTER:                  -8.086
REMARK INTRA:                  -0.961
REMARK CONF_INDEPENDENT:        1.193
REMARK UNBOUND:                -0.961
REMARK  4 active torsions:
REMARK  status: ('A' for Active; 'I' for Inactive)
REMARK    1  A    between atoms: C_3  and  N_4 
REMARK    2  A    between atoms: C_3  and  C_16 
REMARK       I    between atoms: N_4  and  C_5 
REMARK    3  A    between atoms: C_5  and  C_7 
REMARK       I    between atoms: C_7  and  N_9 
REMARK    4  A    between atoms: N_9  and  C_10 
ROOT
ATOM      1  N   UNL d   1      27.033 -14.879   0.977  0.00  0.00    -0.099 N 
ATOM      2  C   UNL d   1      26.267 -15.136   0.009  0.00  0.00     0.010 C 
ATOM      3  C   UNL d   1      25.345 -15.446  -1.159  0.00  0.00     0.214 C 
ENDROOT
BRANCH   3   4
ATOM      4  N   UNL d   1      26.176 -15.649  -2.376  0.00  0.00    -0.333 N 
ATOM      5  C   UNL d   1      25.845 -15.150  -3.631  0.00  0.00     0.310 C 
ATOM      6  O   UNL d   1      24.830 -14.508  -3.885  0.00  0.00    -0.262 OA
ATOM      7  H   UNL d   1      27.093 -16.083  -2.316  0.00  0.00     0.164 HD
BRANCH   5   8
ATOM      8  C   UNL d   1      26.880 -15.455  -4.756  0.00  0.00     0.314 C 
ATOM      9  O   UNL d   1      26.452 -15.566  -5.902  0.00  0.00    -0.262 OA
ATOM     10  N   UNL d   1      28.196 -15.631  -4.333  0.00  0.00    -0.319 N 
ATOM     11  H   UNL d   1      28.350 -15.719  -3.331  0.00  0.00     0.169 HD
BRANCH  10  12
ATOM     12  C   UNL d   1      29.271 -15.934  -5.205  0.00  0.00     0.035 A 
ATOM     13  C   UNL d   1      29.545 -15.096  -6.295  0.00  0.00     0.029 A 
ATOM     14  C   UNL d   1      30.602 -15.390  -7.171  0.00  0.00     0.002 A 
ATOM     15  C   UNL d   1      31.397 -16.516  -6.962  0.00  0.00     0.000 A 
ATOM     16  C   UNL d   1      31.110 -17.370  -5.900  0.00  0.00     0.002 A 
ATOM     17  C   UNL d   1      30.055 -17.079  -5.026  0.00  0.00     0.029 A 
ENDBRANCH  10  12
ENDBRANCH   5   8
ENDBRANCH   3   4
BRANCH   3  18
ATOM     18  C   UNL d   1      24.463 -16.627  -0.793  0.00  0.00     0.016 A 
ATOM     19  C   UNL d   1      24.952 -17.883  -0.403  0.00  0.00     0.016 A 
ATOM     20  C   UNL d   1      24.061 -18.932  -0.154  0.00  0.00     0.043 A 
ATOM     21  C   UNL d   1      22.687 -18.718  -0.222  0.00  0.00     0.119 A 
ATOM     22  F   UNL d   1      21.846 -19.712   0.078  0.00  0.00    -0.206 F 
ATOM     23  C   UNL d   1      22.176 -17.492  -0.595  0.00  0.00     0.085 A 
ATOM     24  C   UNL d   1      23.063 -16.477  -0.906  0.00  0.00     0.128 A 
ATOM     25  F   UNL d   1      22.537 -15.319  -1.326  0.00  0.00    -0.205 F 
ENDBRANCH   3  18
TORSDOF 4
ENDMDL
MODEL 5
REMARK VINA RESULT:    -6.793      4.853      8.095
REMARK INTER + INTRA:          -9.642
REMARK INTER:                  -7.987
REMARK INTRA:                  -1.655
REMARK CONF_INDEPENDENT:        1.193
REMARK UNBOUND:                -1.655
REMARK  4 active torsions:
REMARK  status: ('A' for Active; 'I' for Inactive)
REMARK    1  A    between atoms: C_3  and  N_4 
REMARK    2  A    between atoms: C_3  and  C_16 
REMARK       I    between atoms: N_4  and  C_5 
REMARK    3  A    between atoms: C_5  and  C_7 
REMARK       I    between atoms: C_7  and  N_9 
REMARK    4  A    between atoms: N_9  and  C_10 
ROOT
ATOM      1  N   UNL d   1      25.169 -13.897  -3.216  0.00  0.00    -0.099 N 
ATOM      2  C   UNL d   1      25.475 -14.700  -2.293  0.00  0.00     0.010 C 
ATOM      3  C   UNL d   1      25.845 -15.667  -1.180  0.00  0.00     0.214 C 
ENDROOT
BRANCH   3   4
ATOM      4  N   UNL d   1      26.208 -14.879   0.028  0.00  0.00    -0.333 N 
ATOM      5  C   UNL d   1      27.162 -15.282   0.956  0.00  0.00     0.310 C 
ATOM      6  O   UNL d   1      27.795 -16.333   0.901  0.00  0.00    -0.262 OA
ATOM      7  H   UNL d   1      25.839 -13.943   0.172  0.00  0.00     0.164 HD
BRANCH   5   8
ATOM      8  C   UNL d   1      27.406 -14.283   2.128  0.00  0.00     0.314 C 
ATOM      9  O   UNL d   1      27.111 -13.106   1.937  0.00  0.00    -0.262 OA
ATOM     10  N   UNL d   1      27.997 -14.823   3.268  0.00  0.00    -0.319 N 
ATOM     11  H   UNL d   1      28.374 -15.765   3.189  0.00  0.00     0.169 HD
BRANCH  10  12
ATOM     12  C   UNL d   1      28.314 -14.070   4.426  0.00  0.00     0.035 A 
ATOM     13  C   UNL d   1      29.037 -14.661   5.470  0.00  0.00     0.029 A 
ATOM     14  C   UNL d   1      29.348 -13.927   6.626  0.00  0.00     0.002 A 
ATOM     15  C   UNL d   1      28.948 -12.597   6.743  0.00  0.00     0.000 A 
ATOM     16  C   UNL d   1      28.202 -12.013   5.723  0.00  0.00     0.002 A 
ATOM     17  C   UNL d   1      27.889 -12.745   4.571  0.00  0.00     0.029 A 
ENDBRANCH  10  12
ENDBRANCH   5   8
ENDBRANCH   3   4
BRANCH   3  18
ATOM     18  C   UNL d   1      24.702 -16.645  -0.975  0.00  0.00     0.016 A 
ATOM     19  C   UNL d   1      23.349 -16.325  -1.162  0.00  0.00     0.016 A 
ATOM     20  C   UNL d   1      22.361 -17.275  -0.878  0.00  0.00     0.043 A 
ATOM     21  C   UNL d   1      22.717 -18.560  -0.479  0.00  0.00     0.119 A 
ATOM     22  F   UNL d   1      21.766 -19.476  -0.272  0.00  0.00    -0.206 F 
ATOM     23  C   UNL d   1      24.040 -18.907  -0.295  0.00  0.00     0.085 A 
ATOM     24  C   UNL d   1      25.009 -17.944  -0.511  0.00  0.00     0.128 A 
ATOM     25  F   UNL d   1      26.277 -18.293  -0.262  0.00  0.00    -0.205 F 
ENDBRANCH   3  18
TORSDOF 4
ENDMDL
MODEL 6
REMARK VINA RESULT:    -6.692      2.072      2.448
REMARK INTER + INTRA:          -9.114
REMARK INTER:                  -7.885
REMARK INTRA:                  -1.228
REMARK CONF_INDEPENDENT:        1.193
REMARK UNBOUND:                -1.228
REMARK  4 active torsions:
REMARK  status: ('A' for Active; 'I' for Inactive)
REMARK    1  A    between atoms: C_3  and  N_4 
REMARK    2  A    between atoms: C_3  and  C_16 
REMARK       I    between atoms: N_4  and  C_5 
REMARK    3  A    between atoms: C_5  and  C_7 
REMARK       I    between atoms: C_7  and  N_9 
REMARK    4  A    between atoms: N_9  and  C_10 
ROOT
ATOM      1  N   UNL d   1      27.933 -18.259  -0.063  0.00  0.00    -0.099 N 
ATOM      2  C   UNL d   1      27.247 -17.356  -0.614  0.00  0.00     0.010 C 
ATOM      3  C   UNL d   1      26.420 -16.268  -1.279  0.00  0.00     0.214 C 
ENDROOT
BRANCH   3   4
ATOM      4  N   UNL d   1      24.981 -16.624  -1.146  0.00  0.00    -0.333 N 
ATOM      5  C   UNL d   1      24.526 -17.803  -0.567  0.00  0.00     0.310 C 
ATOM      6  O   UNL d   1      25.249 -18.690  -0.119  0.00  0.00    -0.262 OA
ATOM      7  H   UNL d   1      24.253 -15.957  -1.387  0.00  0.00     0.164 HD
BRANCH   5   8
ATOM      8  C   UNL d   1      22.975 -17.952  -0.503  0.00  0.00     0.314 C 
ATOM      9  O   UNL d   1      22.302 -16.954  -0.746  0.00  0.00    -0.262 OA
ATOM     10  N   UNL d   1      22.506 -19.205  -0.114  0.00  0.00    -0.319 N 
ATOM     11  H   UNL d   1      23.191 -19.859   0.257  0.00  0.00     0.169 HD
BRANCH  10  12
ATOM     12  C   UNL d   1      21.132 -19.526   0.020  0.00  0.00     0.035 A 
ATOM     13  C   UNL d   1      20.654 -20.071   1.219  0.00  0.00     0.029 A 
ATOM     14  C   UNL d   1      19.297 -20.401   1.361  0.00  0.00     0.002 A 
ATOM     15  C   UNL d   1      18.407 -20.182   0.310  0.00  0.00     0.000 A 
ATOM     16  C   UNL d   1      18.881 -19.672  -0.895  0.00  0.00     0.002 A 
ATOM     17  C   UNL d   1      20.235 -19.343  -1.038  0.00  0.00     0.029 A 
ENDBRANCH  10  12
ENDBRANCH   5   8
ENDBRANCH   3   4
BRANCH   3  18
ATOM     18  C   UNL d   1      26.795 -14.925  -0.678  0.00  0.00     0.016 A 
ATOM     19  C   UNL d   1      26.297 -14.442   0.542  0.00  0.00     0.016 A 
ATOM     20  C   UNL d   1      26.646 -13.159   0.979  0.00  0.00     0.043 A 
ATOM     21  C   UNL d   1      27.543 -12.387   0.245  0.00  0.00     0.119 A 
ATOM     22  F   UNL d   1      27.916 -11.189   0.706  0.00  0.00    -0.206 F 
ATOM     23  C   UNL d   1      28.055 -12.838  -0.953  0.00  0.00     0.085 A 
ATOM     24  C   UNL d   1      27.653 -14.079  -1.414  0.00  0.00     0.128 A 
ATOM     25  F   UNL d   1      28.118 -14.461  -2.611  0.00  0.00    -0.205 F 
ENDBRANCH   3  18
TORSDOF 4
ENDMDL
MODEL 7
REMARK VINA RESULT:    -6.316      3.242      8.614
REMARK INTER + INTRA:          -9.264
REMARK INTER:                  -7.509
REMARK INTRA:                  -1.755
REMARK CONF_INDEPENDENT:        1.193
REMARK UNBOUND:                -1.755
REMARK  4 active torsions:
REMARK  status: ('A' for Active; 'I' for Inactive)
REMARK    1  A    between atoms: C_3  and  N_4 
REMARK    2  A    between atoms: C_3  and  C_16 
REMARK       I    between atoms: N_4  and  C_5 
REMARK    3  A    between atoms: C_5  and  C_7 
REMARK       I    between atoms: C_7  and  N_9 
REMARK    4  A    between atoms: N_9  and  C_10 
ROOT
ATOM      1  N   UNL d   1      27.389 -17.674  -0.578  0.00  0.00    -0.099 N 
ATOM      2  C   UNL d   1      26.275 -17.086  -0.644  0.00  0.00     0.010 C 
ATOM      3  C   UNL d   1      24.933 -16.378  -0.724  0.00  0.00     0.214 C 
ENDROOT
BRANCH   3   4
ATOM      4  N   UNL d   1      24.924 -15.520  -1.940  0.00  0.00    -0.333 N 
ATOM      5  C   UNL d   1      26.007 -14.751  -2.351  0.00  0.00     0.310 C 
ATOM      6  O   UNL d   1      27.079 -14.673  -1.757  0.00  0.00    -0.262 OA
ATOM      7  H   UNL d   1      24.144 -15.543  -2.590  0.00  0.00     0.164 HD
BRANCH   5   8
ATOM      8  C   UNL d   1      25.788 -13.957  -3.675  0.00  0.00     0.314 C 
ATOM      9  O   UNL d   1      24.725 -14.128  -4.267  0.00  0.00    -0.262 OA
ATOM     10  N   UNL d   1      26.859 -13.167  -4.088  0.00  0.00    -0.319 N 
ATOM     11  H   UNL d   1      27.743 -13.299  -3.603  0.00  0.00     0.169 HD
BRANCH  10  12
ATOM     12  C   UNL d   1      26.854 -12.389  -5.273  0.00  0.00     0.035 A 
ATOM     13  C   UNL d   1      27.836 -12.598  -6.251  0.00  0.00     0.029 A 
ATOM     14  C   UNL d   1      27.847 -11.828  -7.425  0.00  0.00     0.002 A 
ATOM     15  C   UNL d   1      26.875 -10.850  -7.633  0.00  0.00     0.000 A 
ATOM     16  C   UNL d   1      25.917 -10.616  -6.652  0.00  0.00     0.002 A 
ATOM     17  C   UNL d   1      25.905 -11.382  -5.479  0.00  0.00     0.029 A 
ENDBRANCH  10  12
ENDBRANCH   5   8
ENDBRANCH   3   4
BRANCH   3  18
ATOM     18  C   UNL d   1      23.823 -17.413  -0.674  0.00  0.00     0.016 A 
ATOM     19  C   UNL d   1      24.036 -18.786  -0.479  0.00  0.00     0.016 A 
ATOM     20  C   UNL d   1      22.954 -19.672  -0.519  0.00  0.00     0.043 A 
ATOM     21  C   UNL d   1      21.658 -19.191  -0.682  0.00  0.00     0.119 A 
ATOM     22  F   UNL d   1      20.628 -20.043  -0.657  0.00  0.00    -0.206 F 
ATOM     23  C   UNL d   1      21.417 -17.846  -0.869  0.00  0.00     0.085 A 
ATOM     24  C   UNL d   1      22.497 -16.982  -0.895  0.00  0.00     0.128 A 
ATOM     25  F   UNL d   1      22.234 -15.691  -1.142  0.00  0.00    -0.205 F 
ENDBRANCH   3  18
TORSDOF 4
ENDMDL
MODEL 8
REMARK VINA RESULT:    -5.823      4.031      6.392
REMARK INTER + INTRA:          -8.852
REMARK INTER:                  -7.017
REMARK INTRA:                  -1.835
REMARK CONF_INDEPENDENT:        1.193
REMARK UNBOUND:                -1.835
REMARK  4 active torsions:
REMARK  status: ('A' for Active; 'I' for Inactive)
REMARK    1  A    between atoms: C_3  and  N_4 
REMARK    2  A    between atoms: C_3  and  C_16 
REMARK       I    between atoms: N_4  and  C_5 
REMARK    3  A    between atoms: C_5  and  C_7 
REMARK       I    between atoms: C_7  and  N_9 
REMARK    4  A    between atoms: N_9  and  C_10 
ROOT
ATOM      1  N   UNL d   1      28.775 -11.702  -6.305  0.00  0.00    -0.099 N 
ATOM      2  C   UNL d   1      27.575 -11.445  -6.015  0.00  0.00     0.010 C 
ATOM      3  C   UNL d   1      26.128 -11.136  -5.664  0.00  0.00     0.214 C 
ENDROOT
BRANCH   3   4
ATOM      4  N   UNL d   1      25.540 -12.328  -4.996  0.00  0.00    -0.333 N 
ATOM      5  C   UNL d   1      26.127 -12.974  -3.913  0.00  0.00     0.310 C 
ATOM      6  O   UNL d   1      27.196 -12.655  -3.399  0.00  0.00    -0.262 OA
ATOM      7  H   UNL d   1      24.614 -12.662  -5.243  0.00  0.00     0.164 HD
BRANCH   5   8
ATOM      8  C   UNL d   1      25.318 -14.182  -3.349  0.00  0.00     0.314 C 
ATOM      9  O   UNL d   1      24.250 -14.450  -3.892  0.00  0.00    -0.262 OA
ATOM     10  N   UNL d   1      25.870 -14.807  -2.232  0.00  0.00    -0.319 N 
ATOM     11  H   UNL d   1      26.646 -14.335  -1.776  0.00  0.00     0.169 HD
BRANCH  10  12
ATOM     12  C   UNL d   1      25.271 -15.908  -1.569  0.00  0.00     0.035 A 
ATOM     13  C   UNL d   1      23.876 -16.027  -1.531  0.00  0.00     0.029 A 
ATOM     14  C   UNL d   1      23.272 -17.108  -0.868  0.00  0.00     0.002 A 
ATOM     15  C   UNL d   1      24.055 -18.080  -0.248  0.00  0.00     0.000 A 
ATOM     16  C   UNL d   1      25.441 -17.949  -0.254  0.00  0.00     0.002 A 
ATOM     17  C   UNL d   1      26.046 -16.871  -0.913  0.00  0.00     0.029 A 
ENDBRANCH  10  12
ENDBRANCH   5   8
ENDBRANCH   3   4
BRANCH   3  18
ATOM     18  C   UNL d   1      26.081  -9.862  -4.838  0.00  0.00     0.016 A 
ATOM     19  C   UNL d   1      26.820  -9.658  -3.664  0.00  0.00     0.016 A 
ATOM     20  C   UNL d   1      26.656  -8.477  -2.932  0.00  0.00     0.043 A 
ATOM     21  C   UNL d   1      25.815  -7.472  -3.401  0.00  0.00     0.119 A 
ATOM     22  F   UNL d   1      25.714  -6.323  -2.724  0.00  0.00    -0.206 F 
ATOM     23  C   UNL d   1      25.081  -7.640  -4.557  0.00  0.00     0.085 A 
ATOM     24  C   UNL d   1      25.196  -8.837  -5.240  0.00  0.00     0.128 A 
ATOM     25  F   UNL d   1      24.423  -8.994  -6.323  0.00  0.00    -0.205 F 
ENDBRANCH   3  18
TORSDOF 4
ENDMDL
MODEL 9
REMARK VINA RESULT:    -5.592     10.257     11.910
REMARK INTER + INTRA:          -8.743
REMARK INTER:                  -6.785
REMARK INTRA:                  -1.959
REMARK CONF_INDEPENDENT:        1.193
REMARK UNBOUND:                -1.959
REMARK  4 active torsions:
REMARK  status: ('A' for Active; 'I' for Inactive)
REMARK    1  A    between atoms: C_3  and  N_4 
REMARK    2  A    between atoms: C_3  and  C_16 
REMARK       I    between atoms: N_4  and  C_5 
REMARK    3  A    between atoms: C_5  and  C_7 
REMARK       I    between atoms: C_7  and  N_9 
REMARK    4  A    between atoms: N_9  and  C_10 
ROOT
ATOM      1  N   UNL d   1      33.875 -18.724   2.149  0.00  0.00    -0.099 N 
ATOM      2  C   UNL d   1      33.041 -19.357   2.852  0.00  0.00     0.010 C 
ATOM      3  C   UNL d   1      32.036 -20.120   3.699  0.00  0.00     0.214 C 
ENDROOT
BRANCH   3   4
ATOM      4  N   UNL d   1      31.155 -20.904   2.793  0.00  0.00    -0.333 N 
ATOM      5  C   UNL d   1      31.618 -21.881   1.918  0.00  0.00     0.310 C 
ATOM      6  O   UNL d   1      32.797 -22.195   1.777  0.00  0.00    -0.262 OA
ATOM      7  H   UNL d   1      30.143 -20.828   2.852  0.00  0.00     0.164 HD
BRANCH   5   8
ATOM      8  C   UNL d   1      30.513 -22.601   1.087  0.00  0.00     0.314 C 
ATOM      9  O   UNL d   1      29.344 -22.338   1.355  0.00  0.00    -0.262 OA
ATOM     10  N   UNL d   1      30.970 -23.526   0.150  0.00  0.00    -0.319 N 
ATOM     11  H   UNL d   1      31.953 -23.784   0.198  0.00  0.00     0.169 HD
BRANCH  10  12
ATOM     12  C   UNL d   1      30.117 -24.291  -0.683  0.00  0.00     0.035 A 
ATOM     13  C   UNL d   1      29.746 -25.588  -0.304  0.00  0.00     0.029 A 
ATOM     14  C   UNL d   1      28.909 -26.359  -1.126  0.00  0.00     0.002 A 
ATOM     15  C   UNL d   1      28.430 -25.839  -2.327  0.00  0.00     0.000 A 
ATOM     16  C   UNL d   1      28.820 -24.563  -2.726  0.00  0.00     0.002 A 
ATOM     17  C   UNL d   1      29.657 -23.794  -1.907  0.00  0.00     0.029 A 
ENDBRANCH  10  12
ENDBRANCH   5   8
ENDBRANCH   3   4
BRANCH   3  18
ATOM     18  C   UNL d   1      32.785 -20.953   4.725  0.00  0.00     0.016 A 
ATOM     19  C   UNL d   1      34.139 -21.303   4.618  0.00  0.00     0.016 A 
ATOM     20  C   UNL d   1      34.724 -22.134   5.580  0.00  0.00     0.043 A 
ATOM     21  C   UNL d   1      33.987 -22.558   6.683  0.00  0.00     0.119 A 
ATOM     22  F   UNL d   1      34.575 -23.300   7.626  0.00  0.00    -0.206 F 
ATOM     23  C   UNL d   1      32.656 -22.223   6.820  0.00  0.00     0.085 A 
ATOM     24  C   UNL d   1      32.065 -21.457   5.831  0.00  0.00     0.128 A 
ATOM     25  F   UNL d   1      30.756 -21.203   5.962  0.00  0.00    -0.205 F 
ENDBRANCH   3  18
TORSDOF 4
ENDMDL
