MODEL 1
REMARK VINA RESULT:    -8.250      0.000      0.000
REMARK INTER + INTRA:         -12.324
REMARK INTER:                 -10.338
REMARK INTRA:                  -1.985
REMARK CONF_INDEPENDENT:        2.088
REMARK UNBOUND:                -1.985
REMARK  7 active torsions:
REMARK  status: ('A' for Active; 'I' for Inactive)
REMARK    1  A    between atoms: O_2  and  C_3 
REMARK    2  A    between atoms: C_5  and  O_6 
REMARK    3  A    between atoms: C_9  and  C_10 
REMARK       I    between atoms: C_10  and  N_12 
REMARK       I    between atoms: C_13  and  N_14 
REMARK       I    between atoms: C_13  and  N_21 
REMARK    4  A    between atoms: N_14  and  C_15 
REMARK    5  A    between atoms: C_16  and  C_15 
REMARK    6  A    between atoms: N_21  and  C_22 
REMARK    7  A    between atoms: C_26  and  C_27 
ROOT
ATOM      1  C   UNL d   1      26.906 -14.429   0.740  0.00  0.00     0.294 C 
ATOM      2  O   UNL d   1      26.550 -13.299   0.414  0.00  0.00    -0.265 OA
ATOM      3  N   UNL d   1      27.727 -14.837   1.778  0.00  0.00    -0.023 NA
ATOM      4  C   UNL d   1      28.221 -14.013   2.677  0.00  0.00     0.704 C 
ATOM      5  N   UNL d   1      28.019 -12.651   2.829  0.00  0.00    -0.222 N 
ATOM      6  N   UNL d   1      29.120 -14.519   3.631  0.00  0.00    -0.190 N 
ATOM      7  H   UNL d   1      28.668 -12.161   3.425  0.00  0.00     0.177 HD
ATOM      8  H   UNL d   1      29.255 -15.523   3.615  0.00  0.00     0.184 HD
ENDROOT
BRANCH   5   9
ATOM      9  C   UNL d   1      27.324 -11.814   1.889  0.00  0.00     0.170 C 
BRANCH   9  10
ATOM     10  C   UNL d   1      27.466 -10.324   1.868  0.00  0.00     0.139 C 
ATOM     11  C   UNL d   1      26.270  -9.671   2.503  0.00  0.00     0.035 C 
ATOM     12  C   UNL d   1      26.655  -9.576   3.958  0.00  0.00     0.029 C 
ATOM     13  C   UNL d   1      28.151  -9.375   3.910  0.00  0.00     0.168 C 
ATOM     14  O   UNL d   1      28.613  -9.987   2.700  0.00  0.00    -0.384 OA
ENDBRANCH   9  10
ENDBRANCH   5   9
BRANCH   6  15
ATOM     15  C   UNL d   1      29.639 -13.892   4.792  0.00  0.00     0.049 A 
ATOM     16  C   UNL d   1      30.491 -12.785   4.752  0.00  0.00     0.030 A 
ATOM     17  C   UNL d   1      30.864 -12.123   5.938  0.00  0.00     0.003 A 
ATOM     18  C   UNL d   1      30.334 -12.515   7.171  0.00  0.00     0.007 A 
ATOM     19  C   UNL d   1      29.502 -13.633   7.244  0.00  0.00    -0.053 A 
ATOM     20  C   UNL d   1      29.235 -14.324   6.054  0.00  0.00     0.037 A 
BRANCH  19  21
ATOM     21  C   UNL d   1      28.908 -14.107   8.559  0.00  0.00     0.010 C 
ATOM     22  C   UNL d   1      29.954 -14.824   9.417  0.00  0.00     0.015 C 
ATOM     23  C   UNL d   1      28.300 -12.960   9.385  0.00  0.00     0.015 C 
ENDBRANCH  19  21
ENDBRANCH   6  15
BRANCH   1  24
ATOM     24  C   UNL d   1      26.351 -15.299  -0.278  0.00  0.00     0.040 A 
ATOM     25  C   UNL d   1      25.913 -16.586   0.154  0.00  0.00     0.054 A 
ATOM     26  C   UNL d   1      25.241 -17.440  -0.680  0.00  0.00     0.071 A 
ATOM     27  C   UNL d   1      25.129 -17.046  -2.008  0.00  0.00     0.073 A 
ATOM     28  C   UNL d   1      25.582 -15.778  -2.444  0.00  0.00     0.071 A 
ATOM     29  C   UNL d   1      26.174 -14.880  -1.568  0.00  0.00     0.054 A 
BRANCH  26  30
ATOM     30  O   UNL d   1      24.665 -18.613  -0.272  0.00  0.00    -0.356 OA
ATOM     31  C   UNL d   1      23.257 -18.763  -0.521  0.00  0.00     0.210 C 
ENDBRANCH  26  30
BRANCH  28  32
ATOM     32  O   UNL d   1      25.308 -15.445  -3.741  0.00  0.00    -0.356 OA
ATOM     33  C   UNL d   1      25.153 -14.045  -3.957  0.00  0.00     0.210 C 
ENDBRANCH  28  32
ENDBRANCH   1  24
TORSDOF 7
ENDMDL
MODEL 2
REMARK VINA RESULT:    -8.041      0.445      2.232
REMARK INTER + INTRA:         -12.127
REMARK INTER:                 -10.129
REMARK INTRA:                  -1.998
REMARK CONF_INDEPENDENT:        2.088
REMARK UNBOUND:                -1.998
REMARK  7 active torsions:
REMARK  status: ('A' for Active; 'I' for Inactive)
REMARK    1  A    between atoms: O_2  and  C_3 
REMARK    2  A    between atoms: C_5  and  O_6 
REMARK    3  A    between atoms: C_9  and  C_10 
REMARK       I    between atoms: C_10  and  N_12 
REMARK       I    between atoms: C_13  and  N_14 
REMARK       I    between atoms: C_13  and  N_21 
REMARK    4  A    between atoms: N_14  and  C_15 
REMARK    5  A    between atoms: C_16  and  C_15 
REMARK    6  A    between atoms: N_21  and  C_22 
REMARK    7  A    between atoms: C_26  and  C_27 
ROOT
ATOM      1  C   UNL d   1      26.659 -14.356   0.618  0.00  0.00     0.294 C 
ATOM      2  O   UNL d   1      26.410 -13.223   0.212  0.00  0.00    -0.265 OA
ATOM      3  N   UNL d   1      27.447 -14.766   1.681  0.00  0.00    -0.023 NA
ATOM      4  C   UNL d   1      28.027 -13.930   2.516  0.00  0.00     0.704 C 
ATOM      5  N   UNL d   1      27.959 -12.547   2.570  0.00  0.00    -0.222 N 
ATOM      6  N   UNL d   1      28.883 -14.451   3.501  0.00  0.00    -0.190 N 
ATOM      7  H   UNL d   1      28.657 -12.081   3.126  0.00  0.00     0.177 HD
ATOM      8  H   UNL d   1      28.922 -15.461   3.558  0.00  0.00     0.184 HD
ENDROOT
BRANCH   5   9
ATOM      9  C   UNL d   1      27.337 -11.717   1.573  0.00  0.00     0.170 C 
BRANCH   9  10
ATOM     10  C   UNL d   1      27.405 -10.222   1.604  0.00  0.00     0.139 C 
ATOM     11  C   UNL d   1      26.107  -9.646   2.099  0.00  0.00     0.035 C 
ATOM     12  C   UNL d   1      26.303  -9.575   3.593  0.00  0.00     0.029 C 
ATOM     13  C   UNL d   1      27.781  -9.302   3.738  0.00  0.00     0.168 C 
ATOM     14  O   UNL d   1      28.421  -9.856   2.581  0.00  0.00    -0.384 OA
ENDBRANCH   9  10
ENDBRANCH   5   9
BRANCH   6  15
ATOM     15  C   UNL d   1      29.472 -13.794   4.613  0.00  0.00     0.049 A 
ATOM     16  C   UNL d   1      30.548 -12.910   4.501  0.00  0.00     0.030 A 
ATOM     17  C   UNL d   1      31.000 -12.186   5.622  0.00  0.00     0.003 A 
ATOM     18  C   UNL d   1      30.338 -12.282   6.849  0.00  0.00     0.007 A 
ATOM     19  C   UNL d   1      29.276 -13.177   6.995  0.00  0.00    -0.053 A 
ATOM     20  C   UNL d   1      28.922 -13.952   5.883  0.00  0.00     0.037 A 
BRANCH  19  21
ATOM     21  C   UNL d   1      28.530 -13.328   8.309  0.00  0.00     0.010 C 
ATOM     22  C   UNL d   1      29.128 -14.450   9.164  0.00  0.00     0.015 C 
ATOM     23  C   UNL d   1      28.519 -12.033   9.139  0.00  0.00     0.015 C 
ENDBRANCH  19  21
ENDBRANCH   6  15
BRANCH   1  24
ATOM     24  C   UNL d   1      26.014 -15.240  -0.332  0.00  0.00     0.040 A 
ATOM     25  C   UNL d   1      25.897 -14.763  -1.671  0.00  0.00     0.054 A 
ATOM     26  C   UNL d   1      25.440 -15.558  -2.688  0.00  0.00     0.071 A 
ATOM     27  C   UNL d   1      24.964 -16.812  -2.323  0.00  0.00     0.073 A 
ATOM     28  C   UNL d   1      25.059 -17.281  -0.991  0.00  0.00     0.071 A 
ATOM     29  C   UNL d   1      25.615 -16.503   0.013  0.00  0.00     0.054 A 
BRANCH  26  30
ATOM     30  O   UNL d   1      25.457 -15.199  -4.008  0.00  0.00    -0.356 OA
ATOM     31  C   UNL d   1      25.162 -13.824  -4.307  0.00  0.00     0.210 C 
ENDBRANCH  26  30
BRANCH  28  32
ATOM     32  O   UNL d   1      24.677 -18.575  -0.771  0.00  0.00    -0.356 OA
ATOM     33  C   UNL d   1      23.280 -18.732  -0.538  0.00  0.00     0.210 C 
ENDBRANCH  28  32
ENDBRANCH   1  24
TORSDOF 7
ENDMDL
MODEL 3
REMARK VINA RESULT:    -7.525      0.766      1.945
REMARK INTER + INTRA:         -11.744
REMARK INTER:                  -9.613
REMARK INTRA:                  -2.131
REMARK CONF_INDEPENDENT:        2.088
REMARK UNBOUND:                -2.131
REMARK  7 active torsions:
REMARK  status: ('A' for Active; 'I' for Inactive)
REMARK    1  A    between atoms: O_2  and  C_3 
REMARK    2  A    between atoms: C_5  and  O_6 
REMARK    3  A    between atoms: C_9  and  C_10 
REMARK       I    between atoms: C_10  and  N_12 
REMARK       I    between atoms: C_13  and  N_14 
REMARK       I    between atoms: C_13  and  N_21 
REMARK    4  A    between atoms: N_14  and  C_15 
REMARK    5  A    between atoms: C_16  and  C_15 
REMARK    6  A    between atoms: N_21  and  C_22 
REMARK    7  A    between atoms: C_26  and  C_27 
ROOT
ATOM      1  C   UNL d   1      26.652 -14.374   0.625  0.00  0.00     0.294 C 
ATOM      2  O   UNL d   1      26.284 -13.236   0.340  0.00  0.00    -0.265 OA
ATOM      3  N   UNL d   1      27.410 -14.822   1.694  0.00  0.00    -0.023 NA
ATOM      4  C   UNL d   1      27.815 -14.040   2.671  0.00  0.00     0.704 C 
ATOM      5  N   UNL d   1      27.562 -12.694   2.887  0.00  0.00    -0.222 N 
ATOM      6  N   UNL d   1      28.661 -14.578   3.656  0.00  0.00    -0.190 N 
ATOM      7  H   UNL d   1      28.152 -12.224   3.555  0.00  0.00     0.177 HD
ATOM      8  H   UNL d   1      28.828 -15.574   3.592  0.00  0.00     0.184 HD
ENDROOT
BRANCH   5   9
ATOM      9  C   UNL d   1      26.908 -11.822   1.949  0.00  0.00     0.170 C 
BRANCH   9  10
ATOM     10  C   UNL d   1      27.217 -10.361   1.849  0.00  0.00     0.139 C 
ATOM     11  C   UNL d   1      26.154  -9.549   2.535  0.00  0.00     0.035 C 
ATOM     12  C   UNL d   1      26.656  -9.443   3.953  0.00  0.00     0.029 C 
ATOM     13  C   UNL d   1      28.157  -9.421   3.791  0.00  0.00     0.168 C 
ATOM     14  O   UNL d   1      28.454 -10.129   2.581  0.00  0.00    -0.384 OA
ENDBRANCH   9  10
ENDBRANCH   5   9
BRANCH   6  15
ATOM     15  C   UNL d   1      29.079 -14.007   4.886  0.00  0.00     0.049 A 
ATOM     16  C   UNL d   1      28.792 -14.571   6.131  0.00  0.00     0.030 A 
ATOM     17  C   UNL d   1      29.349 -14.033   7.308  0.00  0.00     0.003 A 
ATOM     18  C   UNL d   1      30.254 -12.969   7.248  0.00  0.00     0.007 A 
ATOM     19  C   UNL d   1      30.538 -12.370   6.020  0.00  0.00    -0.053 A 
ATOM     20  C   UNL d   1      29.887 -12.871   4.885  0.00  0.00     0.037 A 
BRANCH  19  21
ATOM     21  C   UNL d   1      31.505 -11.205   5.900  0.00  0.00     0.010 C 
ATOM     22  C   UNL d   1      31.660 -10.754   4.445  0.00  0.00     0.015 C 
ATOM     23  C   UNL d   1      31.082  -9.991   6.746  0.00  0.00     0.015 C 
ENDBRANCH  19  21
ENDBRANCH   6  15
BRANCH   1  24
ATOM     24  C   UNL d   1      26.196 -15.197  -0.478  0.00  0.00     0.040 A 
ATOM     25  C   UNL d   1      25.695 -16.490  -0.145  0.00  0.00     0.054 A 
ATOM     26  C   UNL d   1      25.103 -17.301  -1.076  0.00  0.00     0.071 A 
ATOM     27  C   UNL d   1      25.140 -16.857  -2.393  0.00  0.00     0.073 A 
ATOM     28  C   UNL d   1      25.656 -15.582  -2.730  0.00  0.00     0.071 A 
ATOM     29  C   UNL d   1      26.164 -14.728  -1.763  0.00  0.00     0.054 A 
BRANCH  26  30
ATOM     30  O   UNL d   1      24.471 -18.476  -0.777  0.00  0.00    -0.356 OA
ATOM     31  C   UNL d   1      23.123 -18.378  -0.284  0.00  0.00     0.210 C 
ENDBRANCH  26  30
BRANCH  28  32
ATOM     32  O   UNL d   1      25.527 -15.197  -4.036  0.00  0.00    -0.356 OA
ATOM     33  C   UNL d   1      25.277 -13.805  -4.205  0.00  0.00     0.210 C 
ENDBRANCH  28  32
ENDBRANCH   1  24
TORSDOF 7
ENDMDL
MODEL 4
REMARK VINA RESULT:    -7.346      2.190      3.083
REMARK INTER + INTRA:         -11.328
REMARK INTER:                  -9.434
REMARK INTRA:                  -1.894
REMARK CONF_INDEPENDENT:        2.088
REMARK UNBOUND:                -1.894
REMARK  7 active torsions:
REMARK  status: ('A' for Active; 'I' for Inactive)
REMARK    1  A    between atoms: O_2  and  C_3 
REMARK    2  A    between atoms: C_5  and  O_6 
REMARK    3  A    between atoms: C_9  and  C_10 
REMARK       I    between atoms: C_10  and  N_12 
REMARK       I    between atoms: C_13  and  N_14 
REMARK       I    between atoms: C_13  and  N_21 
REMARK    4  A    between atoms: N_14  and  C_15 
REMARK    5  A    between atoms: C_16  and  C_15 
REMARK    6  A    between atoms: N_21  and  C_22 
REMARK    7  A    between atoms: C_26  and  C_27 
ROOT
ATOM      1  C   UNL d   1      27.707 -15.381   0.547  0.00  0.00     0.294 C 
ATOM      2  O   UNL d   1      28.796 -15.467  -0.016  0.00  0.00    -0.265 OA
ATOM      3  N   UNL d   1      27.407 -15.032   1.853  0.00  0.00    -0.023 NA
ATOM      4  C   UNL d   1      28.312 -14.643   2.725  0.00  0.00     0.704 C 
ATOM      5  N   UNL d   1      29.674 -14.450   2.555  0.00  0.00    -0.222 N 
ATOM      6  N   UNL d   1      27.911 -14.406   4.050  0.00  0.00    -0.190 N 
ATOM      7  H   UNL d   1      30.230 -14.383   3.392  0.00  0.00     0.177 HD
ATOM      8  H   UNL d   1      26.915 -14.464   4.223  0.00  0.00     0.184 HD
ENDROOT
BRANCH   5   9
ATOM      9  C   UNL d   1      30.413 -14.811   1.375  0.00  0.00     0.170 C 
BRANCH   9  10
ATOM     10  C   UNL d   1      31.884 -15.091   1.392  0.00  0.00     0.139 C 
ATOM     11  C   UNL d   1      32.624 -14.075   0.567  0.00  0.00     0.035 C 
ATOM     12  C   UNL d   1      32.934 -12.980   1.557  0.00  0.00     0.029 C 
ATOM     13  C   UNL d   1      33.125 -13.727   2.855  0.00  0.00     0.168 C 
ATOM     14  O   UNL d   1      32.340 -14.922   2.765  0.00  0.00    -0.384 OA
ENDBRANCH   9  10
ENDBRANCH   5   9
BRANCH   6  15
ATOM     15  C   UNL d   1      28.642 -13.815   5.114  0.00  0.00     0.049 A 
ATOM     16  C   UNL d   1      29.331 -12.607   4.993  0.00  0.00     0.030 A 
ATOM     17  C   UNL d   1      29.924 -12.003   6.121  0.00  0.00     0.003 A 
ATOM     18  C   UNL d   1      29.773 -12.564   7.392  0.00  0.00     0.007 A 
ATOM     19  C   UNL d   1      29.111 -13.785   7.537  0.00  0.00    -0.053 A 
ATOM     20  C   UNL d   1      28.623 -14.402   6.378  0.00  0.00     0.037 A 
BRANCH  19  21
ATOM     21  C   UNL d   1      28.929 -14.442   8.894  0.00  0.00     0.010 C 
ATOM     22  C   UNL d   1      30.276 -14.822   9.516  0.00  0.00     0.015 C 
ATOM     23  C   UNL d   1      28.165 -13.551   9.889  0.00  0.00     0.015 C 
ENDBRANCH  19  21
ENDBRANCH   6  15
BRANCH   1  24
ATOM     24  C   UNL d   1      26.744 -15.826  -0.441  0.00  0.00     0.040 A 
ATOM     25  C   UNL d   1      26.030 -17.024  -0.141  0.00  0.00     0.054 A 
ATOM     26  C   UNL d   1      24.996 -17.466  -0.922  0.00  0.00     0.071 A 
ATOM     27  C   UNL d   1      24.767 -16.763  -2.099  0.00  0.00     0.073 A 
ATOM     28  C   UNL d   1      25.489 -15.585  -2.410  0.00  0.00     0.071 A 
ATOM     29  C   UNL d   1      26.468 -15.091  -1.562  0.00  0.00     0.054 A 
BRANCH  26  30
ATOM     30  O   UNL d   1      24.183 -18.517  -0.594  0.00  0.00    -0.356 OA
ATOM     31  C   UNL d   1      22.838 -18.194  -0.198  0.00  0.00     0.210 C 
ENDBRANCH  26  30
BRANCH  28  32
ATOM     32  O   UNL d   1      25.095 -14.906  -3.529  0.00  0.00    -0.356 OA
ATOM     33  C   UNL d   1      25.963 -15.079  -4.645  0.00  0.00     0.210 C 
ENDBRANCH  28  32
ENDBRANCH   1  24
TORSDOF 7
ENDMDL
MODEL 5
REMARK VINA RESULT:    -7.311      6.103      9.219
REMARK INTER + INTRA:         -10.986
REMARK INTER:                  -9.399
REMARK INTRA:                  -1.586
REMARK CONF_INDEPENDENT:        2.088
REMARK UNBOUND:                -1.586
REMARK  7 active torsions:
REMARK  status: ('A' for Active; 'I' for Inactive)
REMARK    1  A    between atoms: O_2  and  C_3 
REMARK    2  A    between atoms: C_5  and  O_6 
REMARK    3  A    between atoms: C_9  and  C_10 
REMARK       I    between atoms: C_10  and  N_12 
REMARK       I    between atoms: C_13  and  N_14 
REMARK       I    between atoms: C_13  and  N_21 
REMARK    4  A    between atoms: N_14  and  C_15 
REMARK    5  A    between atoms: C_16  and  C_15 
REMARK    6  A    between atoms: N_21  and  C_22 
REMARK    7  A    between atoms: C_26  and  C_27 
ROOT
ATOM      1  C   UNL d   1      25.390 -14.674  -2.834  0.00  0.00     0.294 C 
ATOM      2  O   UNL d   1      25.610 -15.198  -3.923  0.00  0.00    -0.265 OA
ATOM      3  N   UNL d   1      25.546 -13.357  -2.432  0.00  0.00    -0.023 NA
ATOM      4  C   UNL d   1      25.913 -12.392  -3.247  0.00  0.00     0.704 C 
ATOM      5  N   UNL d   1      26.163 -12.434  -4.609  0.00  0.00    -0.222 N 
ATOM      6  N   UNL d   1      26.134 -11.111  -2.714  0.00  0.00    -0.190 N 
ATOM      7  H   UNL d   1      26.660 -11.651  -5.003  0.00  0.00     0.177 HD
ATOM      8  H   UNL d   1      25.902 -10.998  -1.735  0.00  0.00     0.184 HD
ENDROOT
BRANCH   5   9
ATOM      9  C   UNL d   1      26.227 -13.637  -5.395  0.00  0.00     0.170 C 
BRANCH   9  10
ATOM     10  C   UNL d   1      27.501 -14.156  -5.984  0.00  0.00     0.139 C 
ATOM     11  C   UNL d   1      28.688 -13.504  -5.330  0.00  0.00     0.035 C 
ATOM     12  C   UNL d   1      28.988 -14.413  -4.164  0.00  0.00     0.029 C 
ATOM     13  C   UNL d   1      28.597 -15.779  -4.677  0.00  0.00     0.168 C 
ATOM     14  O   UNL d   1      27.579 -15.575  -5.665  0.00  0.00    -0.384 OA
ENDBRANCH   9  10
ENDBRANCH   5   9
BRANCH   6  15
ATOM     15  C   UNL d   1      26.352  -9.884  -3.393  0.00  0.00     0.049 A 
ATOM     16  C   UNL d   1      27.542  -9.158  -3.306  0.00  0.00     0.030 A 
ATOM     17  C   UNL d   1      27.749  -8.019  -4.109  0.00  0.00     0.003 A 
ATOM     18  C   UNL d   1      26.798  -7.634  -5.059  0.00  0.00     0.007 A 
ATOM     19  C   UNL d   1      25.589  -8.326  -5.150  0.00  0.00    -0.053 A 
ATOM     20  C   UNL d   1      25.381  -9.391  -4.264  0.00  0.00     0.037 A 
BRANCH  19  21
ATOM     21  C   UNL d   1      24.519  -7.942  -6.156  0.00  0.00     0.010 C 
ATOM     22  C   UNL d   1      23.293  -7.339  -5.465  0.00  0.00     0.015 C 
ATOM     23  C   UNL d   1      25.026  -6.944  -7.212  0.00  0.00     0.015 C 
ENDBRANCH  19  21
ENDBRANCH   6  15
BRANCH   1  24
ATOM     24  C   UNL d   1      25.001 -15.770  -1.968  0.00  0.00     0.040 A 
ATOM     25  C   UNL d   1      26.058 -16.540  -1.400  0.00  0.00     0.054 A 
ATOM     26  C   UNL d   1      25.826 -17.505  -0.456  0.00  0.00     0.071 A 
ATOM     27  C   UNL d   1      24.494 -17.792  -0.181  0.00  0.00     0.073 A 
ATOM     28  C   UNL d   1      23.441 -17.043  -0.761  0.00  0.00     0.071 A 
ATOM     29  C   UNL d   1      23.693 -16.001  -1.641  0.00  0.00     0.054 A 
BRANCH  26  30
ATOM     30  O   UNL d   1      26.813 -18.159   0.230  0.00  0.00    -0.356 OA
ATOM     31  C   UNL d   1      28.169 -17.859  -0.146  0.00  0.00     0.210 C 
ENDBRANCH  26  30
BRANCH  28  32
ATOM     32  O   UNL d   1      22.177 -17.328  -0.323  0.00  0.00    -0.356 OA
ATOM     33  C   UNL d   1      21.668 -18.569  -0.801  0.00  0.00     0.210 C 
ENDBRANCH  28  32
ENDBRANCH   1  24
TORSDOF 7
ENDMDL
MODEL 6
REMARK VINA RESULT:    -7.222      6.811      9.802
REMARK INTER + INTRA:         -11.189
REMARK INTER:                  -9.310
REMARK INTRA:                  -1.879
REMARK CONF_INDEPENDENT:        2.088
REMARK UNBOUND:                -1.879
REMARK  7 active torsions:
REMARK  status: ('A' for Active; 'I' for Inactive)
REMARK    1  A    between atoms: O_2  and  C_3 
REMARK    2  A    between atoms: C_5  and  O_6 
REMARK    3  A    between atoms: C_9  and  C_10 
REMARK       I    between atoms: C_10  and  N_12 
REMARK       I    between atoms: C_13  and  N_14 
REMARK       I    between atoms: C_13  and  N_21 
REMARK    4  A    between atoms: N_14  and  C_15 
REMARK    5  A    between atoms: C_16  and  C_15 
REMARK    6  A    between atoms: N_21  and  C_22 
REMARK    7  A    between atoms: C_26  and  C_27 
ROOT
ATOM      1  C   UNL d   1      26.070 -11.247  -5.248  0.00  0.00     0.294 C 
ATOM      2  O   UNL d   1      26.857 -11.609  -6.120  0.00  0.00    -0.265 OA
ATOM      3  N   UNL d   1      25.533 -11.955  -4.186  0.00  0.00    -0.023 NA
ATOM      4  C   UNL d   1      25.871 -13.193  -3.896  0.00  0.00     0.704 C 
ATOM      5  N   UNL d   1      26.812 -14.014  -4.498  0.00  0.00    -0.222 N 
ATOM      6  N   UNL d   1      25.193 -13.849  -2.855  0.00  0.00    -0.190 N 
ATOM      7  H   UNL d   1      26.755 -14.997  -4.287  0.00  0.00     0.177 HD
ATOM      8  H   UNL d   1      24.541 -13.280  -2.331  0.00  0.00     0.184 HD
ENDROOT
BRANCH   5   9
ATOM      9  C   UNL d   1      27.514 -13.703  -5.714  0.00  0.00     0.170 C 
BRANCH   9  10
ATOM     10  C   UNL d   1      28.368 -14.699  -6.435  0.00  0.00     0.139 C 
ATOM     11  C   UNL d   1      29.809 -14.270  -6.416  0.00  0.00     0.035 C 
ATOM     12  C   UNL d   1      30.343 -14.895  -5.152  0.00  0.00     0.029 C 
ATOM     13  C   UNL d   1      29.551 -16.175  -5.034  0.00  0.00     0.168 C 
ATOM     14  O   UNL d   1      28.298 -15.948  -5.691  0.00  0.00    -0.384 OA
ENDBRANCH   9  10
ENDBRANCH   5   9
BRANCH   6  15
ATOM     15  C   UNL d   1      25.489 -15.093  -2.239  0.00  0.00     0.049 A 
ATOM     16  C   UNL d   1      26.788 -15.518  -1.951  0.00  0.00     0.030 A 
ATOM     17  C   UNL d   1      27.010 -16.699  -1.217  0.00  0.00     0.003 A 
ATOM     18  C   UNL d   1      25.937 -17.431  -0.700  0.00  0.00     0.007 A 
ATOM     19  C   UNL d   1      24.628 -17.043  -0.994  0.00  0.00    -0.053 A 
ATOM     20  C   UNL d   1      24.451 -15.919  -1.811  0.00  0.00     0.037 A 
BRANCH  19  21
ATOM     21  C   UNL d   1      23.427 -17.809  -0.467  0.00  0.00     0.010 C 
ATOM     22  C   UNL d   1      22.156 -16.956  -0.516  0.00  0.00     0.015 C 
ATOM     23  C   UNL d   1      23.171 -19.116  -1.237  0.00  0.00     0.015 C 
ENDBRANCH  19  21
ENDBRANCH   6  15
BRANCH   1  24
ATOM     24  C   UNL d   1      25.717  -9.889  -5.611  0.00  0.00     0.040 A 
ATOM     25  C   UNL d   1      26.263  -9.391  -6.830  0.00  0.00     0.054 A 
ATOM     26  C   UNL d   1      25.890  -8.182  -7.353  0.00  0.00     0.071 A 
ATOM     27  C   UNL d   1      25.054  -7.401  -6.563  0.00  0.00     0.073 A 
ATOM     28  C   UNL d   1      24.526  -7.884  -5.341  0.00  0.00     0.071 A 
ATOM     29  C   UNL d   1      24.834  -9.151  -4.870  0.00  0.00     0.054 A 
BRANCH  26  30
ATOM     30  O   UNL d   1      26.264  -7.733  -8.589  0.00  0.00    -0.356 OA
ATOM     31  C   UNL d   1      25.325  -6.894  -9.284  0.00  0.00     0.210 C 
ENDBRANCH  26  30
BRANCH  28  32
ATOM     32  O   UNL d   1      23.616  -7.082  -4.710  0.00  0.00    -0.356 OA
ATOM     33  C   UNL d   1      22.408  -6.893  -5.442  0.00  0.00     0.210 C 
ENDBRANCH  28  32
ENDBRANCH   1  24
TORSDOF 7
ENDMDL
MODEL 7
REMARK VINA RESULT:    -7.189      2.268      3.869
REMARK INTER + INTRA:         -11.118
REMARK INTER:                  -9.277
REMARK INTRA:                  -1.841
REMARK CONF_INDEPENDENT:        2.088
REMARK UNBOUND:                -1.841
REMARK  7 active torsions:
REMARK  status: ('A' for Active; 'I' for Inactive)
REMARK    1  A    between atoms: O_2  and  C_3 
REMARK    2  A    between atoms: C_5  and  O_6 
REMARK    3  A    between atoms: C_9  and  C_10 
REMARK       I    between atoms: C_10  and  N_12 
REMARK       I    between atoms: C_13  and  N_14 
REMARK       I    between atoms: C_13  and  N_21 
REMARK    4  A    between atoms: N_14  and  C_15 
REMARK    5  A    between atoms: C_16  and  C_15 
REMARK    6  A    between atoms: N_21  and  C_22 
REMARK    7  A    between atoms: C_26  and  C_27 
ROOT
ATOM      1  C   UNL d   1      27.588 -15.572   0.465  0.00  0.00     0.294 C 
ATOM      2  O   UNL d   1      28.623 -15.669  -0.191  0.00  0.00    -0.265 OA
ATOM      3  N   UNL d   1      27.407 -15.212   1.791  0.00  0.00    -0.023 NA
ATOM      4  C   UNL d   1      28.388 -14.823   2.576  0.00  0.00     0.704 C 
ATOM      5  N   UNL d   1      29.731 -14.640   2.285  0.00  0.00    -0.222 N 
ATOM      6  N   UNL d   1      28.107 -14.574   3.930  0.00  0.00    -0.190 N 
ATOM      7  H   UNL d   1      30.358 -14.571   3.069  0.00  0.00     0.177 HD
ATOM      8  H   UNL d   1      27.130 -14.624   4.190  0.00  0.00     0.184 HD
ENDROOT
BRANCH   5   9
ATOM      9  C   UNL d   1      30.360 -15.014   1.047  0.00  0.00     0.170 C 
BRANCH   9  10
ATOM     10  C   UNL d   1      31.803 -15.403   0.955  0.00  0.00     0.139 C 
ATOM     11  C   UNL d   1      32.607 -14.300   0.325  0.00  0.00     0.035 C 
ATOM     12  C   UNL d   1      33.025 -13.455   1.503  0.00  0.00     0.029 C 
ATOM     13  C   UNL d   1      33.180 -14.463   2.617  0.00  0.00     0.168 C 
ATOM     14  O   UNL d   1      32.298 -15.552   2.316  0.00  0.00    -0.384 OA
ENDBRANCH   9  10
ENDBRANCH   5   9
BRANCH   6  15
ATOM     15  C   UNL d   1      28.932 -13.981   4.920  0.00  0.00     0.049 A 
ATOM     16  C   UNL d   1      29.749 -12.874   4.677  0.00  0.00     0.030 A 
ATOM     17  C   UNL d   1      30.441 -12.247   5.732  0.00  0.00     0.003 A 
ATOM     18  C   UNL d   1      30.268 -12.675   7.052  0.00  0.00     0.007 A 
ATOM     19  C   UNL d   1      29.478 -13.794   7.321  0.00  0.00    -0.053 A 
ATOM     20  C   UNL d   1      28.888 -14.450   6.232  0.00  0.00     0.037 A 
BRANCH  19  21
ATOM     21  C   UNL d   1      29.266 -14.306   8.734  0.00  0.00     0.010 C 
ATOM     22  C   UNL d   1      30.596 -14.669   9.402  0.00  0.00     0.015 C 
ATOM     23  C   UNL d   1      28.530 -13.294   9.629  0.00  0.00     0.015 C 
ENDBRANCH  19  21
ENDBRANCH   6  15
BRANCH   1  24
ATOM     24  C   UNL d   1      26.539 -16.017  -0.430  0.00  0.00     0.040 A 
ATOM     25  C   UNL d   1      26.419 -15.321  -1.669  0.00  0.00     0.054 A 
ATOM     26  C   UNL d   1      25.566 -15.739  -2.656  0.00  0.00     0.071 A 
ATOM     27  C   UNL d   1      24.722 -16.796  -2.336  0.00  0.00     0.073 A 
ATOM     28  C   UNL d   1      24.825 -17.476  -1.098  0.00  0.00     0.071 A 
ATOM     29  C   UNL d   1      25.760 -17.106  -0.144  0.00  0.00     0.054 A 
BRANCH  26  30
ATOM     30  O   UNL d   1      25.528 -15.201  -3.914  0.00  0.00    -0.356 OA
ATOM     31  C   UNL d   1      25.431 -13.769  -4.001  0.00  0.00     0.210 C 
ENDBRANCH  26  30
BRANCH  28  32
ATOM     32  O   UNL d   1      24.032 -18.579  -0.941  0.00  0.00    -0.356 OA
ATOM     33  C   UNL d   1      22.773 -18.302  -0.336  0.00  0.00     0.210 C 
ENDBRANCH  28  32
ENDBRANCH   1  24
TORSDOF 7
ENDMDL
MODEL 8
REMARK VINA RESULT:    -7.063      2.605      8.608
REMARK INTER + INTRA:         -11.068
REMARK INTER:                  -9.151
REMARK INTRA:                  -1.918
REMARK CONF_INDEPENDENT:        2.088
REMARK UNBOUND:                -1.918
REMARK  7 active torsions:
REMARK  status: ('A' for Active; 'I' for Inactive)
REMARK    1  A    between atoms: O_2  and  C_3 
REMARK    2  A    between atoms: C_5  and  O_6 
REMARK    3  A    between atoms: C_9  and  C_10 
REMARK       I    between atoms: C_10  and  N_12 
REMARK       I    between atoms: C_13  and  N_14 
REMARK       I    between atoms: C_13  and  N_21 
REMARK    4  A    between atoms: N_14  and  C_15 
REMARK    5  A    between atoms: C_16  and  C_15 
REMARK    6  A    between atoms: N_21  and  C_22 
REMARK    7  A    between atoms: C_26  and  C_27 
ROOT
ATOM      1  C   UNL d   1      28.602 -13.094   5.665  0.00  0.00     0.294 C 
ATOM      2  O   UNL d   1      28.177 -11.941   5.642  0.00  0.00    -0.265 OA
ATOM      3  N   UNL d   1      28.604 -14.061   4.673  0.00  0.00    -0.023 NA
ATOM      4  C   UNL d   1      28.182 -13.840   3.447  0.00  0.00     0.704 C 
ATOM      5  N   UNL d   1      27.717 -12.668   2.871  0.00  0.00    -0.222 N 
ATOM      6  N   UNL d   1      28.137 -14.919   2.547  0.00  0.00    -0.190 N 
ATOM      7  H   UNL d   1      27.220 -12.758   2.000  0.00  0.00     0.177 HD
ATOM      8  H   UNL d   1      28.528 -15.788   2.887  0.00  0.00     0.184 HD
ENDROOT
BRANCH   5   9
ATOM      9  C   UNL d   1      27.446 -11.452   3.591  0.00  0.00     0.170 C 
BRANCH   9  10
ATOM     10  C   UNL d   1      26.658 -10.322   3.006  0.00  0.00     0.139 C 
ATOM     11  C   UNL d   1      27.516  -9.095   2.872  0.00  0.00     0.035 C 
ATOM     12  C   UNL d   1      28.119  -9.239   1.497  0.00  0.00     0.029 C 
ATOM     13  C   UNL d   1      27.038  -9.944   0.714  0.00  0.00     0.168 C 
ATOM     14  O   UNL d   1      26.278 -10.712   1.656  0.00  0.00    -0.384 OA
ENDBRANCH   9  10
ENDBRANCH   5   9
BRANCH   6  15
ATOM     15  C   UNL d   1      27.901 -14.907   1.148  0.00  0.00     0.049 A 
ATOM     16  C   UNL d   1      28.682 -14.184   0.243  0.00  0.00     0.030 A 
ATOM     17  C   UNL d   1      28.484 -14.320  -1.145  0.00  0.00     0.003 A 
ATOM     18  C   UNL d   1      27.551 -15.232  -1.647  0.00  0.00     0.007 A 
ATOM     19  C   UNL d   1      26.739 -15.949  -0.765  0.00  0.00    -0.053 A 
ATOM     20  C   UNL d   1      26.900 -15.711   0.606  0.00  0.00     0.037 A 
BRANCH  19  21
ATOM     21  C   UNL d   1      25.704 -16.944  -1.258  0.00  0.00     0.010 C 
ATOM     22  C   UNL d   1      25.416 -18.018  -0.204  0.00  0.00     0.015 C 
ATOM     23  C   UNL d   1      24.375 -16.275  -1.650  0.00  0.00     0.015 C 
ENDBRANCH  19  21
ENDBRANCH   6  15
BRANCH   1  24
ATOM     24  C   UNL d   1      29.046 -13.297   7.030  0.00  0.00     0.040 A 
ATOM     25  C   UNL d   1      28.243 -12.716   8.055  0.00  0.00     0.054 A 
ATOM     26  C   UNL d   1      28.474 -12.958   9.383  0.00  0.00     0.071 A 
ATOM     27  C   UNL d   1      29.616 -13.689   9.687  0.00  0.00     0.073 A 
ATOM     28  C   UNL d   1      30.428 -14.250   8.671  0.00  0.00     0.071 A 
ATOM     29  C   UNL d   1      30.127 -14.080   7.328  0.00  0.00     0.054 A 
BRANCH  26  30
ATOM     30  O   UNL d   1      27.643 -12.553  10.391  0.00  0.00    -0.356 OA
ATOM     31  C   UNL d   1      27.784 -13.225  11.655  0.00  0.00     0.210 C 
ENDBRANCH  26  30
BRANCH  28  32
ATOM     32  O   UNL d   1      31.453 -15.055   9.084  0.00  0.00    -0.356 OA
ATOM     33  C   UNL d   1      32.574 -14.343   9.599  0.00  0.00     0.210 C 
ENDBRANCH  28  32
ENDBRANCH   1  24
TORSDOF 7
ENDMDL
MODEL 9
REMARK VINA RESULT:    -6.866      0.867      2.992
REMARK INTER + INTRA:         -11.024
REMARK INTER:                  -8.954
REMARK INTRA:                  -2.070
REMARK CONF_INDEPENDENT:        2.088
REMARK UNBOUND:                -2.070
REMARK  7 active torsions:
REMARK  status: ('A' for Active; 'I' for Inactive)
REMARK    1  A    between atoms: O_2  and  C_3 
REMARK    2  A    between atoms: C_5  and  O_6 
REMARK    3  A    between atoms: C_9  and  C_10 
REMARK       I    between atoms: C_10  and  N_12 
REMARK       I    between atoms: C_13  and  N_14 
REMARK       I    between atoms: C_13  and  N_21 
REMARK    4  A    between atoms: N_14  and  C_15 
REMARK    5  A    between atoms: C_16  and  C_15 
REMARK    6  A    between atoms: N_21  and  C_22 
REMARK    7  A    between atoms: C_26  and  C_27 
ROOT
ATOM      1  C   UNL d   1      26.611 -14.411   0.633  0.00  0.00     0.294 C 
ATOM      2  O   UNL d   1      26.473 -13.272   0.192  0.00  0.00    -0.265 OA
ATOM      3  N   UNL d   1      27.283 -14.852   1.761  0.00  0.00    -0.023 NA
ATOM      4  C   UNL d   1      27.853 -14.042   2.626  0.00  0.00     0.704 C 
ATOM      5  N   UNL d   1      27.877 -12.657   2.655  0.00  0.00    -0.222 N 
ATOM      6  N   UNL d   1      28.591 -14.600   3.684  0.00  0.00    -0.190 N 
ATOM      7  H   UNL d   1      28.560 -12.228   3.258  0.00  0.00     0.177 HD
ATOM      8  H   UNL d   1      28.555 -15.609   3.758  0.00  0.00     0.184 HD
ENDROOT
BRANCH   5   9
ATOM      9  C   UNL d   1      27.394 -11.806   1.600  0.00  0.00     0.170 C 
BRANCH   9  10
ATOM     10  C   UNL d   1      27.564 -10.319   1.615  0.00  0.00     0.139 C 
ATOM     11  C   UNL d   1      26.309  -9.649   2.101  0.00  0.00     0.035 C 
ATOM     12  C   UNL d   1      26.508  -9.575   3.594  0.00  0.00     0.029 C 
ATOM     13  C   UNL d   1      28.001  -9.402   3.739  0.00  0.00     0.168 C 
ATOM     14  O   UNL d   1      28.602 -10.012   2.589  0.00  0.00    -0.384 OA
ENDBRANCH   9  10
ENDBRANCH   5   9
BRANCH   6  15
ATOM     15  C   UNL d   1      29.136 -13.963   4.829  0.00  0.00     0.049 A 
ATOM     16  C   UNL d   1      28.903 -14.401   6.135  0.00  0.00     0.030 A 
ATOM     17  C   UNL d   1      29.579 -13.811   7.221  0.00  0.00     0.003 A 
ATOM     18  C   UNL d   1      30.548 -12.826   7.008  0.00  0.00     0.007 A 
ATOM     19  C   UNL d   1      30.782 -12.352   5.716  0.00  0.00    -0.053 A 
ATOM     20  C   UNL d   1      30.017 -12.895   4.675  0.00  0.00     0.037 A 
BRANCH  19  21
ATOM     21  C   UNL d   1      31.816 -11.276   5.431  0.00  0.00     0.010 C 
ATOM     22  C   UNL d   1      31.706 -10.763   3.993  0.00  0.00     0.015 C 
ATOM     23  C   UNL d   1      31.704 -10.077   6.389  0.00  0.00     0.015 C 
ENDBRANCH  19  21
ENDBRANCH   6  15
BRANCH   1  24
ATOM     24  C   UNL d   1      25.981 -15.267  -0.353  0.00  0.00     0.040 A 
ATOM     25  C   UNL d   1      25.909 -14.762  -1.684  0.00  0.00     0.054 A 
ATOM     26  C   UNL d   1      25.471 -15.531  -2.729  0.00  0.00     0.071 A 
ATOM     27  C   UNL d   1      24.969 -16.786  -2.404  0.00  0.00     0.073 A 
ATOM     28  C   UNL d   1      25.019 -17.282  -1.079  0.00  0.00     0.071 A 
ATOM     29  C   UNL d   1      25.556 -16.531  -0.044  0.00  0.00     0.054 A 
BRANCH  26  30
ATOM     30  O   UNL d   1      25.530 -15.147  -4.041  0.00  0.00    -0.356 OA
ATOM     31  C   UNL d   1      26.825 -15.179  -4.666  0.00  0.00     0.210 C 
ENDBRANCH  26  30
BRANCH  28  32
ATOM     32  O   UNL d   1      24.614 -18.575  -0.895  0.00  0.00    -0.356 OA
ATOM     33  C   UNL d   1      23.199 -18.741  -0.891  0.00  0.00     0.210 C 
ENDBRANCH  28  32
ENDBRANCH   1  24
TORSDOF 7
ENDMDL
