MODEL 1
REMARK VINA RESULT:    -7.755      0.000      0.000
REMARK INTER + INTRA:         -10.803
REMARK INTER:                  -9.843
REMARK INTRA:                  -0.960
REMARK CONF_INDEPENDENT:        2.088
REMARK UNBOUND:                -0.960
REMARK  7 active torsions:
REMARK  status: ('A' for Active; 'I' for Inactive)
REMARK       I    between atoms: N_1  and  C_2 
REMARK    1  A    between atoms: C_2  and  C_4 
REMARK    2  A    between atoms: C_4  and  C_5 
REMARK    3  A    between atoms: C_8  and  O_9 
REMARK    4  A    between atoms: O_9  and  C_10 
REMARK    5  A    between atoms: C_10  and  C_11 
REMARK       I    between atoms: C_11  and  N_13 
REMARK    6  A    between atoms: N_13  and  N_14 
REMARK    7  A    between atoms: N_14  and  C_15 
ROOT
ATOM      1  C   UNL d   1      24.418 -18.199  -0.433  0.00  0.00     0.280 C 
ENDROOT
BRANCH   1   2
ATOM      2  O   UNL d   1      24.678 -16.799  -0.251  0.00  0.00    -0.342 OA
BRANCH   2   3
ATOM      3  C   UNL d   1      25.459 -16.161  -1.181  0.00  0.00     0.069 A 
ATOM      4  C   UNL d   1      26.819 -16.506  -1.204  0.00  0.00     0.037 A 
ATOM      5  C   UNL d   1      27.715 -15.879  -2.088  0.00  0.00     0.010 A 
ATOM      6  C   UNL d   1      27.241 -14.957  -3.025  0.00  0.00    -0.049 A 
ATOM      7  C   UNL d   1      25.888 -14.594  -2.969  0.00  0.00     0.010 A 
ATOM      8  C   UNL d   1      25.002 -15.207  -2.081  0.00  0.00     0.037 A 
BRANCH   6   9
ATOM      9  C   UNL d   1      28.114 -14.405  -4.137  0.00  0.00     0.141 C 
BRANCH   9  10
ATOM     10  C   UNL d   1      27.696 -14.903  -5.525  0.00  0.00     0.219 C 
ATOM     11  N   UNL d   1      28.494 -14.552  -6.568  0.00  0.00    -0.370 N 
ATOM     12  H   UNL d   1      28.204 -14.892  -7.477  0.00  0.00     0.159 HD
ATOM     13  H   UNL d   1      29.369 -14.058  -6.483  0.00  0.00     0.159 HD
ATOM     14  O   UNL d   1      26.691 -15.574  -5.773  0.00  0.00    -0.273 OA
ENDBRANCH   9  10
ENDBRANCH   6   9
ENDBRANCH   2   3
ENDBRANCH   1   2
BRANCH   1  15
ATOM     15  C   UNL d   1      23.095 -18.433  -1.199  0.00  0.00     0.260 C 
ATOM     16  O   UNL d   1      22.950 -19.332  -2.030  0.00  0.00    -0.269 OA
ATOM     17  N   UNL d   1      22.056 -17.537  -0.895  0.00  0.00    -0.268 N 
ATOM     18  H   UNL d   1      22.081 -16.990  -0.039  0.00  0.00     0.190 HD
BRANCH  17  19
ATOM     19  N   UNL d   1      20.760 -17.978  -1.263  0.00  0.00    -0.298 N 
ATOM     20  H   UNL d   1      20.133 -17.202  -1.517  0.00  0.00     0.187 HD
BRANCH  19  21
ATOM     21  C   UNL d   1      20.134 -18.995  -0.508  0.00  0.00     0.048 A 
ATOM     22  C   UNL d   1      20.694 -19.306   0.748  0.00  0.00     0.034 A 
ATOM     23  C   UNL d   1      20.136 -20.284   1.582  0.00  0.00     0.044 A 
ATOM     24  C   UNL d   1      18.978 -20.933   1.185  0.00  0.00     0.116 A 
ATOM     25  F   UNL d   1      18.402 -21.821   2.006  0.00  0.00    -0.206 F 
ATOM     26  C   UNL d   1      18.406 -20.658  -0.051  0.00  0.00     0.044 A 
ATOM     27  C   UNL d   1      18.986 -19.698  -0.899  0.00  0.00     0.034 A 
ENDBRANCH  19  21
ENDBRANCH  17  19
ENDBRANCH   1  15
TORSDOF 7
ENDMDL
MODEL 2
REMARK VINA RESULT:    -7.719      4.262      9.634
REMARK INTER + INTRA:         -10.751
REMARK INTER:                  -9.807
REMARK INTRA:                  -0.944
REMARK CONF_INDEPENDENT:        2.088
REMARK UNBOUND:                -0.944
REMARK  7 active torsions:
REMARK  status: ('A' for Active; 'I' for Inactive)
REMARK       I    between atoms: N_1  and  C_2 
REMARK    1  A    between atoms: C_2  and  C_4 
REMARK    2  A    between atoms: C_4  and  C_5 
REMARK    3  A    between atoms: C_8  and  O_9 
REMARK    4  A    between atoms: O_9  and  C_10 
REMARK    5  A    between atoms: C_10  and  C_11 
REMARK       I    between atoms: C_11  and  N_13 
REMARK    6  A    between atoms: N_13  and  N_14 
REMARK    7  A    between atoms: N_14  and  C_15 
ROOT
ATOM      1  C   UNL d   1      25.386 -14.846  -2.328  0.00  0.00     0.280 C 
ENDROOT
BRANCH   1   2
ATOM      2  O   UNL d   1      25.745 -16.130  -1.798  0.00  0.00    -0.342 OA
BRANCH   2   3
ATOM      3  C   UNL d   1      24.751 -16.907  -1.259  0.00  0.00     0.069 A 
ATOM      4  C   UNL d   1      23.457 -16.365  -1.264  0.00  0.00     0.037 A 
ATOM      5  C   UNL d   1      22.373 -17.058  -0.696  0.00  0.00     0.010 A 
ATOM      6  C   UNL d   1      22.559 -18.349  -0.191  0.00  0.00    -0.049 A 
ATOM      7  C   UNL d   1      23.862 -18.865  -0.158  0.00  0.00     0.010 A 
ATOM      8  C   UNL d   1      24.939 -18.168  -0.710  0.00  0.00     0.037 A 
BRANCH   6   9
ATOM      9  C   UNL d   1      21.399 -19.226   0.243  0.00  0.00     0.141 C 
BRANCH   9  10
ATOM     10  C   UNL d   1      20.378 -19.458  -0.876  0.00  0.00     0.219 C 
ATOM     11  N   UNL d   1      19.064 -19.415  -0.527  0.00  0.00    -0.370 N 
ATOM     12  H   UNL d   1      18.404 -19.567  -1.279  0.00  0.00     0.159 HD
ATOM     13  H   UNL d   1      18.720 -19.171   0.389  0.00  0.00     0.159 HD
ATOM     14  O   UNL d   1      20.649 -19.698  -2.056  0.00  0.00    -0.273 OA
ENDBRANCH   9  10
ENDBRANCH   6   9
ENDBRANCH   2   3
ENDBRANCH   1   2
BRANCH   1  15
ATOM     15  C   UNL d   1      25.566 -14.798  -3.864  0.00  0.00     0.260 C 
ATOM     16  O   UNL d   1      24.691 -14.389  -4.630  0.00  0.00    -0.269 OA
ATOM     17  N   UNL d   1      26.801 -15.267  -4.341  0.00  0.00    -0.268 N 
ATOM     18  H   UNL d   1      27.601 -15.339  -3.718  0.00  0.00     0.190 HD
BRANCH  17  19
ATOM     19  N   UNL d   1      27.129 -14.855  -5.657  0.00  0.00    -0.298 N 
ATOM     20  H   UNL d   1      26.484 -15.234  -6.365  0.00  0.00     0.187 HD
BRANCH  19  21
ATOM     21  C   UNL d   1      28.483 -14.846  -6.064  0.00  0.00     0.048 A 
ATOM     22  C   UNL d   1      29.280 -15.943  -5.680  0.00  0.00     0.034 A 
ATOM     23  C   UNL d   1      30.628 -16.039  -6.050  0.00  0.00     0.044 A 
ATOM     24  C   UNL d   1      31.183 -15.055  -6.852  0.00  0.00     0.116 A 
ATOM     25  F   UNL d   1      32.452 -15.173  -7.264  0.00  0.00    -0.206 F 
ATOM     26  C   UNL d   1      30.427 -13.954  -7.240  0.00  0.00     0.044 A 
ATOM     27  C   UNL d   1      29.084 -13.846  -6.840  0.00  0.00     0.034 A 
ENDBRANCH  19  21
ENDBRANCH  17  19
ENDBRANCH   1  15
TORSDOF 7
ENDMDL
MODEL 3
REMARK VINA RESULT:    -7.663      6.370      9.409
REMARK INTER + INTRA:         -10.931
REMARK INTER:                  -9.751
REMARK INTRA:                  -1.179
REMARK CONF_INDEPENDENT:        2.088
REMARK UNBOUND:                -1.179
REMARK  7 active torsions:
REMARK  status: ('A' for Active; 'I' for Inactive)
REMARK       I    between atoms: N_1  and  C_2 
REMARK    1  A    between atoms: C_2  and  C_4 
REMARK    2  A    between atoms: C_4  and  C_5 
REMARK    3  A    between atoms: C_8  and  O_9 
REMARK    4  A    between atoms: O_9  and  C_10 
REMARK    5  A    between atoms: C_10  and  C_11 
REMARK       I    between atoms: C_11  and  N_13 
REMARK    6  A    between atoms: N_13  and  N_14 
REMARK    7  A    between atoms: N_14  and  C_15 
ROOT
ATOM      1  C   UNL d   1      27.968 -15.478   0.785  0.00  0.00     0.280 C 
ENDROOT
BRANCH   1   2
ATOM      2  O   UNL d   1      27.032 -15.414  -0.301  0.00  0.00    -0.342 OA
BRANCH   2   3
ATOM      3  C   UNL d   1      26.039 -16.358  -0.354  0.00  0.00     0.069 A 
ATOM      4  C   UNL d   1      24.814 -15.952  -0.905  0.00  0.00     0.037 A 
ATOM      5  C   UNL d   1      23.715 -16.828  -0.967  0.00  0.00     0.010 A 
ATOM      6  C   UNL d   1      23.858 -18.156  -0.554  0.00  0.00    -0.049 A 
ATOM      7  C   UNL d   1      25.074 -18.540   0.029  0.00  0.00     0.010 A 
ATOM      8  C   UNL d   1      26.159 -17.664   0.102  0.00  0.00     0.037 A 
BRANCH   6   9
ATOM      9  C   UNL d   1      22.781 -19.200  -0.786  0.00  0.00     0.141 C 
BRANCH   9  10
ATOM     10  C   UNL d   1      21.394 -18.735  -0.326  0.00  0.00     0.219 C 
ATOM     11  N   UNL d   1      20.896 -19.311   0.800  0.00  0.00    -0.370 N 
ATOM     12  H   UNL d   1      19.981 -18.990   1.090  0.00  0.00     0.159 HD
ATOM     13  H   UNL d   1      21.400 -19.959   1.386  0.00  0.00     0.159 HD
ATOM     14  O   UNL d   1      20.690 -17.901  -0.902  0.00  0.00    -0.273 OA
ENDBRANCH   9  10
ENDBRANCH   6   9
ENDBRANCH   2   3
ENDBRANCH   1   2
BRANCH   1  15
ATOM     15  C   UNL d   1      27.583 -14.501   1.921  0.00  0.00     0.260 C 
ATOM     16  O   UNL d   1      26.857 -13.520   1.746  0.00  0.00    -0.269 OA
ATOM     17  N   UNL d   1      28.128 -14.798   3.182  0.00  0.00    -0.268 N 
ATOM     18  H   UNL d   1      28.485 -15.728   3.383  0.00  0.00     0.190 HD
BRANCH  17  19
ATOM     19  N   UNL d   1      27.474 -14.179   4.277  0.00  0.00    -0.298 N 
ATOM     20  H   UNL d   1      26.790 -13.469   3.981  0.00  0.00     0.187 HD
BRANCH  19  21
ATOM     21  C   UNL d   1      28.226 -13.812   5.415  0.00  0.00     0.048 A 
ATOM     22  C   UNL d   1      27.781 -12.695   6.152  0.00  0.00     0.034 A 
ATOM     23  C   UNL d   1      28.445 -12.263   7.307  0.00  0.00     0.044 A 
ATOM     24  C   UNL d   1      29.540 -12.976   7.766  0.00  0.00     0.116 A 
ATOM     25  F   UNL d   1      30.140 -12.607   8.907  0.00  0.00    -0.206 F 
ATOM     26  C   UNL d   1      30.012 -14.075   7.059  0.00  0.00     0.044 A 
ATOM     27  C   UNL d   1      29.362 -14.487   5.882  0.00  0.00     0.034 A 
ENDBRANCH  19  21
ENDBRANCH  17  19
ENDBRANCH   1  15
TORSDOF 7
ENDMDL
MODEL 4
REMARK VINA RESULT:    -7.309      4.883      9.476
REMARK INTER + INTRA:         -11.035
REMARK INTER:                  -9.397
REMARK INTRA:                  -1.637
REMARK CONF_INDEPENDENT:        2.088
REMARK UNBOUND:                -1.637
REMARK  7 active torsions:
REMARK  status: ('A' for Active; 'I' for Inactive)
REMARK       I    between atoms: N_1  and  C_2 
REMARK    1  A    between atoms: C_2  and  C_4 
REMARK    2  A    between atoms: C_4  and  C_5 
REMARK    3  A    between atoms: C_8  and  O_9 
REMARK    4  A    between atoms: O_9  and  C_10 
REMARK    5  A    between atoms: C_10  and  C_11 
REMARK       I    between atoms: C_11  and  N_13 
REMARK    6  A    between atoms: N_13  and  N_14 
REMARK    7  A    between atoms: N_14  and  C_15 
ROOT
ATOM      1  C   UNL d   1      25.800 -15.975  -2.988  0.00  0.00     0.280 C 
ENDROOT
BRANCH   1   2
ATOM      2  O   UNL d   1      25.511 -15.941  -1.584  0.00  0.00    -0.342 OA
BRANCH   2   3
ATOM      3  C   UNL d   1      24.547 -16.790  -1.102  0.00  0.00     0.069 A 
ATOM      4  C   UNL d   1      23.225 -16.320  -1.128  0.00  0.00     0.037 A 
ATOM      5  C   UNL d   1      22.166 -17.092  -0.617  0.00  0.00     0.010 A 
ATOM      6  C   UNL d   1      22.409 -18.388  -0.153  0.00  0.00    -0.049 A 
ATOM      7  C   UNL d   1      23.737 -18.833  -0.098  0.00  0.00     0.010 A 
ATOM      8  C   UNL d   1      24.788 -18.059  -0.593  0.00  0.00     0.037 A 
BRANCH   6   9
ATOM      9  C   UNL d   1      21.288 -19.343   0.215  0.00  0.00     0.141 C 
BRANCH   9  10
ATOM     10  C   UNL d   1      20.256 -19.509  -0.907  0.00  0.00     0.219 C 
ATOM     11  N   UNL d   1      18.946 -19.458  -0.548  0.00  0.00    -0.370 N 
ATOM     12  H   UNL d   1      18.279 -19.566  -1.302  0.00  0.00     0.159 HD
ATOM     13  H   UNL d   1      18.611 -19.248   0.380  0.00  0.00     0.159 HD
ATOM     14  O   UNL d   1      20.516 -19.702  -2.098  0.00  0.00    -0.273 OA
ENDBRANCH   9  10
ENDBRANCH   6   9
ENDBRANCH   2   3
ENDBRANCH   1   2
BRANCH   1  15
ATOM     15  C   UNL d   1      25.531 -14.605  -3.654  0.00  0.00     0.260 C 
ATOM     16  O   UNL d   1      25.145 -14.488  -4.819  0.00  0.00    -0.269 OA
ATOM     17  N   UNL d   1      25.768 -13.483  -2.841  0.00  0.00    -0.268 N 
ATOM     18  H   UNL d   1      25.814 -13.580  -1.830  0.00  0.00     0.190 HD
BRANCH  17  19
ATOM     19  N   UNL d   1      25.150 -12.285  -3.280  0.00  0.00    -0.298 N 
ATOM     20  H   UNL d   1      24.517 -12.434  -4.078  0.00  0.00     0.187 HD
BRANCH  19  21
ATOM     21  C   UNL d   1      25.919 -11.103  -3.371  0.00  0.00     0.048 A 
ATOM     22  C   UNL d   1      27.265 -11.172  -2.958  0.00  0.00     0.034 A 
ATOM     23  C   UNL d   1      28.115 -10.061  -3.028  0.00  0.00     0.044 A 
ATOM     24  C   UNL d   1      27.637  -8.874  -3.559  0.00  0.00     0.116 A 
ATOM     25  F   UNL d   1      28.463  -7.827  -3.691  0.00  0.00    -0.206 F 
ATOM     26  C   UNL d   1      26.313  -8.768  -3.967  0.00  0.00     0.044 A 
ATOM     27  C   UNL d   1      25.453  -9.876  -3.865  0.00  0.00     0.034 A 
ENDBRANCH  19  21
ENDBRANCH  17  19
ENDBRANCH   1  15
TORSDOF 7
ENDMDL
MODEL 5
REMARK VINA RESULT:    -7.136      6.500      9.372
REMARK INTER + INTRA:         -10.684
REMARK INTER:                  -9.224
REMARK INTRA:                  -1.460
REMARK CONF_INDEPENDENT:        2.088
REMARK UNBOUND:                -1.460
REMARK  7 active torsions:
REMARK  status: ('A' for Active; 'I' for Inactive)
REMARK       I    between atoms: N_1  and  C_2 
REMARK    1  A    between atoms: C_2  and  C_4 
REMARK    2  A    between atoms: C_4  and  C_5 
REMARK    3  A    between atoms: C_8  and  O_9 
REMARK    4  A    between atoms: O_9  and  C_10 
REMARK    5  A    between atoms: C_10  and  C_11 
REMARK       I    between atoms: C_11  and  N_13 
REMARK    6  A    between atoms: N_13  and  N_14 
REMARK    7  A    between atoms: N_14  and  C_15 
ROOT
ATOM      1  C   UNL d   1      27.612 -14.490   0.847  0.00  0.00     0.280 C 
ENDROOT
BRANCH   1   2
ATOM      2  O   UNL d   1      27.564 -15.924   0.820  0.00  0.00    -0.342 OA
BRANCH   2   3
ATOM      3  C   UNL d   1      26.483 -16.523   0.225  0.00  0.00     0.069 A 
ATOM      4  C   UNL d   1      26.206 -17.844   0.608  0.00  0.00     0.037 A 
ATOM      5  C   UNL d   1      25.148 -18.566   0.027  0.00  0.00     0.010 A 
ATOM      6  C   UNL d   1      24.296 -17.939  -0.888  0.00  0.00    -0.049 A 
ATOM      7  C   UNL d   1      24.604 -16.632  -1.291  0.00  0.00     0.010 A 
ATOM      8  C   UNL d   1      25.664 -15.922  -0.722  0.00  0.00     0.037 A 
BRANCH   6   9
ATOM      9  C   UNL d   1      23.021 -18.592  -1.391  0.00  0.00     0.141 C 
BRANCH   9  10
ATOM     10  C   UNL d   1      21.808 -18.288  -0.505  0.00  0.00     0.219 C 
ATOM     11  N   UNL d   1      21.926 -18.575   0.818  0.00  0.00    -0.370 N 
ATOM     12  H   UNL d   1      21.117 -18.365   1.388  0.00  0.00     0.159 HD
ATOM     13  H   UNL d   1      22.771 -18.900   1.263  0.00  0.00     0.159 HD
ATOM     14  O   UNL d   1      20.733 -17.825  -0.896  0.00  0.00    -0.273 OA
ENDBRANCH   9  10
ENDBRANCH   6   9
ENDBRANCH   2   3
ENDBRANCH   1   2
BRANCH   1  15
ATOM     15  C   UNL d   1      27.336 -13.942   2.267  0.00  0.00     0.260 C 
ATOM     16  O   UNL d   1      26.647 -12.942   2.480  0.00  0.00    -0.269 OA
ATOM     17  N   UNL d   1      27.937 -14.658   3.316  0.00  0.00    -0.268 N 
ATOM     18  H   UNL d   1      28.262 -15.610   3.171  0.00  0.00     0.190 HD
BRANCH  17  19
ATOM     19  N   UNL d   1      27.375 -14.427   4.597  0.00  0.00    -0.298 N 
ATOM     20  H   UNL d   1      26.422 -14.041   4.549  0.00  0.00     0.187 HD
BRANCH  19  21
ATOM     21  C   UNL d   1      28.174 -13.854   5.612  0.00  0.00     0.048 A 
ATOM     22  C   UNL d   1      27.783 -12.594   6.109  0.00  0.00     0.034 A 
ATOM     23  C   UNL d   1      28.497 -11.952   7.129  0.00  0.00     0.044 A 
ATOM     24  C   UNL d   1      29.588 -12.588   7.698  0.00  0.00     0.116 A 
ATOM     25  F   UNL d   1      30.235 -12.009   8.719  0.00  0.00    -0.206 F 
ATOM     26  C   UNL d   1      30.007 -13.826   7.225  0.00  0.00     0.044 A 
ATOM     27  C   UNL d   1      29.307 -14.454   6.179  0.00  0.00     0.034 A 
ENDBRANCH  19  21
ENDBRANCH  17  19
ENDBRANCH   1  15
TORSDOF 7
ENDMDL
MODEL 6
REMARK VINA RESULT:    -7.128      5.025      8.635
REMARK INTER + INTRA:         -10.963
REMARK INTER:                  -9.217
REMARK INTRA:                  -1.747
REMARK CONF_INDEPENDENT:        2.088
REMARK UNBOUND:                -1.747
REMARK  7 active torsions:
REMARK  status: ('A' for Active; 'I' for Inactive)
REMARK       I    between atoms: N_1  and  C_2 
REMARK    1  A    between atoms: C_2  and  C_4 
REMARK    2  A    between atoms: C_4  and  C_5 
REMARK    3  A    between atoms: C_8  and  O_9 
REMARK    4  A    between atoms: O_9  and  C_10 
REMARK    5  A    between atoms: C_10  and  C_11 
REMARK       I    between atoms: C_11  and  N_13 
REMARK    6  A    between atoms: N_13  and  N_14 
REMARK    7  A    between atoms: N_14  and  C_15 
ROOT
ATOM      1  C   UNL d   1      26.898 -16.593  -1.059  0.00  0.00     0.280 C 
ENDROOT
BRANCH   1   2
ATOM      2  O   UNL d   1      25.618 -15.954  -0.958  0.00  0.00    -0.342 OA
BRANCH   2   3
ATOM      3  C   UNL d   1      24.518 -16.743  -0.736  0.00  0.00     0.069 A 
ATOM      4  C   UNL d   1      24.763 -18.070  -0.354  0.00  0.00     0.037 A 
ATOM      5  C   UNL d   1      23.707 -18.976  -0.145  0.00  0.00     0.010 A 
ATOM      6  C   UNL d   1      22.383 -18.536  -0.232  0.00  0.00    -0.049 A 
ATOM      7  C   UNL d   1      22.150 -17.218  -0.650  0.00  0.00     0.010 A 
ATOM      8  C   UNL d   1      23.201 -16.325  -0.871  0.00  0.00     0.037 A 
BRANCH   6   9
ATOM      9  C   UNL d   1      21.209 -19.404   0.182  0.00  0.00     0.141 C 
BRANCH   9  10
ATOM     10  C   UNL d   1      20.120 -19.484  -0.893  0.00  0.00     0.219 C 
ATOM     11  N   UNL d   1      18.835 -19.324  -0.479  0.00  0.00    -0.370 N 
ATOM     12  H   UNL d   1      18.130 -19.377  -1.203  0.00  0.00     0.159 HD
ATOM     13  H   UNL d   1      18.559 -19.086   0.461  0.00  0.00     0.159 HD
ATOM     14  O   UNL d   1      20.312 -19.700  -2.093  0.00  0.00    -0.273 OA
ENDBRANCH   9  10
ENDBRANCH   6   9
ENDBRANCH   2   3
ENDBRANCH   1   2
BRANCH   1  15
ATOM     15  C   UNL d   1      27.878 -16.067   0.016  0.00  0.00     0.260 C 
ATOM     16  O   UNL d   1      28.995 -16.554   0.204  0.00  0.00    -0.269 OA
ATOM     17  N   UNL d   1      27.407 -14.990   0.786  0.00  0.00    -0.268 N 
ATOM     18  H   UNL d   1      26.628 -14.425   0.459  0.00  0.00     0.190 HD
BRANCH  17  19
ATOM     19  N   UNL d   1      28.411 -14.254   1.464  0.00  0.00    -0.298 N 
ATOM     20  H   UNL d   1      29.362 -14.585   1.246  0.00  0.00     0.187 HD
BRANCH  19  21
ATOM     21  C   UNL d   1      28.222 -13.910   2.821  0.00  0.00     0.048 A 
ATOM     22  C   UNL d   1      28.054 -12.544   3.125  0.00  0.00     0.034 A 
ATOM     23  C   UNL d   1      27.839 -12.102   4.437  0.00  0.00     0.044 A 
ATOM     24  C   UNL d   1      27.742 -13.033   5.459  0.00  0.00     0.116 A 
ATOM     25  F   UNL d   1      27.471 -12.623   6.705  0.00  0.00    -0.206 F 
ATOM     26  C   UNL d   1      27.912 -14.387   5.196  0.00  0.00     0.044 A 
ATOM     27  C   UNL d   1      28.159 -14.824   3.882  0.00  0.00     0.034 A 
ENDBRANCH  19  21
ENDBRANCH  17  19
ENDBRANCH   1  15
TORSDOF 7
ENDMDL
MODEL 7
REMARK VINA RESULT:    -7.103      1.828      2.169
REMARK INTER + INTRA:         -10.363
REMARK INTER:                  -9.191
REMARK INTRA:                  -1.171
REMARK CONF_INDEPENDENT:        2.088
REMARK UNBOUND:                -1.171
REMARK  7 active torsions:
REMARK  status: ('A' for Active; 'I' for Inactive)
REMARK       I    between atoms: N_1  and  C_2 
REMARK    1  A    between atoms: C_2  and  C_4 
REMARK    2  A    between atoms: C_4  and  C_5 
REMARK    3  A    between atoms: C_8  and  O_9 
REMARK    4  A    between atoms: O_9  and  C_10 
REMARK    5  A    between atoms: C_10  and  C_11 
REMARK       I    between atoms: C_11  and  N_13 
REMARK    6  A    between atoms: N_13  and  N_14 
REMARK    7  A    between atoms: N_14  and  C_15 
ROOT
ATOM      1  C   UNL d   1      25.320 -18.080   0.102  0.00  0.00     0.280 C 
ENDROOT
BRANCH   1   2
ATOM      2  O   UNL d   1      26.133 -17.740  -1.030  0.00  0.00    -0.342 OA
BRANCH   2   3
ATOM      3  C   UNL d   1      26.113 -16.442  -1.472  0.00  0.00     0.069 A 
ATOM      4  C   UNL d   1      26.779 -15.496  -0.677  0.00  0.00     0.037 A 
ATOM      5  C   UNL d   1      26.782 -14.131  -1.015  0.00  0.00     0.010 A 
ATOM      6  C   UNL d   1      26.189 -13.707  -2.208  0.00  0.00    -0.049 A 
ATOM      7  C   UNL d   1      25.496 -14.653  -2.975  0.00  0.00     0.010 A 
ATOM      8  C   UNL d   1      25.482 -16.006  -2.630  0.00  0.00     0.037 A 
BRANCH   6   9
ATOM      9  C   UNL d   1      26.337 -12.289  -2.730  0.00  0.00     0.141 C 
BRANCH   9  10
ATOM     10  C   UNL d   1      26.604 -12.236  -4.239  0.00  0.00     0.219 C 
ATOM     11  N   UNL d   1      25.530 -12.023  -5.045  0.00  0.00    -0.370 N 
ATOM     12  H   UNL d   1      25.725 -11.988  -6.038  0.00  0.00     0.159 HD
ATOM     13  H   UNL d   1      24.596 -11.826  -4.719  0.00  0.00     0.159 HD
ATOM     14  O   UNL d   1      27.703 -12.390  -4.778  0.00  0.00    -0.273 OA
ENDBRANCH   9  10
ENDBRANCH   6   9
ENDBRANCH   2   3
ENDBRANCH   1   2
BRANCH   1  15
ATOM     15  C   UNL d   1      23.834 -17.727  -0.142  0.00  0.00     0.260 C 
ATOM     16  O   UNL d   1      23.466 -16.634  -0.579  0.00  0.00    -0.269 OA
ATOM     17  N   UNL d   1      22.914 -18.740   0.177  0.00  0.00    -0.268 N 
ATOM     18  H   UNL d   1      23.220 -19.705   0.268  0.00  0.00     0.190 HD
BRANCH  17  19
ATOM     19  N   UNL d   1      21.633 -18.592  -0.412  0.00  0.00    -0.298 N 
ATOM     20  H   UNL d   1      21.415 -17.614  -0.648  0.00  0.00     0.187 HD
BRANCH  19  21
ATOM     21  C   UNL d   1      20.539 -19.311   0.120  0.00  0.00     0.048 A 
ATOM     22  C   UNL d   1      19.526 -19.704  -0.778  0.00  0.00     0.034 A 
ATOM     23  C   UNL d   1      18.410 -20.439  -0.354  0.00  0.00     0.044 A 
ATOM     24  C   UNL d   1      18.319 -20.828   0.972  0.00  0.00     0.116 A 
ATOM     25  F   UNL d   1      17.289 -21.587   1.370  0.00  0.00    -0.206 F 
ATOM     26  C   UNL d   1      19.295 -20.449   1.886  0.00  0.00     0.044 A 
ATOM     27  C   UNL d   1      20.398 -19.685   1.463  0.00  0.00     0.034 A 
ENDBRANCH  19  21
ENDBRANCH  17  19
ENDBRANCH   1  15
TORSDOF 7
ENDMDL
MODEL 8
REMARK VINA RESULT:    -6.676      4.430      9.257
REMARK INTER + INTRA:         -10.421
REMARK INTER:                  -8.764
REMARK INTRA:                  -1.657
REMARK CONF_INDEPENDENT:        2.088
REMARK UNBOUND:                -1.657
REMARK  7 active torsions:
REMARK  status: ('A' for Active; 'I' for Inactive)
REMARK       I    between atoms: N_1  and  C_2 
REMARK    1  A    between atoms: C_2  and  C_4 
REMARK    2  A    between atoms: C_4  and  C_5 
REMARK    3  A    between atoms: C_8  and  O_9 
REMARK    4  A    between atoms: O_9  and  C_10 
REMARK    5  A    between atoms: C_10  and  C_11 
REMARK       I    between atoms: C_11  and  N_13 
REMARK    6  A    between atoms: N_13  and  N_14 
REMARK    7  A    between atoms: N_14  and  C_15 
ROOT
ATOM      1  C   UNL d   1      26.800 -14.895  -3.827  0.00  0.00     0.280 C 
ENDROOT
BRANCH   1   2
ATOM      2  O   UNL d   1      27.263 -15.351  -2.547  0.00  0.00    -0.342 OA
BRANCH   2   3
ATOM      3  C   UNL d   1      26.417 -16.124  -1.793  0.00  0.00     0.069 A 
ATOM      4  C   UNL d   1      25.042 -15.952  -2.014  0.00  0.00     0.037 A 
ATOM      5  C   UNL d   1      24.088 -16.662  -1.263  0.00  0.00     0.010 A 
ATOM      6  C   UNL d   1      24.504 -17.623  -0.337  0.00  0.00    -0.049 A 
ATOM      7  C   UNL d   1      25.879 -17.761  -0.099  0.00  0.00     0.010 A 
ATOM      8  C   UNL d   1      26.824 -17.044  -0.836  0.00  0.00     0.037 A 
BRANCH   6   9
ATOM      9  C   UNL d   1      23.531 -18.564   0.350  0.00  0.00     0.141 C 
BRANCH   9  10
ATOM     10  C   UNL d   1      22.425 -19.064  -0.586  0.00  0.00     0.219 C 
ATOM     11  N   UNL d   1      21.375 -19.705  -0.008  0.00  0.00    -0.370 N 
ATOM     12  H   UNL d   1      20.653 -20.025  -0.642  0.00  0.00     0.159 HD
ATOM     13  H   UNL d   1      21.239 -19.807   0.986  0.00  0.00     0.159 HD
ATOM     14  O   UNL d   1      22.421 -18.949  -1.815  0.00  0.00    -0.273 OA
ENDBRANCH   9  10
ENDBRANCH   6   9
ENDBRANCH   2   3
ENDBRANCH   1   2
BRANCH   1  15
ATOM     15  C   UNL d   1      27.730 -15.372  -4.967  0.00  0.00     0.260 C 
ATOM     16  O   UNL d   1      27.475 -15.196  -6.160  0.00  0.00    -0.269 OA
ATOM     17  N   UNL d   1      28.897 -16.037  -4.554  0.00  0.00    -0.268 N 
ATOM     18  H   UNL d   1      29.237 -15.939  -3.601  0.00  0.00     0.190 HD
BRANCH  17  19
ATOM     19  N   UNL d   1      29.923 -16.106  -5.530  0.00  0.00    -0.298 N 
ATOM     20  H   UNL d   1      29.799 -15.419  -6.286  0.00  0.00     0.187 HD
BRANCH  19  21
ATOM     21  C   UNL d   1      30.375 -17.370  -5.972  0.00  0.00     0.048 A 
ATOM     22  C   UNL d   1      30.347 -18.429  -5.041  0.00  0.00     0.034 A 
ATOM     23  C   UNL d   1      30.754 -19.724  -5.387  0.00  0.00     0.044 A 
ATOM     24  C   UNL d   1      31.151 -19.985  -6.688  0.00  0.00     0.116 A 
ATOM     25  F   UNL d   1      31.478 -21.235  -7.043  0.00  0.00    -0.206 F 
ATOM     26  C   UNL d   1      31.199 -18.963  -7.629  0.00  0.00     0.044 A 
ATOM     27  C   UNL d   1      30.820 -17.657  -7.270  0.00  0.00     0.034 A 
ENDBRANCH  19  21
ENDBRANCH  17  19
ENDBRANCH   1  15
TORSDOF 7
ENDMDL
MODEL 9
REMARK VINA RESULT:    -6.606      2.301      2.958
REMARK INTER + INTRA:         -10.420
REMARK INTER:                  -8.695
REMARK INTRA:                  -1.725
REMARK CONF_INDEPENDENT:        2.088
REMARK UNBOUND:                -1.725
REMARK  7 active torsions:
REMARK  status: ('A' for Active; 'I' for Inactive)
REMARK       I    between atoms: N_1  and  C_2 
REMARK    1  A    between atoms: C_2  and  C_4 
REMARK    2  A    between atoms: C_4  and  C_5 
REMARK    3  A    between atoms: C_8  and  O_9 
REMARK    4  A    between atoms: O_9  and  C_10 
REMARK    5  A    between atoms: C_10  and  C_11 
REMARK       I    between atoms: C_11  and  N_13 
REMARK    6  A    between atoms: N_13  and  N_14 
REMARK    7  A    between atoms: N_14  and  C_15 
ROOT
ATOM      1  C   UNL d   1      25.536 -17.044  -1.561  0.00  0.00     0.280 C 
ENDROOT
BRANCH   1   2
ATOM      2  O   UNL d   1      24.659 -16.107  -2.201  0.00  0.00    -0.342 OA
BRANCH   2   3
ATOM      3  C   UNL d   1      25.204 -15.216  -3.091  0.00  0.00     0.069 A 
ATOM      4  C   UNL d   1      24.743 -13.893  -3.017  0.00  0.00     0.037 A 
ATOM      5  C   UNL d   1      25.203 -12.909  -3.912  0.00  0.00     0.010 A 
ATOM      6  C   UNL d   1      26.202 -13.223  -4.839  0.00  0.00    -0.049 A 
ATOM      7  C   UNL d   1      26.628 -14.555  -4.928  0.00  0.00     0.010 A 
ATOM      8  C   UNL d   1      26.159 -15.533  -4.048  0.00  0.00     0.037 A 
BRANCH   6   9
ATOM      9  C   UNL d   1      26.885 -12.164  -5.686  0.00  0.00     0.141 C 
BRANCH   9  10
ATOM     10  C   UNL d   1      25.945 -11.019  -6.079  0.00  0.00     0.219 C 
ATOM     11  N   UNL d   1      26.149  -9.821  -5.470  0.00  0.00    -0.370 N 
ATOM     12  H   UNL d   1      25.521  -9.076  -5.744  0.00  0.00     0.159 HD
ATOM     13  H   UNL d   1      26.912  -9.617  -4.842  0.00  0.00     0.159 HD
ATOM     14  O   UNL d   1      25.012 -11.101  -6.883  0.00  0.00    -0.273 OA
ENDBRANCH   9  10
ENDBRANCH   6   9
ENDBRANCH   2   3
ENDBRANCH   1   2
BRANCH   1  15
ATOM     15  C   UNL d   1      24.770 -17.942  -0.561  0.00  0.00     0.260 C 
ATOM     16  O   UNL d   1      25.336 -18.674   0.255  0.00  0.00    -0.269 OA
ATOM     17  N   UNL d   1      23.369 -17.881  -0.647  0.00  0.00    -0.268 N 
ATOM     18  H   UNL d   1      22.915 -17.099  -1.109  0.00  0.00     0.190 HD
BRANCH  17  19
ATOM     19  N   UNL d   1      22.679 -18.359   0.495  0.00  0.00    -0.298 N 
ATOM     20  H   UNL d   1      23.293 -18.861   1.151  0.00  0.00     0.187 HD
BRANCH  19  21
ATOM     21  C   UNL d   1      21.405 -18.950   0.338  0.00  0.00     0.048 A 
ATOM     22  C   UNL d   1      20.923 -19.107  -0.978  0.00  0.00     0.034 A 
ATOM     23  C   UNL d   1      19.681 -19.700  -1.241  0.00  0.00     0.044 A 
ATOM     24  C   UNL d   1      18.925 -20.187  -0.188  0.00  0.00     0.116 A 
ATOM     25  F   UNL d   1      17.768 -20.815  -0.437  0.00  0.00    -0.206 F 
ATOM     26  C   UNL d   1      19.366 -20.040   1.122  0.00  0.00     0.044 A 
ATOM     27  C   UNL d   1      20.598 -19.416   1.385  0.00  0.00     0.034 A 
ENDBRANCH  19  21
ENDBRANCH  17  19
ENDBRANCH   1  15
TORSDOF 7
ENDMDL
