MODEL 1
REMARK VINA RESULT:    -9.477      0.000      0.000
REMARK INTER + INTRA:         -13.827
REMARK INTER:                 -12.460
REMARK INTRA:                  -1.367
REMARK CONF_INDEPENDENT:        2.983
REMARK UNBOUND:                -1.367
REMARK  10 active torsions:
REMARK  status: ('A' for Active; 'I' for Inactive)
REMARK    1  A    between atoms: C_2  and  C_3 
REMARK    2  A    between atoms: C_3  and  C_4 
REMARK    3  A    between atoms: C_4  and  S_5 
REMARK    4  A    between atoms: S_5  and  C_6 
REMARK    5  A    between atoms: C_9  and  C_10 
REMARK       I    between atoms: C_10  and  N_12 
REMARK    6  A    between atoms: N_12  and  C_13 
REMARK    7  A    between atoms: C_14  and  C_13 
REMARK    8  A    between atoms: C_14  and  N_23 
REMARK    9  A    between atoms: C_14  and  C_15 
REMARK   10  A    between atoms: C_18  and  O_19 
ROOT
ATOM      1  C   UNL d   1      30.320 -15.232   0.719  0.00  0.00     0.161 C 
ENDROOT
BRANCH   1   2
ATOM      2  N   UNL d   1      29.034 -15.949   0.606  0.00  0.00    -0.354 N 
ATOM      3  C   UNL d   1      27.876 -15.441   0.067  0.00  0.00     0.256 C 
ATOM      4  O   UNL d   1      27.787 -14.254  -0.244  0.00  0.00    -0.268 OA
ATOM      5  H   UNL d   1      28.992 -16.918   0.870  0.00  0.00     0.162 HD
BRANCH   3   6
ATOM      6  C   UNL d   1      26.717 -16.372  -0.137  0.00  0.00     0.090 A 
ATOM      7  C   UNL d   1      26.654 -17.538   0.595  0.00  0.00     0.139 A 
ATOM      8  N   UNL d   1      25.674 -18.478   0.472  0.00  0.00    -0.234 NA
ATOM      9  C   UNL d   1      24.688 -18.232  -0.401  0.00  0.00     0.189 A 
ATOM     10  N   UNL d   1      24.637 -17.141  -1.150  0.00  0.00    -0.210 NA
ATOM     11  C   UNL d   1      25.655 -16.273  -1.017  0.00  0.00     0.146 A 
ATOM     12 CL   UNL d   1      25.493 -15.142  -2.285  0.00  0.00    -0.061 Cl
BRANCH   9  13
ATOM     13  S   UNL d   1      23.309 -19.325  -0.520  0.00  0.00    -0.090 SA
BRANCH  13  14
ATOM     14  C   UNL d   1      21.928 -18.135  -0.652  0.00  0.00     0.082 C 
BRANCH  14  15
ATOM     15  C   UNL d   1      20.642 -18.928  -0.903  0.00  0.00     0.010 C 
BRANCH  15  16
ATOM     16  C   UNL d   1      20.411 -20.009   0.153  0.00  0.00    -0.004 C 
ATOM     17  C   UNL d   1      18.924 -20.283   0.336  0.00  0.00     0.005 C 
ENDBRANCH  15  16
ENDBRANCH  14  15
ENDBRANCH  13  14
ENDBRANCH   9  13
ENDBRANCH   3   6
ENDBRANCH   1   2
BRANCH   1  18
ATOM     18  C   UNL d   1      30.417 -14.227   1.940  0.00  0.00     0.238 C 
BRANCH  18  19
ATOM     19  N   UNL d   1      29.418 -14.604   3.120  0.00  0.00    -0.061 N 
ATOM     20  C   UNL d   1      30.042 -14.629   4.509  0.00  0.00     0.236 C 
ATOM     21  C   UNL d   1      29.030 -14.811   5.612  0.00  0.00     0.028 C 
ATOM     22  C   UNL d   1      27.935 -13.767   5.482  0.00  0.00     0.003 C 
ATOM     23  C   UNL d   1      27.187 -14.038   4.188  0.00  0.00     0.028 C 
ATOM     24  C   UNL d   1      28.106 -13.784   3.008  0.00  0.00     0.236 C 
ATOM     25  H   UNL d   1      29.140 -15.575   2.926  0.00  0.00     0.280 HD
ENDBRANCH  18  19
BRANCH  18  26
ATOM     26  C   UNL d   1      31.829 -14.067   2.479  0.00  0.00    -0.026 A 
ATOM     27  C   UNL d   1      32.256 -12.792   2.863  0.00  0.00     0.012 A 
ATOM     28  C   UNL d   1      33.532 -12.450   3.219  0.00  0.00     0.037 A 
ATOM     29  C   UNL d   1      34.474 -13.435   3.217  0.00  0.00     0.068 A 
ATOM     30  C   UNL d   1      34.120 -14.727   2.799  0.00  0.00     0.037 A 
ATOM     31  C   UNL d   1      32.799 -15.055   2.441  0.00  0.00     0.012 A 
BRANCH  29  32
ATOM     32  O   UNL d   1      35.685 -12.987   3.634  0.00  0.00    -0.356 OA
ATOM     33  C   UNL d   1      35.923 -13.135   5.016  0.00  0.00     0.210 C 
ENDBRANCH  29  32
ENDBRANCH  18  26
ENDBRANCH   1  18
TORSDOF 10
ENDMDL
MODEL 2
REMARK VINA RESULT:    -9.172      4.220      9.903
REMARK INTER + INTRA:         -13.893
REMARK INTER:                 -12.155
REMARK INTRA:                  -1.738
REMARK CONF_INDEPENDENT:        2.983
REMARK UNBOUND:                -1.738
REMARK  10 active torsions:
REMARK  status: ('A' for Active; 'I' for Inactive)
REMARK    1  A    between atoms: C_2  and  C_3 
REMARK    2  A    between atoms: C_3  and  C_4 
REMARK    3  A    between atoms: C_4  and  S_5 
REMARK    4  A    between atoms: S_5  and  C_6 
REMARK    5  A    between atoms: C_9  and  C_10 
REMARK       I    between atoms: C_10  and  N_12 
REMARK    6  A    between atoms: N_12  and  C_13 
REMARK    7  A    between atoms: C_14  and  C_13 
REMARK    8  A    between atoms: C_14  and  N_23 
REMARK    9  A    between atoms: C_14  and  C_15 
REMARK   10  A    between atoms: C_18  and  O_19 
ROOT
ATOM      1  C   UNL d   1      26.944 -16.497   0.394  0.00  0.00     0.161 C 
ENDROOT
BRANCH   1   2
ATOM      2  N   UNL d   1      27.431 -15.702   1.539  0.00  0.00    -0.354 N 
ATOM      3  C   UNL d   1      27.366 -14.333   1.652  0.00  0.00     0.256 C 
ATOM      4  O   UNL d   1      27.009 -13.634   0.703  0.00  0.00    -0.268 OA
ATOM      5  H   UNL d   1      27.778 -16.180   2.352  0.00  0.00     0.162 HD
BRANCH   3   6
ATOM      6  C   UNL d   1      27.738 -13.707   2.964  0.00  0.00     0.090 A 
ATOM      7  C   UNL d   1      28.139 -14.516   4.005  0.00  0.00     0.139 A 
ATOM      8  N   UNL d   1      28.465 -14.070   5.251  0.00  0.00    -0.234 NA
ATOM      9  C   UNL d   1      28.422 -12.749   5.465  0.00  0.00     0.189 A 
ATOM     10  N   UNL d   1      28.063 -11.874   4.538  0.00  0.00    -0.210 NA
ATOM     11  C   UNL d   1      27.709 -12.378   3.343  0.00  0.00     0.146 A 
ATOM     12 CL   UNL d   1      27.020 -11.088   2.461  0.00  0.00    -0.061 Cl
BRANCH   9  13
ATOM     13  S   UNL d   1      28.963 -12.076   7.003  0.00  0.00    -0.090 SA
BRANCH  13  14
ATOM     14  C   UNL d   1      29.794 -13.524   7.746  0.00  0.00     0.082 C 
BRANCH  14  15
ATOM     15  C   UNL d   1      28.905 -14.050   8.878  0.00  0.00     0.010 C 
BRANCH  15  16
ATOM     16  C   UNL d   1      28.208 -12.923   9.640  0.00  0.00    -0.004 C 
ATOM     17  C   UNL d   1      27.939 -13.328  11.084  0.00  0.00     0.005 C 
ENDBRANCH  15  16
ENDBRANCH  14  15
ENDBRANCH  13  14
ENDBRANCH   9  13
ENDBRANCH   3   6
ENDBRANCH   1   2
BRANCH   1  18
ATOM     18  C   UNL d   1      25.682 -15.893  -0.348  0.00  0.00     0.238 C 
BRANCH  18  19
ATOM     19  N   UNL d   1      26.071 -15.138  -1.694  0.00  0.00    -0.061 N 
ATOM     20  C   UNL d   1      27.104 -15.850  -2.557  0.00  0.00     0.236 C 
ATOM     21  C   UNL d   1      27.308 -15.196  -3.900  0.00  0.00     0.028 C 
ATOM     22  C   UNL d   1      25.972 -15.035  -4.602  0.00  0.00     0.003 C 
ATOM     23  C   UNL d   1      25.138 -14.058  -3.791  0.00  0.00     0.028 C 
ATOM     24  C   UNL d   1      24.797 -14.675  -2.447  0.00  0.00     0.236 C 
ATOM     25  H   UNL d   1      26.525 -14.268  -1.383  0.00  0.00     0.280 HD
ENDBRANCH  18  19
BRANCH  18  26
ATOM     26  C   UNL d   1      24.593 -16.918  -0.617  0.00  0.00    -0.026 A 
ATOM     27  C   UNL d   1      23.272 -16.474  -0.728  0.00  0.00     0.012 A 
ATOM     28  C   UNL d   1      22.164 -17.272  -0.814  0.00  0.00     0.037 A 
ATOM     29  C   UNL d   1      22.357 -18.622  -0.808  0.00  0.00     0.068 A 
ATOM     30  C   UNL d   1      23.655 -19.133  -0.654  0.00  0.00     0.037 A 
ATOM     31  C   UNL d   1      24.778 -18.290  -0.572  0.00  0.00     0.012 A 
BRANCH  29  32
ATOM     32  O   UNL d   1      21.194 -19.307  -0.948  0.00  0.00    -0.356 OA
ATOM     33  C   UNL d   1      20.507 -19.555   0.259  0.00  0.00     0.210 C 
ENDBRANCH  29  32
ENDBRANCH  18  26
ENDBRANCH   1  18
TORSDOF 10
ENDMDL
MODEL 3
REMARK VINA RESULT:    -9.171      2.896      4.443
REMARK INTER + INTRA:         -13.869
REMARK INTER:                 -12.154
REMARK INTRA:                  -1.715
REMARK CONF_INDEPENDENT:        2.983
REMARK UNBOUND:                -1.715
REMARK  10 active torsions:
REMARK  status: ('A' for Active; 'I' for Inactive)
REMARK    1  A    between atoms: C_2  and  C_3 
REMARK    2  A    between atoms: C_3  and  C_4 
REMARK    3  A    between atoms: C_4  and  S_5 
REMARK    4  A    between atoms: S_5  and  C_6 
REMARK    5  A    between atoms: C_9  and  C_10 
REMARK       I    between atoms: C_10  and  N_12 
REMARK    6  A    between atoms: N_12  and  C_13 
REMARK    7  A    between atoms: C_14  and  C_13 
REMARK    8  A    between atoms: C_14  and  N_23 
REMARK    9  A    between atoms: C_14  and  C_15 
REMARK   10  A    between atoms: C_18  and  O_19 
ROOT
ATOM      1  C   UNL d   1      27.892 -13.804  -0.454  0.00  0.00     0.161 C 
ENDROOT
BRANCH   1   2
ATOM      2  N   UNL d   1      26.731 -14.705  -0.311  0.00  0.00    -0.354 N 
ATOM      3  C   UNL d   1      26.266 -15.575  -1.268  0.00  0.00     0.256 C 
ATOM      4  O   UNL d   1      26.720 -15.562  -2.412  0.00  0.00    -0.268 OA
ATOM      5  H   UNL d   1      26.266 -14.762   0.579  0.00  0.00     0.162 HD
BRANCH   3   6
ATOM      6  C   UNL d   1      25.190 -16.548  -0.885  0.00  0.00     0.090 A 
ATOM      7  C   UNL d   1      23.884 -16.276  -1.228  0.00  0.00     0.139 A 
ATOM      8  N   UNL d   1      22.818 -17.062  -0.905  0.00  0.00    -0.234 NA
ATOM      9  C   UNL d   1      23.066 -18.194  -0.233  0.00  0.00     0.189 A 
ATOM     10  N   UNL d   1      24.281 -18.565   0.140  0.00  0.00    -0.210 NA
ATOM     11  C   UNL d   1      25.286 -17.727  -0.168  0.00  0.00     0.146 A 
ATOM     12 CL   UNL d   1      26.659 -18.290   0.675  0.00  0.00    -0.061 Cl
BRANCH   9  13
ATOM     13  S   UNL d   1      21.765 -19.337   0.101  0.00  0.00    -0.090 SA
BRANCH  13  14
ATOM     14  C   UNL d   1      20.603 -18.952  -1.257  0.00  0.00     0.082 C 
BRANCH  14  15
ATOM     15  C   UNL d   1      19.241 -19.555  -0.898  0.00  0.00     0.010 C 
BRANCH  15  16
ATOM     16  C   UNL d   1      19.301 -20.419   0.361  0.00  0.00    -0.004 C 
ATOM     17  C   UNL d   1      18.009 -21.204   0.546  0.00  0.00     0.005 C 
ENDBRANCH  15  16
ENDBRANCH  14  15
ENDBRANCH  13  14
ENDBRANCH   9  13
ENDBRANCH   3   6
ENDBRANCH   1   2
BRANCH   1  18
ATOM     18  C   UNL d   1      29.255 -14.379   0.112  0.00  0.00     0.238 C 
BRANCH  18  19
ATOM     19  N   UNL d   1      29.184 -14.688   1.672  0.00  0.00    -0.061 N 
ATOM     20  C   UNL d   1      30.435 -14.319   2.459  0.00  0.00     0.236 C 
ATOM     21  C   UNL d   1      30.260 -14.458   3.951  0.00  0.00     0.028 C 
ATOM     22  C   UNL d   1      29.036 -13.679   4.399  0.00  0.00     0.003 C 
ATOM     23  C   UNL d   1      27.816 -14.337   3.779  0.00  0.00     0.028 C 
ATOM     24  C   UNL d   1      27.855 -14.161   2.272  0.00  0.00     0.236 C 
ATOM     25  H   UNL d   1      29.115 -15.712   1.732  0.00  0.00     0.280 HD
ENDBRANCH  18  19
BRANCH  18  26
ATOM     26  C   UNL d   1      29.755 -15.600  -0.642  0.00  0.00    -0.026 A 
ATOM     27  C   UNL d   1      30.084 -15.461  -1.993  0.00  0.00     0.012 A 
ATOM     28  C   UNL d   1      30.398 -16.481  -2.850  0.00  0.00     0.037 A 
ATOM     29  C   UNL d   1      30.409 -17.748  -2.346  0.00  0.00     0.068 A 
ATOM     30  C   UNL d   1      30.045 -17.960  -1.007  0.00  0.00     0.037 A 
ATOM     31  C   UNL d   1      29.730 -16.893  -0.146  0.00  0.00     0.012 A 
BRANCH  29  32
ATOM     32  O   UNL d   1      30.782 -18.665  -3.273  0.00  0.00    -0.356 OA
ATOM     33  C   UNL d   1      30.448 -18.329  -4.601  0.00  0.00     0.210 C 
ENDBRANCH  29  32
ENDBRANCH  18  26
ENDBRANCH   1  18
TORSDOF 10
ENDMDL
MODEL 4
REMARK VINA RESULT:    -9.116      2.090      3.974
REMARK INTER + INTRA:         -14.067
REMARK INTER:                 -12.099
REMARK INTRA:                  -1.968
REMARK CONF_INDEPENDENT:        2.983
REMARK UNBOUND:                -1.968
REMARK  10 active torsions:
REMARK  status: ('A' for Active; 'I' for Inactive)
REMARK    1  A    between atoms: C_2  and  C_3 
REMARK    2  A    between atoms: C_3  and  C_4 
REMARK    3  A    between atoms: C_4  and  S_5 
REMARK    4  A    between atoms: S_5  and  C_6 
REMARK    5  A    between atoms: C_9  and  C_10 
REMARK       I    between atoms: C_10  and  N_12 
REMARK    6  A    between atoms: N_12  and  C_13 
REMARK    7  A    between atoms: C_14  and  C_13 
REMARK    8  A    between atoms: C_14  and  N_23 
REMARK    9  A    between atoms: C_14  and  C_15 
REMARK   10  A    between atoms: C_18  and  O_19 
ROOT
ATOM      1  C   UNL d   1      27.742 -13.619   1.835  0.00  0.00     0.161 C 
ENDROOT
BRANCH   1   2
ATOM      2  N   UNL d   1      26.827 -14.477   1.057  0.00  0.00    -0.354 N 
ATOM      3  C   UNL d   1      27.130 -15.714   0.540  0.00  0.00     0.256 C 
ATOM      4  O   UNL d   1      28.281 -16.151   0.571  0.00  0.00    -0.268 OA
ATOM      5  H   UNL d   1      25.870 -14.191   0.943  0.00  0.00     0.162 HD
BRANCH   3   6
ATOM      6  C   UNL d   1      26.022 -16.527  -0.063  0.00  0.00     0.090 A 
ATOM      7  C   UNL d   1      25.690 -17.737   0.506  0.00  0.00     0.139 A 
ATOM      8  N   UNL d   1      24.730 -18.580   0.030  0.00  0.00    -0.234 NA
ATOM      9  C   UNL d   1      24.042 -18.185  -1.049  0.00  0.00     0.189 A 
ATOM     10  N   UNL d   1      24.264 -17.038  -1.673  0.00  0.00    -0.210 NA
ATOM     11  C   UNL d   1      25.254 -16.271  -1.184  0.00  0.00     0.146 A 
ATOM     12 CL   UNL d   1      25.516 -15.034  -2.330  0.00  0.00    -0.061 Cl
BRANCH   9  13
ATOM     13  S   UNL d   1      22.690 -19.147  -1.647  0.00  0.00    -0.090 SA
BRANCH  13  14
ATOM     14  C   UNL d   1      21.382 -18.693  -0.453  0.00  0.00     0.082 C 
BRANCH  14  15
ATOM     15  C   UNL d   1      20.068 -19.319  -0.931  0.00  0.00     0.010 C 
BRANCH  15  16
ATOM     16  C   UNL d   1      19.266 -19.931   0.217  0.00  0.00    -0.004 C 
ATOM     17  C   UNL d   1      19.961 -19.700   1.552  0.00  0.00     0.005 C 
ENDBRANCH  15  16
ENDBRANCH  14  15
ENDBRANCH  13  14
ENDBRANCH   9  13
ENDBRANCH   3   6
ENDBRANCH   1   2
BRANCH   1  18
ATOM     18  C   UNL d   1      28.649 -14.389   2.881  0.00  0.00     0.238 C 
BRANCH  18  19
ATOM     19  N   UNL d   1      30.064 -14.794   2.278  0.00  0.00    -0.061 N 
ATOM     20  C   UNL d   1      30.470 -14.038   1.020  0.00  0.00     0.236 C 
ATOM     21  C   UNL d   1      31.887 -14.320   0.588  0.00  0.00     0.028 C 
ATOM     22  C   UNL d   1      32.836 -14.078   1.748  0.00  0.00     0.003 C 
ATOM     23  C   UNL d   1      32.523 -15.102   2.825  0.00  0.00     0.028 C 
ATOM     24  C   UNL d   1      31.141 -14.834   3.394  0.00  0.00     0.236 C 
ATOM     25  H   UNL d   1      29.951 -15.774   1.985  0.00  0.00     0.280 HD
ENDBRANCH  18  19
BRANCH  18  26
ATOM     26  C   UNL d   1      28.831 -13.636   4.189  0.00  0.00    -0.026 A 
ATOM     27  C   UNL d   1      28.755 -14.353   5.387  0.00  0.00     0.012 A 
ATOM     28  C   UNL d   1      28.742 -13.811   6.643  0.00  0.00     0.037 A 
ATOM     29  C   UNL d   1      28.827 -12.454   6.747  0.00  0.00     0.068 A 
ATOM     30  C   UNL d   1      28.863 -11.675   5.581  0.00  0.00     0.037 A 
ATOM     31  C   UNL d   1      28.879 -12.256   4.300  0.00  0.00     0.012 A 
BRANCH  29  32
ATOM     32  O   UNL d   1      28.856 -12.040   8.039  0.00  0.00    -0.356 OA
ATOM     33  C   UNL d   1      28.526 -13.034   8.984  0.00  0.00     0.210 C 
ENDBRANCH  29  32
ENDBRANCH  18  26
ENDBRANCH   1  18
TORSDOF 10
ENDMDL
MODEL 5
REMARK VINA RESULT:    -9.103      3.640      5.821
REMARK INTER + INTRA:         -14.020
REMARK INTER:                 -12.086
REMARK INTRA:                  -1.934
REMARK CONF_INDEPENDENT:        2.983
REMARK UNBOUND:                -1.934
REMARK  10 active torsions:
REMARK  status: ('A' for Active; 'I' for Inactive)
REMARK    1  A    between atoms: C_2  and  C_3 
REMARK    2  A    between atoms: C_3  and  C_4 
REMARK    3  A    between atoms: C_4  and  S_5 
REMARK    4  A    between atoms: S_5  and  C_6 
REMARK    5  A    between atoms: C_9  and  C_10 
REMARK       I    between atoms: C_10  and  N_12 
REMARK    6  A    between atoms: N_12  and  C_13 
REMARK    7  A    between atoms: C_14  and  C_13 
REMARK    8  A    between atoms: C_14  and  N_23 
REMARK    9  A    between atoms: C_14  and  C_15 
REMARK   10  A    between atoms: C_18  and  O_19 
ROOT
ATOM      1  C   UNL d   1      28.285 -15.106   0.686  0.00  0.00     0.161 C 
ENDROOT
BRANCH   1   2
ATOM      2  N   UNL d   1      27.020 -15.658   0.164  0.00  0.00    -0.354 N 
ATOM      3  C   UNL d   1      26.657 -16.984   0.175  0.00  0.00     0.256 C 
ATOM      4  O   UNL d   1      27.457 -17.859   0.509  0.00  0.00    -0.268 OA
ATOM      5  H   UNL d   1      26.312 -15.026  -0.167  0.00  0.00     0.162 HD
BRANCH   3   6
ATOM      6  C   UNL d   1      25.257 -17.344  -0.227  0.00  0.00     0.090 A 
ATOM      7  C   UNL d   1      24.712 -18.527   0.222  0.00  0.00     0.139 A 
ATOM      8  N   UNL d   1      23.468 -18.979  -0.103  0.00  0.00    -0.234 NA
ATOM      9  C   UNL d   1      22.714 -18.201  -0.890  0.00  0.00     0.189 A 
ATOM     10  N   UNL d   1      23.127 -17.039  -1.373  0.00  0.00    -0.210 NA
ATOM     11  C   UNL d   1      24.379 -16.668  -1.054  0.00  0.00     0.146 A 
ATOM     12 CL   UNL d   1      24.745 -15.317  -2.031  0.00  0.00    -0.061 Cl
BRANCH   9  13
ATOM     13  S   UNL d   1      21.043 -18.642  -1.245  0.00  0.00    -0.090 SA
BRANCH  13  14
ATOM     14  C   UNL d   1      20.661 -19.733   0.171  0.00  0.00     0.082 C 
BRANCH  14  15
ATOM     15  C   UNL d   1      19.327 -20.430  -0.116  0.00  0.00     0.010 C 
BRANCH  15  16
ATOM     16  C   UNL d   1      18.751 -21.115   1.123  0.00  0.00    -0.004 C 
ATOM     17  C   UNL d   1      18.401 -20.094   2.197  0.00  0.00     0.005 C 
ENDBRANCH  15  16
ENDBRANCH  14  15
ENDBRANCH  13  14
ENDBRANCH   9  13
ENDBRANCH   3   6
ENDBRANCH   1   2
BRANCH   1  18
ATOM     18  C   UNL d   1      29.560 -15.400  -0.207  0.00  0.00     0.238 C 
BRANCH  18  19
ATOM     19  N   UNL d   1      30.164 -16.849   0.052  0.00  0.00    -0.061 N 
ATOM     20  C   UNL d   1      30.036 -17.819  -1.116  0.00  0.00     0.236 C 
ATOM     21  C   UNL d   1      30.777 -19.113  -0.897  0.00  0.00     0.028 C 
ATOM     22  C   UNL d   1      32.223 -18.823  -0.533  0.00  0.00     0.003 C 
ATOM     23  C   UNL d   1      32.229 -18.113   0.810  0.00  0.00     0.028 C 
ATOM     24  C   UNL d   1      31.585 -16.747   0.664  0.00  0.00     0.236 C 
ATOM     25  H   UNL d   1      29.581 -17.244   0.801  0.00  0.00     0.280 HD
ENDBRANCH  18  19
BRANCH  18  26
ATOM     26  C   UNL d   1      29.317 -15.190  -1.693  0.00  0.00    -0.026 A 
ATOM     27  C   UNL d   1      28.079 -15.561  -2.224  0.00  0.00     0.012 A 
ATOM     28  C   UNL d   1      27.753 -15.584  -3.553  0.00  0.00     0.037 A 
ATOM     29  C   UNL d   1      28.710 -15.197  -4.445  0.00  0.00     0.068 A 
ATOM     30  C   UNL d   1      29.989 -14.856  -3.978  0.00  0.00     0.037 A 
ATOM     31  C   UNL d   1      30.297 -14.836  -2.606  0.00  0.00     0.012 A 
BRANCH  29  32
ATOM     32  O   UNL d   1      28.256 -15.214  -5.723  0.00  0.00    -0.356 OA
ATOM     33  C   UNL d   1      28.455 -14.012  -6.434  0.00  0.00     0.210 C 
ENDBRANCH  29  32
ENDBRANCH  18  26
ENDBRANCH   1  18
TORSDOF 10
ENDMDL
MODEL 6
REMARK VINA RESULT:    -9.064      4.458      6.613
REMARK INTER + INTRA:         -13.253
REMARK INTER:                 -12.047
REMARK INTRA:                  -1.205
REMARK CONF_INDEPENDENT:        2.983
REMARK UNBOUND:                -1.205
REMARK  10 active torsions:
REMARK  status: ('A' for Active; 'I' for Inactive)
REMARK    1  A    between atoms: C_2  and  C_3 
REMARK    2  A    between atoms: C_3  and  C_4 
REMARK    3  A    between atoms: C_4  and  S_5 
REMARK    4  A    between atoms: S_5  and  C_6 
REMARK    5  A    between atoms: C_9  and  C_10 
REMARK       I    between atoms: C_10  and  N_12 
REMARK    6  A    between atoms: N_12  and  C_13 
REMARK    7  A    between atoms: C_14  and  C_13 
REMARK    8  A    between atoms: C_14  and  N_23 
REMARK    9  A    between atoms: C_14  and  C_15 
REMARK   10  A    between atoms: C_18  and  O_19 
ROOT
ATOM      1  C   UNL d   1      30.963 -16.850  -0.677  0.00  0.00     0.161 C 
ENDROOT
BRANCH   1   2
ATOM      2  N   UNL d   1      29.521 -17.016  -0.410  0.00  0.00    -0.354 N 
ATOM      3  C   UNL d   1      28.499 -16.505  -1.174  0.00  0.00     0.256 C 
ATOM      4  O   UNL d   1      28.725 -15.722  -2.097  0.00  0.00    -0.268 OA
ATOM      5  H   UNL d   1      29.230 -17.611   0.347  0.00  0.00     0.162 HD
BRANCH   3   6
ATOM      6  C   UNL d   1      27.093 -16.929  -0.861  0.00  0.00     0.090 A 
ATOM      7  C   UNL d   1      26.879 -17.875   0.118  0.00  0.00     0.139 A 
ATOM      8  N   UNL d   1      25.656 -18.366   0.466  0.00  0.00    -0.234 NA
ATOM      9  C   UNL d   1      24.587 -17.869  -0.170  0.00  0.00     0.189 A 
ATOM     10  N   UNL d   1      24.669 -16.949  -1.119  0.00  0.00    -0.210 NA
ATOM     11  C   UNL d   1      25.906 -16.537  -1.450  0.00  0.00     0.146 A 
ATOM     12 CL   UNL d   1      25.739 -15.604  -2.870  0.00  0.00    -0.061 Cl
BRANCH   9  13
ATOM     13  S   UNL d   1      22.959 -18.344   0.316  0.00  0.00    -0.090 SA
BRANCH  13  14
ATOM     14  C   UNL d   1      22.283 -18.950  -1.270  0.00  0.00     0.082 C 
BRANCH  14  15
ATOM     15  C   UNL d   1      20.755 -18.871  -1.194  0.00  0.00     0.010 C 
BRANCH  15  16
ATOM     16  C   UNL d   1      20.213 -19.379   0.142  0.00  0.00    -0.004 C 
ATOM     17  C   UNL d   1      18.954 -20.212  -0.063  0.00  0.00     0.005 C 
ENDBRANCH  15  16
ENDBRANCH  14  15
ENDBRANCH  13  14
ENDBRANCH   9  13
ENDBRANCH   3   6
ENDBRANCH   1   2
BRANCH   1  18
ATOM     18  C   UNL d   1      31.722 -18.179  -1.088  0.00  0.00     0.238 C 
BRANCH  18  19
ATOM     19  N   UNL d   1      31.486 -19.361  -0.049  0.00  0.00    -0.061 N 
ATOM     20  C   UNL d   1      30.878 -20.626  -0.639  0.00  0.00     0.236 C 
ATOM     21  C   UNL d   1      30.840 -21.777   0.335  0.00  0.00     0.028 C 
ATOM     22  C   UNL d   1      32.225 -22.008   0.912  0.00  0.00     0.003 C 
ATOM     23  C   UNL d   1      32.594 -20.786   1.734  0.00  0.00     0.028 C 
ATOM     24  C   UNL d   1      32.752 -19.587   0.818  0.00  0.00     0.236 C 
ATOM     25  H   UNL d   1      30.780 -18.996   0.605  0.00  0.00     0.280 HD
ENDBRANCH  18  19
BRANCH  18  26
ATOM     26  C   UNL d   1      31.399 -18.647  -2.497  0.00  0.00    -0.026 A 
ATOM     27  C   UNL d   1      32.229 -19.602  -3.089  0.00  0.00     0.012 A 
ATOM     28  C   UNL d   1      32.172 -20.014  -4.393  0.00  0.00     0.037 A 
ATOM     29  C   UNL d   1      31.214 -19.460  -5.189  0.00  0.00     0.068 A 
ATOM     30  C   UNL d   1      30.376 -18.462  -4.666  0.00  0.00     0.037 A 
ATOM     31  C   UNL d   1      30.452 -18.060  -3.320  0.00  0.00     0.012 A 
BRANCH  29  32
ATOM     32  O   UNL d   1      31.223 -19.981  -6.442  0.00  0.00    -0.356 OA
ATOM     33  C   UNL d   1      31.090 -19.031  -7.475  0.00  0.00     0.210 C 
ENDBRANCH  29  32
ENDBRANCH  18  26
ENDBRANCH   1  18
TORSDOF 10
ENDMDL
MODEL 7
REMARK VINA RESULT:    -8.418      4.383      9.928
REMARK INTER + INTRA:         -13.175
REMARK INTER:                 -11.401
REMARK INTRA:                  -1.774
REMARK CONF_INDEPENDENT:        2.983
REMARK UNBOUND:                -1.774
REMARK  10 active torsions:
REMARK  status: ('A' for Active; 'I' for Inactive)
REMARK    1  A    between atoms: C_2  and  C_3 
REMARK    2  A    between atoms: C_3  and  C_4 
REMARK    3  A    between atoms: C_4  and  S_5 
REMARK    4  A    between atoms: S_5  and  C_6 
REMARK    5  A    between atoms: C_9  and  C_10 
REMARK       I    between atoms: C_10  and  N_12 
REMARK    6  A    between atoms: N_12  and  C_13 
REMARK    7  A    between atoms: C_14  and  C_13 
REMARK    8  A    between atoms: C_14  and  N_23 
REMARK    9  A    between atoms: C_14  and  C_15 
REMARK   10  A    between atoms: C_18  and  O_19 
ROOT
ATOM      1  C   UNL d   1      27.047 -16.306   0.627  0.00  0.00     0.161 C 
ENDROOT
BRANCH   1   2
ATOM      2  N   UNL d   1      27.614 -15.348   1.596  0.00  0.00    -0.354 N 
ATOM      3  C   UNL d   1      27.346 -14.000   1.644  0.00  0.00     0.256 C 
ATOM      4  O   UNL d   1      26.695 -13.450   0.755  0.00  0.00    -0.268 OA
ATOM      5  H   UNL d   1      28.190 -15.694   2.344  0.00  0.00     0.162 HD
BRANCH   3   6
ATOM      6  C   UNL d   1      27.863 -13.211   2.811  0.00  0.00     0.090 A 
ATOM      7  C   UNL d   1      28.260 -11.906   2.616  0.00  0.00     0.139 A 
ATOM      8  N   UNL d   1      28.780 -11.102   3.586  0.00  0.00    -0.234 NA
ATOM      9  C   UNL d   1      28.881 -11.610   4.821  0.00  0.00     0.189 A 
ATOM     10  N   UNL d   1      28.521 -12.847   5.129  0.00  0.00    -0.210 NA
ATOM     11  C   UNL d   1      28.059 -13.606   4.121  0.00  0.00     0.146 A 
ATOM     12 CL   UNL d   1      27.960 -15.200   4.724  0.00  0.00    -0.061 Cl
BRANCH   9  13
ATOM     13  S   UNL d   1      29.409 -10.595   6.163  0.00  0.00    -0.090 SA
BRANCH  13  14
ATOM     14  C   UNL d   1      28.473 -11.331   7.550  0.00  0.00     0.082 C 
BRANCH  14  15
ATOM     15  C   UNL d   1      29.205 -12.603   7.992  0.00  0.00     0.010 C 
BRANCH  15  16
ATOM     16  C   UNL d   1      29.062 -12.863   9.492  0.00  0.00    -0.004 C 
ATOM     17  C   UNL d   1      28.875 -14.348   9.771  0.00  0.00     0.005 C 
ENDBRANCH  15  16
ENDBRANCH  14  15
ENDBRANCH  13  14
ENDBRANCH   9  13
ENDBRANCH   3   6
ENDBRANCH   1   2
BRANCH   1  18
ATOM     18  C   UNL d   1      25.834 -15.751  -0.228  0.00  0.00     0.238 C 
BRANCH  18  19
ATOM     19  N   UNL d   1      26.307 -15.071  -1.586  0.00  0.00    -0.061 N 
ATOM     20  C   UNL d   1      27.469 -15.766  -2.284  0.00  0.00     0.236 C 
ATOM     21  C   UNL d   1      27.766 -15.201  -3.651  0.00  0.00     0.028 C 
ATOM     22  C   UNL d   1      26.500 -15.193  -4.489  0.00  0.00     0.003 C 
ATOM     23  C   UNL d   1      25.524 -14.223  -3.846  0.00  0.00     0.028 C 
ATOM     24  C   UNL d   1      25.089 -14.762  -2.495  0.00  0.00     0.236 C 
ATOM     25  H   UNL d   1      26.668 -14.150  -1.305  0.00  0.00     0.280 HD
ENDBRANCH  18  19
BRANCH  18  26
ATOM     26  C   UNL d   1      24.765 -16.795  -0.508  0.00  0.00    -0.026 A 
ATOM     27  C   UNL d   1      23.444 -16.369  -0.672  0.00  0.00     0.012 A 
ATOM     28  C   UNL d   1      22.349 -17.182  -0.774  0.00  0.00     0.037 A 
ATOM     29  C   UNL d   1      22.556 -18.529  -0.729  0.00  0.00     0.068 A 
ATOM     30  C   UNL d   1      23.854 -19.021  -0.522  0.00  0.00     0.037 A 
ATOM     31  C   UNL d   1      24.965 -18.163  -0.423  0.00  0.00     0.012 A 
BRANCH  29  32
ATOM     32  O   UNL d   1      21.405 -19.231  -0.891  0.00  0.00    -0.356 OA
ATOM     33  C   UNL d   1      20.679 -19.453   0.298  0.00  0.00     0.210 C 
ENDBRANCH  29  32
ENDBRANCH  18  26
ENDBRANCH   1  18
TORSDOF 10
ENDMDL
MODEL 8
REMARK VINA RESULT:    -8.116      5.797      7.272
REMARK INTER + INTRA:         -13.072
REMARK INTER:                 -11.099
REMARK INTRA:                  -1.973
REMARK CONF_INDEPENDENT:        2.983
REMARK UNBOUND:                -1.973
REMARK  10 active torsions:
REMARK  status: ('A' for Active; 'I' for Inactive)
REMARK    1  A    between atoms: C_2  and  C_3 
REMARK    2  A    between atoms: C_3  and  C_4 
REMARK    3  A    between atoms: C_4  and  S_5 
REMARK    4  A    between atoms: S_5  and  C_6 
REMARK    5  A    between atoms: C_9  and  C_10 
REMARK       I    between atoms: C_10  and  N_12 
REMARK    6  A    between atoms: N_12  and  C_13 
REMARK    7  A    between atoms: C_14  and  C_13 
REMARK    8  A    between atoms: C_14  and  N_23 
REMARK    9  A    between atoms: C_14  and  C_15 
REMARK   10  A    between atoms: C_18  and  O_19 
ROOT
ATOM      1  C   UNL d   1      28.006 -15.719  -2.638  0.00  0.00     0.161 C 
ENDROOT
BRANCH   1   2
ATOM      2  N   UNL d   1      26.903 -16.374  -1.909  0.00  0.00    -0.354 N 
ATOM      3  C   UNL d   1      25.676 -15.816  -1.639  0.00  0.00     0.256 C 
ATOM      4  O   UNL d   1      25.452 -14.629  -1.875  0.00  0.00    -0.268 OA
ATOM      5  H   UNL d   1      27.001 -17.337  -1.639  0.00  0.00     0.162 HD
BRANCH   3   6
ATOM      6  C   UNL d   1      24.608 -16.692  -1.051  0.00  0.00     0.090 A 
ATOM      7  C   UNL d   1      23.285 -16.359  -1.242  0.00  0.00     0.139 A 
ATOM      8  N   UNL d   1      22.229 -17.052  -0.729  0.00  0.00    -0.234 NA
ATOM      9  C   UNL d   1      22.502 -18.151  -0.014  0.00  0.00     0.189 A 
ATOM     10  N   UNL d   1      23.733 -18.575   0.226  0.00  0.00    -0.210 NA
ATOM     11  C   UNL d   1      24.733 -17.825  -0.268  0.00  0.00     0.146 A 
ATOM     12 CL   UNL d   1      26.172 -18.419   0.430  0.00  0.00    -0.061 Cl
BRANCH   9  13
ATOM     13  S   UNL d   1      21.195 -19.184   0.566  0.00  0.00    -0.090 SA
BRANCH  13  14
ATOM     14  C   UNL d   1      20.167 -19.328  -0.938  0.00  0.00     0.082 C 
BRANCH  14  15
ATOM     15  C   UNL d   1      18.787 -19.848  -0.520  0.00  0.00     0.010 C 
BRANCH  15  16
ATOM     16  C   UNL d   1      18.747 -20.273   0.947  0.00  0.00    -0.004 C 
ATOM     17  C   UNL d   1      18.056 -21.621   1.105  0.00  0.00     0.005 C 
ENDBRANCH  15  16
ENDBRANCH  14  15
ENDBRANCH  13  14
ENDBRANCH   9  13
ENDBRANCH   3   6
ENDBRANCH   1   2
BRANCH   1  18
ATOM     18  C   UNL d   1      27.609 -15.120  -4.050  0.00  0.00     0.238 C 
BRANCH  18  19
ATOM     19  N   UNL d   1      27.260 -13.569  -3.978  0.00  0.00    -0.061 N 
ATOM     20  C   UNL d   1      28.465 -12.638  -3.956  0.00  0.00     0.236 C 
ATOM     21  C   UNL d   1      28.092 -11.181  -4.070  0.00  0.00     0.028 C 
ATOM     22  C   UNL d   1      27.212 -10.970  -5.289  0.00  0.00     0.003 C 
ATOM     23  C   UNL d   1      25.907 -11.711  -5.053  0.00  0.00     0.028 C 
ATOM     24  C   UNL d   1      26.171 -13.205  -5.021  0.00  0.00     0.236 C 
ATOM     25  H   UNL d   1      26.802 -13.448  -3.064  0.00  0.00     0.280 HD
ENDBRANCH  18  19
BRANCH  18  26
ATOM     26  C   UNL d   1      28.650 -15.374  -5.128  0.00  0.00    -0.026 A 
ATOM     27  C   UNL d   1      29.680 -16.279  -4.859  0.00  0.00     0.012 A 
ATOM     28  C   UNL d   1      30.773 -16.504  -5.651  0.00  0.00     0.037 A 
ATOM     29  C   UNL d   1      30.866 -15.800  -6.815  0.00  0.00     0.068 A 
ATOM     30  C   UNL d   1      29.886 -14.843  -7.122  0.00  0.00     0.037 A 
ATOM     31  C   UNL d   1      28.770 -14.633  -6.293  0.00  0.00     0.012 A 
BRANCH  29  32
ATOM     32  O   UNL d   1      31.963 -16.144  -7.537  0.00  0.00    -0.356 OA
ATOM     33  C   UNL d   1      31.934 -17.452  -8.064  0.00  0.00     0.210 C 
ENDBRANCH  29  32
ENDBRANCH  18  26
ENDBRANCH   1  18
TORSDOF 10
ENDMDL
MODEL 9
REMARK VINA RESULT:    -8.095      2.579      3.607
REMARK INTER + INTRA:         -13.363
REMARK INTER:                 -11.078
REMARK INTRA:                  -2.285
REMARK CONF_INDEPENDENT:        2.983
REMARK UNBOUND:                -2.285
REMARK  10 active torsions:
REMARK  status: ('A' for Active; 'I' for Inactive)
REMARK    1  A    between atoms: C_2  and  C_3 
REMARK    2  A    between atoms: C_3  and  C_4 
REMARK    3  A    between atoms: C_4  and  S_5 
REMARK    4  A    between atoms: S_5  and  C_6 
REMARK    5  A    between atoms: C_9  and  C_10 
REMARK       I    between atoms: C_10  and  N_12 
REMARK    6  A    between atoms: N_12  and  C_13 
REMARK    7  A    between atoms: C_14  and  C_13 
REMARK    8  A    between atoms: C_14  and  N_23 
REMARK    9  A    between atoms: C_14  and  C_15 
REMARK   10  A    between atoms: C_18  and  O_19 
ROOT
ATOM      1  C   UNL d   1      29.796 -14.720   1.340  0.00  0.00     0.161 C 
ENDROOT
BRANCH   1   2
ATOM      2  N   UNL d   1      28.557 -15.483   1.094  0.00  0.00    -0.354 N 
ATOM      3  C   UNL d   1      27.623 -15.206   0.123  0.00  0.00     0.256 C 
ATOM      4  O   UNL d   1      27.689 -14.175  -0.546  0.00  0.00    -0.268 OA
ATOM      5  H   UNL d   1      28.391 -16.326   1.616  0.00  0.00     0.162 HD
BRANCH   3   6
ATOM      6  C   UNL d   1      26.518 -16.196  -0.106  0.00  0.00     0.090 A 
ATOM      7  C   UNL d   1      26.520 -17.381   0.597  0.00  0.00     0.139 A 
ATOM      8  N   UNL d   1      25.595 -18.371   0.450  0.00  0.00    -0.234 NA
ATOM      9  C   UNL d   1      24.598 -18.160  -0.419  0.00  0.00     0.189 A 
ATOM     10  N   UNL d   1      24.486 -17.056  -1.142  0.00  0.00    -0.210 NA
ATOM     11  C   UNL d   1      25.454 -16.136  -0.986  0.00  0.00     0.146 A 
ATOM     12 CL   UNL d   1      25.229 -14.985  -2.227  0.00  0.00    -0.061 Cl
BRANCH   9  13
ATOM     13  S   UNL d   1      23.283 -19.326  -0.568  0.00  0.00    -0.090 SA
BRANCH  13  14
ATOM     14  C   UNL d   1      21.827 -18.223  -0.500  0.00  0.00     0.082 C 
BRANCH  14  15
ATOM     15  C   UNL d   1      20.686 -18.897  -1.269  0.00  0.00     0.010 C 
BRANCH  15  16
ATOM     16  C   UNL d   1      19.738 -19.663  -0.348  0.00  0.00    -0.004 C 
ATOM     17  C   UNL d   1      20.171 -19.536   1.107  0.00  0.00     0.005 C 
ENDBRANCH  15  16
ENDBRANCH  14  15
ENDBRANCH  13  14
ENDBRANCH   9  13
ENDBRANCH   3   6
ENDBRANCH   1   2
BRANCH   1  18
ATOM     18  C   UNL d   1      29.613 -13.418   2.223  0.00  0.00     0.238 C 
BRANCH  18  19
ATOM     19  N   UNL d   1      28.566 -12.398   1.594  0.00  0.00    -0.061 N 
ATOM     20  C   UNL d   1      27.183 -12.419   2.231  0.00  0.00     0.236 C 
ATOM     21  C   UNL d   1      26.282 -11.318   1.730  0.00  0.00     0.028 C 
ATOM     22  C   UNL d   1      26.976  -9.976   1.883  0.00  0.00     0.003 C 
ATOM     23  C   UNL d   1      28.182  -9.971   0.960  0.00  0.00     0.028 C 
ATOM     24  C   UNL d   1      29.197 -10.989   1.447  0.00  0.00     0.236 C 
ATOM     25  H   UNL d   1      28.429 -12.728   0.629  0.00  0.00     0.280 HD
ENDBRANCH  18  19
BRANCH  18  26
ATOM     26  C   UNL d   1      29.251 -13.715   3.669  0.00  0.00    -0.026 A 
ATOM     27  C   UNL d   1      29.833 -12.939   4.675  0.00  0.00     0.012 A 
ATOM     28  C   UNL d   1      29.737 -13.170   6.020  0.00  0.00     0.037 A 
ATOM     29  C   UNL d   1      28.998 -14.242   6.426  0.00  0.00     0.068 A 
ATOM     30  C   UNL d   1      28.425 -15.088   5.463  0.00  0.00     0.037 A 
ATOM     31  C   UNL d   1      28.535 -14.825   4.086  0.00  0.00     0.012 A 
BRANCH  29  32
ATOM     32  O   UNL d   1      28.936 -14.340   7.778  0.00  0.00    -0.356 OA
ATOM     33  C   UNL d   1      28.895 -13.104   8.456  0.00  0.00     0.210 C 
ENDBRANCH  29  32
ENDBRANCH  18  26
ENDBRANCH   1  18
TORSDOF 10
ENDMDL
