MODEL 1
REMARK VINA RESULT:    -8.927      0.000      0.000
REMARK INTER + INTRA:         -12.501
REMARK INTER:                 -10.418
REMARK INTRA:                  -2.083
REMARK CONF_INDEPENDENT:        1.492
REMARK UNBOUND:                -2.083
REMARK  5 active torsions:
REMARK  status: ('A' for Active; 'I' for Inactive)
REMARK    1  A    between atoms: C_2  and  N_3 
REMARK    2  A    between atoms: C_2  and  C_20 
REMARK       I    between atoms: N_3  and  C_4 
REMARK    3  A    between atoms: C_4  and  C_6 
REMARK       I    between atoms: C_6  and  N_8 
REMARK    4  A    between atoms: N_8  and  C_9 
REMARK    5  A    between atoms: C_14  and  C_15 
ROOT
ATOM      1  N   UNL d   1      25.674 -16.506  -1.649  0.00  0.00    -0.342 N 
ATOM      2  C   UNL d   1      24.809 -15.619  -2.312  0.00  0.00     0.310 C 
ATOM      3  O   UNL d   1      23.646 -15.412  -2.020  0.00  0.00    -0.262 OA
ATOM      4  H   UNL d   1      26.579 -16.682  -2.085  0.00  0.00     0.163 HD
ENDROOT
BRANCH   2   5
ATOM      5  C   UNL d   1      25.457 -14.823  -3.491  0.00  0.00     0.314 C 
ATOM      6  O   UNL d   1      25.376 -15.309  -4.600  0.00  0.00    -0.262 OA
ATOM      7  N   UNL d   1      26.151 -13.646  -3.141  0.00  0.00    -0.318 N 
ATOM      8  H   UNL d   1      26.388 -13.517  -2.163  0.00  0.00     0.169 HD
BRANCH   7   9
ATOM      9  C   UNL d   1      26.573 -12.630  -4.066  0.00  0.00     0.046 A 
ATOM     10  C   UNL d   1      25.906 -11.390  -4.055  0.00  0.00     0.030 A 
ATOM     11  C   UNL d   1      26.180 -10.407  -5.024  0.00  0.00     0.002 A 
ATOM     12  C   UNL d   1      27.142 -10.633  -6.003  0.00  0.00     0.001 A 
ATOM     13  C   UNL d   1      27.818 -11.850  -6.026  0.00  0.00     0.015 A 
ATOM     14  C   UNL d   1      27.550 -12.852  -5.069  0.00  0.00     0.008 A 
BRANCH  14  15
ATOM     15  C   UNL d   1      28.200 -14.152  -5.230  0.00  0.00     0.017 A 
ATOM     16  C   UNL d   1      28.462 -15.089  -4.248  0.00  0.00     0.020 A 
ATOM     17  C   UNL d   1      29.344 -16.106  -4.700  0.00  0.00     0.008 A 
ATOM     18  C   UNL d   1      29.662 -15.955  -6.032  0.00  0.00     0.050 A 
ATOM     19  S   UNL d   1      28.876 -14.609  -6.738  0.00  0.00    -0.101 SA
ENDBRANCH  14  15
ENDBRANCH   7   9
ENDBRANCH   2   5
BRANCH   1  20
ATOM     20  C   UNL d   1      25.339 -17.248  -0.399  0.00  0.00     0.150 C 
ATOM     21  C   UNL d   1      26.475 -18.201  -0.079  0.00  0.00     0.040 C 
BRANCH  20  22
ATOM     22  C   UNL d   1      23.913 -17.857  -0.500  0.00  0.00     0.127 C 
ATOM     23  N   UNL d   1      23.365 -18.360   0.584  0.00  0.00    -0.231 NA
ATOM     24  C   UNL d   1      22.095 -18.704   0.262  0.00  0.00     0.085 C 
ATOM     25  C   UNL d   1      21.063 -18.950   1.163  0.00  0.00     0.034 C 
ATOM     26  C   UNL d   1      21.867 -18.738  -1.105  0.00  0.00     0.062 C 
ATOM     27  C   UNL d   1      19.831 -19.404   0.720  0.00  0.00     0.002 C 
ATOM     28  C   UNL d   1      19.645 -19.651  -0.636  0.00  0.00     0.002 C 
ATOM     29  C   UNL d   1      20.656 -19.330  -1.594  0.00  0.00     0.032 C 
ATOM     30  N   UNL d   1      22.984 -17.997  -1.568  0.00  0.00    -0.341 N 
ATOM     31  H   UNL d   1      22.974 -17.414  -2.396  0.00  0.00     0.167 HD
ENDBRANCH  20  22
ENDBRANCH   1  20
TORSDOF 5
ENDMDL
MODEL 2
REMARK VINA RESULT:    -8.358      5.697      6.910
REMARK INTER + INTRA:         -12.525
REMARK INTER:                  -9.850
REMARK INTRA:                  -2.675
REMARK CONF_INDEPENDENT:        1.492
REMARK UNBOUND:                -2.675
REMARK  5 active torsions:
REMARK  status: ('A' for Active; 'I' for Inactive)
REMARK    1  A    between atoms: C_2  and  N_3 
REMARK    2  A    between atoms: C_2  and  C_20 
REMARK       I    between atoms: N_3  and  C_4 
REMARK    3  A    between atoms: C_4  and  C_6 
REMARK       I    between atoms: C_6  and  N_8 
REMARK    4  A    between atoms: N_8  and  C_9 
REMARK    5  A    between atoms: C_14  and  C_15 
ROOT
ATOM      1  N   UNL d   1      28.228 -15.837   0.781  0.00  0.00    -0.342 N 
ATOM      2  C   UNL d   1      27.687 -14.548   0.634  0.00  0.00     0.310 C 
ATOM      3  O   UNL d   1      26.971 -14.180  -0.278  0.00  0.00    -0.262 OA
ATOM      4  H   UNL d   1      28.921 -15.966   1.518  0.00  0.00     0.163 HD
ENDROOT
BRANCH   2   5
ATOM      5  C   UNL d   1      28.030 -13.553   1.789  0.00  0.00     0.314 C 
ATOM      6  O   UNL d   1      29.084 -13.715   2.368  0.00  0.00    -0.262 OA
ATOM      7  N   UNL d   1      27.038 -12.603   2.108  0.00  0.00    -0.318 N 
ATOM      8  H   UNL d   1      26.102 -12.766   1.750  0.00  0.00     0.169 HD
BRANCH   7   9
ATOM      9  C   UNL d   1      27.243 -11.437   2.923  0.00  0.00     0.046 A 
ATOM     10  C   UNL d   1      27.025 -10.168   2.352  0.00  0.00     0.030 A 
ATOM     11  C   UNL d   1      27.339  -8.990   3.054  0.00  0.00     0.002 A 
ATOM     12  C   UNL d   1      27.848  -9.056   4.347  0.00  0.00     0.001 A 
ATOM     13  C   UNL d   1      28.062 -10.300   4.932  0.00  0.00     0.015 A 
ATOM     14  C   UNL d   1      27.764 -11.493   4.241  0.00  0.00     0.008 A 
BRANCH  14  15
ATOM     15  C   UNL d   1      28.135 -12.764   4.863  0.00  0.00     0.017 A 
ATOM     16  C   UNL d   1      29.369 -13.123   5.371  0.00  0.00     0.020 A 
ATOM     17  C   UNL d   1      29.450 -14.515   5.646  0.00  0.00     0.008 A 
ATOM     18  C   UNL d   1      28.253 -15.154   5.413  0.00  0.00     0.050 A 
ATOM     19  S   UNL d   1      27.030 -14.075   4.893  0.00  0.00    -0.101 SA
ENDBRANCH  14  15
ENDBRANCH   7   9
ENDBRANCH   2   5
BRANCH   1  20
ATOM     20  C   UNL d   1      27.909 -17.000  -0.097  0.00  0.00     0.150 C 
ATOM     21  C   UNL d   1      28.755 -16.910  -1.352  0.00  0.00     0.040 C 
BRANCH  20  22
ATOM     22  C   UNL d   1      26.372 -17.125  -0.288  0.00  0.00     0.127 C 
ATOM     23  N   UNL d   1      25.861 -18.313  -0.520  0.00  0.00    -0.231 NA
ATOM     24  C   UNL d   1      24.514 -18.172  -0.521  0.00  0.00     0.085 C 
ATOM     25  C   UNL d   1      23.585 -19.199  -0.389  0.00  0.00     0.034 C 
ATOM     26  C   UNL d   1      24.103 -16.850  -0.610  0.00  0.00     0.062 C 
ATOM     27  C   UNL d   1      22.228 -18.947  -0.516  0.00  0.00     0.002 C 
ATOM     28  C   UNL d   1      21.802 -17.658  -0.819  0.00  0.00     0.002 C 
ATOM     29  C   UNL d   1      22.724 -16.567  -0.879  0.00  0.00     0.032 C 
ATOM     30  N   UNL d   1      25.304 -16.186  -0.255  0.00  0.00    -0.341 N 
ATOM     31  H   UNL d   1      25.340 -15.299   0.233  0.00  0.00     0.167 HD
ENDBRANCH  20  22
ENDBRANCH   1  20
TORSDOF 5
ENDMDL
MODEL 3
REMARK VINA RESULT:    -8.013      2.617      5.010
REMARK INTER + INTRA:         -12.333
REMARK INTER:                  -9.504
REMARK INTRA:                  -2.829
REMARK CONF_INDEPENDENT:        1.492
REMARK UNBOUND:                -2.829
REMARK  5 active torsions:
REMARK  status: ('A' for Active; 'I' for Inactive)
REMARK    1  A    between atoms: C_2  and  N_3 
REMARK    2  A    between atoms: C_2  and  C_20 
REMARK       I    between atoms: N_3  and  C_4 
REMARK    3  A    between atoms: C_4  and  C_6 
REMARK       I    between atoms: C_6  and  N_8 
REMARK    4  A    between atoms: N_8  and  C_9 
REMARK    5  A    between atoms: C_14  and  C_15 
ROOT
ATOM      1  N   UNL d   1      26.344 -14.177  -4.790  0.00  0.00    -0.342 N 
ATOM      2  C   UNL d   1      27.651 -14.603  -4.497  0.00  0.00     0.310 C 
ATOM      3  O   UNL d   1      28.137 -14.689  -3.384  0.00  0.00    -0.262 OA
ATOM      4  H   UNL d   1      26.117 -14.022  -5.771  0.00  0.00     0.163 HD
ENDROOT
BRANCH   2   5
ATOM      5  C   UNL d   1      28.498 -15.032  -5.738  0.00  0.00     0.314 C 
ATOM      6  O   UNL d   1      27.906 -15.200  -6.784  0.00  0.00    -0.262 OA
ATOM      7  N   UNL d   1      29.870 -15.265  -5.506  0.00  0.00    -0.318 N 
ATOM      8  H   UNL d   1      30.169 -15.373  -4.543  0.00  0.00     0.169 HD
BRANCH   7   9
ATOM      9  C   UNL d   1      30.871 -15.389  -6.530  0.00  0.00     0.046 A 
ATOM     10  C   UNL d   1      31.297 -14.227  -7.201  0.00  0.00     0.030 A 
ATOM     11  C   UNL d   1      32.171 -14.300  -8.302  0.00  0.00     0.002 A 
ATOM     12  C   UNL d   1      32.656 -15.529  -8.734  0.00  0.00     0.001 A 
ATOM     13  C   UNL d   1      32.253 -16.690  -8.079  0.00  0.00     0.015 A 
ATOM     14  C   UNL d   1      31.370 -16.638  -6.980  0.00  0.00     0.008 A 
BRANCH  14  15
ATOM     15  C   UNL d   1      30.886 -17.901  -6.423  0.00  0.00     0.017 A 
ATOM     16  C   UNL d   1      30.581 -18.175  -5.103  0.00  0.00     0.020 A 
ATOM     17  C   UNL d   1      30.406 -19.566  -4.873  0.00  0.00     0.008 A 
ATOM     18  C   UNL d   1      30.506 -20.296  -6.037  0.00  0.00     0.050 A 
ATOM     19  S   UNL d   1      30.780 -19.303  -7.404  0.00  0.00    -0.101 SA
ENDBRANCH  14  15
ENDBRANCH   7   9
ENDBRANCH   2   5
BRANCH   1  20
ATOM     20  C   UNL d   1      25.298 -13.878  -3.770  0.00  0.00     0.150 C 
ATOM     21  C   UNL d   1      25.556 -12.498  -3.196  0.00  0.00     0.040 C 
BRANCH  20  22
ATOM     22  C   UNL d   1      25.180 -15.052  -2.759  0.00  0.00     0.127 C 
ATOM     23  N   UNL d   1      24.032 -15.245  -2.148  0.00  0.00    -0.231 NA
ATOM     24  C   UNL d   1      24.151 -16.387  -1.431  0.00  0.00     0.085 C 
ATOM     25  C   UNL d   1      23.101 -17.140  -0.914  0.00  0.00     0.034 C 
ATOM     26  C   UNL d   1      25.465 -16.808  -1.288  0.00  0.00     0.062 C 
ATOM     27  C   UNL d   1      23.348 -18.234  -0.099  0.00  0.00     0.002 C 
ATOM     28  C   UNL d   1      24.662 -18.550   0.233  0.00  0.00     0.002 C 
ATOM     29  C   UNL d   1      25.763 -17.848  -0.347  0.00  0.00     0.032 C 
ATOM     30  N   UNL d   1      26.086 -16.054  -2.315  0.00  0.00    -0.341 N 
ATOM     31  H   UNL d   1      26.890 -16.370  -2.844  0.00  0.00     0.167 HD
ENDBRANCH  20  22
ENDBRANCH   1  20
TORSDOF 5
ENDMDL
MODEL 4
REMARK VINA RESULT:    -7.811      5.888      7.676
REMARK INTER + INTRA:         -12.158
REMARK INTER:                  -9.302
REMARK INTRA:                  -2.855
REMARK CONF_INDEPENDENT:        1.492
REMARK UNBOUND:                -2.855
REMARK  5 active torsions:
REMARK  status: ('A' for Active; 'I' for Inactive)
REMARK    1  A    between atoms: C_2  and  N_3 
REMARK    2  A    between atoms: C_2  and  C_20 
REMARK       I    between atoms: N_3  and  C_4 
REMARK    3  A    between atoms: C_4  and  C_6 
REMARK       I    between atoms: C_6  and  N_8 
REMARK    4  A    between atoms: N_8  and  C_9 
REMARK    5  A    between atoms: C_14  and  C_15 
ROOT
ATOM      1  N   UNL d   1      28.689 -15.834   0.673  0.00  0.00    -0.342 N 
ATOM      2  C   UNL d   1      28.031 -14.762   1.299  0.00  0.00     0.310 C 
ATOM      3  O   UNL d   1      27.090 -14.142   0.840  0.00  0.00    -0.262 OA
ATOM      4  H   UNL d   1      29.547 -16.169   1.111  0.00  0.00     0.163 HD
ENDROOT
BRANCH   2   5
ATOM      5  C   UNL d   1      28.564 -14.402   2.724  0.00  0.00     0.314 C 
ATOM      6  O   UNL d   1      29.674 -14.795   3.017  0.00  0.00    -0.262 OA
ATOM      7  N   UNL d   1      27.666 -13.719   3.571  0.00  0.00    -0.318 N 
ATOM      8  H   UNL d   1      26.686 -13.715   3.307  0.00  0.00     0.169 HD
BRANCH   7   9
ATOM      9  C   UNL d   1      28.028 -13.053   4.793  0.00  0.00     0.046 A 
ATOM     10  C   UNL d   1      28.358 -13.837   5.915  0.00  0.00     0.030 A 
ATOM     11  C   UNL d   1      28.587 -13.249   7.173  0.00  0.00     0.002 A 
ATOM     12  C   UNL d   1      28.519 -11.868   7.325  0.00  0.00     0.001 A 
ATOM     13  C   UNL d   1      28.204 -11.075   6.226  0.00  0.00     0.015 A 
ATOM     14  C   UNL d   1      27.960 -11.647   4.959  0.00  0.00     0.008 A 
BRANCH  14  15
ATOM     15  C   UNL d   1      27.505 -10.770   3.880  0.00  0.00     0.017 A 
ATOM     16  C   UNL d   1      26.656  -9.685   3.980  0.00  0.00     0.020 A 
ATOM     17  C   UNL d   1      26.212  -9.234   2.708  0.00  0.00     0.008 A 
ATOM     18  C   UNL d   1      26.800  -9.939   1.680  0.00  0.00     0.050 A 
ATOM     19  S   UNL d   1      27.902 -11.118   2.249  0.00  0.00    -0.101 SA
ENDBRANCH  14  15
ENDBRANCH   7   9
ENDBRANCH   2   5
BRANCH   1  20
ATOM     20  C   UNL d   1      28.258 -16.467  -0.607  0.00  0.00     0.150 C 
ATOM     21  C   UNL d   1      28.850 -15.682  -1.762  0.00  0.00     0.040 C 
BRANCH  20  22
ATOM     22  C   UNL d   1      26.719 -16.678  -0.612  0.00  0.00     0.127 C 
ATOM     23  N   UNL d   1      26.252 -17.907  -0.635  0.00  0.00    -0.231 NA
ATOM     24  C   UNL d   1      24.906 -17.822  -0.507  0.00  0.00     0.085 C 
ATOM     25  C   UNL d   1      24.053 -18.860  -0.145  0.00  0.00     0.034 C 
ATOM     26  C   UNL d   1      24.417 -16.541  -0.717  0.00  0.00     0.062 C 
ATOM     27  C   UNL d   1      22.679 -18.683  -0.154  0.00  0.00     0.002 C 
ATOM     28  C   UNL d   1      22.154 -17.463  -0.569  0.00  0.00     0.002 C 
ATOM     29  C   UNL d   1      23.004 -16.353  -0.867  0.00  0.00     0.032 C 
ATOM     30  N   UNL d   1      25.610 -15.788  -0.582  0.00  0.00    -0.341 N 
ATOM     31  H   UNL d   1      25.647 -14.844  -0.217  0.00  0.00     0.167 HD
ENDBRANCH  20  22
ENDBRANCH   1  20
TORSDOF 5
ENDMDL
MODEL 5
REMARK VINA RESULT:    -7.775      5.856      7.474
REMARK INTER + INTRA:         -11.520
REMARK INTER:                  -9.266
REMARK INTRA:                  -2.253
REMARK CONF_INDEPENDENT:        1.492
REMARK UNBOUND:                -2.253
REMARK  5 active torsions:
REMARK  status: ('A' for Active; 'I' for Inactive)
REMARK    1  A    between atoms: C_2  and  N_3 
REMARK    2  A    between atoms: C_2  and  C_20 
REMARK       I    between atoms: N_3  and  C_4 
REMARK    3  A    between atoms: C_4  and  C_6 
REMARK       I    between atoms: C_6  and  N_8 
REMARK    4  A    between atoms: N_8  and  C_9 
REMARK    5  A    between atoms: C_14  and  C_15 
ROOT
ATOM      1  N   UNL d   1      28.445 -15.814   0.765  0.00  0.00    -0.342 N 
ATOM      2  C   UNL d   1      27.851 -14.551   0.927  0.00  0.00     0.310 C 
ATOM      3  O   UNL d   1      27.051 -14.041   0.166  0.00  0.00    -0.262 OA
ATOM      4  H   UNL d   1      29.201 -16.056   1.406  0.00  0.00     0.163 HD
ENDROOT
BRANCH   2   5
ATOM      5  C   UNL d   1      28.255 -13.795   2.234  0.00  0.00     0.314 C 
ATOM      6  O   UNL d   1      27.851 -12.658   2.366  0.00  0.00    -0.262 OA
ATOM      7  N   UNL d   1      29.126 -14.480   3.106  0.00  0.00    -0.318 N 
ATOM      8  H   UNL d   1      29.614 -15.290   2.738  0.00  0.00     0.169 HD
BRANCH   7   9
ATOM      9  C   UNL d   1      29.397 -14.102   4.467  0.00  0.00     0.046 A 
ATOM     10  C   UNL d   1      28.785 -14.833   5.503  0.00  0.00     0.030 A 
ATOM     11  C   UNL d   1      28.903 -14.429   6.846  0.00  0.00     0.002 A 
ATOM     12  C   UNL d   1      29.654 -13.307   7.180  0.00  0.00     0.001 A 
ATOM     13  C   UNL d   1      30.274 -12.576   6.170  0.00  0.00     0.015 A 
ATOM     14  C   UNL d   1      30.159 -12.959   4.817  0.00  0.00     0.008 A 
BRANCH  14  15
ATOM     15  C   UNL d   1      30.724 -12.074   3.798  0.00  0.00     0.017 A 
ATOM     16  C   UNL d   1      30.485 -10.724   3.630  0.00  0.00     0.020 A 
ATOM     17  C   UNL d   1      30.977 -10.244   2.387  0.00  0.00     0.008 A 
ATOM     18  C   UNL d   1      31.644 -11.225   1.686  0.00  0.00     0.050 A 
ATOM     19  S   UNL d   1      31.699 -12.708   2.538  0.00  0.00    -0.101 SA
ENDBRANCH  14  15
ENDBRANCH   7   9
ENDBRANCH   2   5
BRANCH   1  20
ATOM     20  C   UNL d   1      28.094 -16.790  -0.307  0.00  0.00     0.150 C 
ATOM     21  C   UNL d   1      28.837 -16.411  -1.574  0.00  0.00     0.040 C 
BRANCH  20  22
ATOM     22  C   UNL d   1      26.551 -16.941  -0.412  0.00  0.00     0.127 C 
ATOM     23  N   UNL d   1      26.040 -18.150  -0.483  0.00  0.00    -0.231 NA
ATOM     24  C   UNL d   1      24.693 -18.015  -0.439  0.00  0.00     0.085 C 
ATOM     25  C   UNL d   1      23.781 -19.024  -0.148  0.00  0.00     0.034 C 
ATOM     26  C   UNL d   1      24.267 -16.714  -0.659  0.00  0.00     0.062 C 
ATOM     27  C   UNL d   1      22.417 -18.794  -0.240  0.00  0.00     0.002 C 
ATOM     28  C   UNL d   1      21.966 -17.549  -0.668  0.00  0.00     0.002 C 
ATOM     29  C   UNL d   1      22.874 -16.469  -0.895  0.00  0.00     0.032 C 
ATOM     30  N   UNL d   1      25.477 -16.009  -0.438  0.00  0.00    -0.341 N 
ATOM     31  H   UNL d   1      25.526 -15.072  -0.056  0.00  0.00     0.167 HD
ENDBRANCH  20  22
ENDBRANCH   1  20
TORSDOF 5
ENDMDL
MODEL 6
REMARK VINA RESULT:    -7.577      3.550      7.881
REMARK INTER + INTRA:         -11.544
REMARK INTER:                  -9.068
REMARK INTRA:                  -2.475
REMARK CONF_INDEPENDENT:        1.492
REMARK UNBOUND:                -2.475
REMARK  5 active torsions:
REMARK  status: ('A' for Active; 'I' for Inactive)
REMARK    1  A    between atoms: C_2  and  N_3 
REMARK    2  A    between atoms: C_2  and  C_20 
REMARK       I    between atoms: N_3  and  C_4 
REMARK    3  A    between atoms: C_4  and  C_6 
REMARK       I    between atoms: C_6  and  N_8 
REMARK    4  A    between atoms: N_8  and  C_9 
REMARK    5  A    between atoms: C_14  and  C_15 
ROOT
ATOM      1  N   UNL d   1      29.973 -17.822  -0.637  0.00  0.00    -0.342 N 
ATOM      2  C   UNL d   1      29.290 -16.685  -1.100  0.00  0.00     0.310 C 
ATOM      3  O   UNL d   1      29.707 -15.894  -1.924  0.00  0.00    -0.262 OA
ATOM      4  H   UNL d   1      29.564 -18.318   0.154  0.00  0.00     0.163 HD
ENDROOT
BRANCH   2   5
ATOM      5  C   UNL d   1      27.859 -16.488  -0.504  0.00  0.00     0.314 C 
ATOM      6  O   UNL d   1      27.709 -15.590   0.299  0.00  0.00    -0.262 OA
ATOM      7  N   UNL d   1      26.885 -17.430  -0.897  0.00  0.00    -0.318 N 
ATOM      8  H   UNL d   1      27.213 -18.287  -1.331  0.00  0.00     0.169 HD
BRANCH   7   9
ATOM      9  C   UNL d   1      25.468 -17.284  -0.703  0.00  0.00     0.046 A 
ATOM     10  C   UNL d   1      24.800 -18.218   0.112  0.00  0.00     0.030 A 
ATOM     11  C   UNL d   1      23.397 -18.208   0.231  0.00  0.00     0.002 A 
ATOM     12  C   UNL d   1      22.642 -17.252  -0.438  0.00  0.00     0.001 A 
ATOM     13  C   UNL d   1      23.285 -16.315  -1.243  0.00  0.00     0.015 A 
ATOM     14  C   UNL d   1      24.688 -16.314  -1.382  0.00  0.00     0.008 A 
BRANCH  14  15
ATOM     15  C   UNL d   1      25.287 -15.388  -2.343  0.00  0.00     0.017 A 
ATOM     16  C   UNL d   1      25.530 -15.608  -3.685  0.00  0.00     0.020 A 
ATOM     17  C   UNL d   1      26.366 -14.607  -4.249  0.00  0.00     0.008 A 
ATOM     18  C   UNL d   1      26.667 -13.618  -3.340  0.00  0.00     0.050 A 
ATOM     19  S   UNL d   1      25.920 -13.881  -1.822  0.00  0.00    -0.101 SA
ENDBRANCH  14  15
ENDBRANCH   7   9
ENDBRANCH   2   5
BRANCH   1  20
ATOM     20  C   UNL d   1      31.275 -18.312  -1.176  0.00  0.00     0.150 C 
ATOM     21  C   UNL d   1      32.394 -17.479  -0.581  0.00  0.00     0.040 C 
BRANCH  20  22
ATOM     22  C   UNL d   1      31.214 -18.408  -2.726  0.00  0.00     0.127 C 
ATOM     23  N   UNL d   1      31.151 -19.597  -3.282  0.00  0.00    -0.231 NA
ATOM     24  C   UNL d   1      30.980 -19.405  -4.612  0.00  0.00     0.085 C 
ATOM     25  C   UNL d   1      30.531 -20.356  -5.523  0.00  0.00     0.034 C 
ATOM     26  C   UNL d   1      31.244 -18.104  -5.014  0.00  0.00     0.062 C 
ATOM     27  C   UNL d   1      30.501 -20.077  -6.880  0.00  0.00     0.002 C 
ATOM     28  C   UNL d   1      30.965 -18.845  -7.330  0.00  0.00     0.002 C 
ATOM     29  C   UNL d   1      31.354 -17.819  -6.415  0.00  0.00     0.032 C 
ATOM     30  N   UNL d   1      31.193 -17.436  -3.765  0.00  0.00    -0.341 N 
ATOM     31  H   UNL d   1      30.883 -16.480  -3.645  0.00  0.00     0.167 HD
ENDBRANCH  20  22
ENDBRANCH   1  20
TORSDOF 5
ENDMDL
MODEL 7
REMARK VINA RESULT:    -7.575      1.570      3.152
REMARK INTER + INTRA:         -11.923
REMARK INTER:                  -9.067
REMARK INTRA:                  -2.857
REMARK CONF_INDEPENDENT:        1.492
REMARK UNBOUND:                -2.857
REMARK  5 active torsions:
REMARK  status: ('A' for Active; 'I' for Inactive)
REMARK    1  A    between atoms: C_2  and  N_3 
REMARK    2  A    between atoms: C_2  and  C_20 
REMARK       I    between atoms: N_3  and  C_4 
REMARK    3  A    between atoms: C_4  and  C_6 
REMARK       I    between atoms: C_6  and  N_8 
REMARK    4  A    between atoms: N_8  and  C_9 
REMARK    5  A    between atoms: C_14  and  C_15 
ROOT
ATOM      1  N   UNL d   1      25.368 -16.495  -1.584  0.00  0.00    -0.342 N 
ATOM      2  C   UNL d   1      26.434 -15.673  -1.987  0.00  0.00     0.310 C 
ATOM      3  O   UNL d   1      27.333 -15.275  -1.270  0.00  0.00    -0.262 OA
ATOM      4  H   UNL d   1      24.614 -16.637  -2.255  0.00  0.00     0.163 HD
ENDROOT
BRANCH   2   5
ATOM      5  C   UNL d   1      26.443 -15.302  -3.505  0.00  0.00     0.314 C 
ATOM      6  O   UNL d   1      25.475 -15.624  -4.162  0.00  0.00    -0.262 OA
ATOM      7  N   UNL d   1      27.620 -14.694  -3.992  0.00  0.00    -0.318 N 
ATOM      8  H   UNL d   1      28.450 -14.752  -3.410  0.00  0.00     0.169 HD
BRANCH   7   9
ATOM      9  C   UNL d   1      27.741 -14.027  -5.259  0.00  0.00     0.046 A 
ATOM     10  C   UNL d   1      28.353 -14.712  -6.326  0.00  0.00     0.030 A 
ATOM     11  C   UNL d   1      28.623 -14.066  -7.547  0.00  0.00     0.002 A 
ATOM     12  C   UNL d   1      28.263 -12.735  -7.733  0.00  0.00     0.001 A 
ATOM     13  C   UNL d   1      27.650 -12.043  -6.693  0.00  0.00     0.015 A 
ATOM     14  C   UNL d   1      27.380 -12.670  -5.458  0.00  0.00     0.008 A 
BRANCH  14  15
ATOM     15  C   UNL d   1      26.855 -11.849  -4.367  0.00  0.00     0.017 A 
ATOM     16  C   UNL d   1      25.708 -11.080  -4.370  0.00  0.00     0.020 A 
ATOM     17  C   UNL d   1      25.647 -10.205  -3.252  0.00  0.00     0.008 A 
ATOM     18  C   UNL d   1      26.709 -10.393  -2.395  0.00  0.00     0.050 A 
ATOM     19  S   UNL d   1      27.757 -11.639  -2.923  0.00  0.00    -0.101 SA
ENDBRANCH  14  15
ENDBRANCH   7   9
ENDBRANCH   2   5
BRANCH   1  20
ATOM     20  C   UNL d   1      25.235 -17.115  -0.234  0.00  0.00     0.150 C 
ATOM     21  C   UNL d   1      26.446 -17.990   0.023  0.00  0.00     0.040 C 
BRANCH  20  22
ATOM     22  C   UNL d   1      23.838 -17.780  -0.082  0.00  0.00     0.127 C 
ATOM     23  N   UNL d   1      23.014 -17.753  -1.106  0.00  0.00    -0.231 NA
ATOM     24  C   UNL d   1      21.935 -18.499  -0.765  0.00  0.00     0.085 C 
ATOM     25  C   UNL d   1      20.991 -19.018  -1.645  0.00  0.00     0.034 C 
ATOM     26  C   UNL d   1      21.867 -18.772   0.593  0.00  0.00     0.062 C 
ATOM     27  C   UNL d   1      19.866 -19.674  -1.170  0.00  0.00     0.002 C 
ATOM     28  C   UNL d   1      19.668 -19.774   0.204  0.00  0.00     0.002 C 
ATOM     29  C   UNL d   1      20.658 -19.325   1.131  0.00  0.00     0.032 C 
ATOM     30  N   UNL d   1      23.198 -18.477   0.980  0.00  0.00    -0.341 N 
ATOM     31  H   UNL d   1      23.689 -18.948   1.730  0.00  0.00     0.167 HD
ENDBRANCH  20  22
ENDBRANCH   1  20
TORSDOF 5
ENDMDL
MODEL 8
REMARK VINA RESULT:    -7.356      2.573      8.422
REMARK INTER + INTRA:         -11.657
REMARK INTER:                  -8.848
REMARK INTRA:                  -2.809
REMARK CONF_INDEPENDENT:        1.492
REMARK UNBOUND:                -2.809
REMARK  5 active torsions:
REMARK  status: ('A' for Active; 'I' for Inactive)
REMARK    1  A    between atoms: C_2  and  N_3 
REMARK    2  A    between atoms: C_2  and  C_20 
REMARK       I    between atoms: N_3  and  C_4 
REMARK    3  A    between atoms: C_4  and  C_6 
REMARK       I    between atoms: C_6  and  N_8 
REMARK    4  A    between atoms: N_8  and  C_9 
REMARK    5  A    between atoms: C_14  and  C_15 
ROOT
ATOM      1  N   UNL d   1      26.811 -13.621  -5.279  0.00  0.00    -0.342 N 
ATOM      2  C   UNL d   1      26.302 -13.526  -3.972  0.00  0.00     0.310 C 
ATOM      3  O   UNL d   1      26.382 -12.551  -3.249  0.00  0.00    -0.262 OA
ATOM      4  H   UNL d   1      26.793 -14.542  -5.716  0.00  0.00     0.163 HD
ENDROOT
BRANCH   2   5
ATOM      5  C   UNL d   1      25.540 -14.794  -3.468  0.00  0.00     0.314 C 
ATOM      6  O   UNL d   1      25.155 -15.582  -4.307  0.00  0.00    -0.262 OA
ATOM      7  N   UNL d   1      25.297 -14.864  -2.080  0.00  0.00    -0.318 N 
ATOM      8  H   UNL d   1      25.410 -14.011  -1.542  0.00  0.00     0.169 HD
BRANCH   7   9
ATOM      9  C   UNL d   1      24.875 -16.043  -1.374  0.00  0.00     0.046 A 
ATOM     10  C   UNL d   1      23.496 -16.309  -1.270  0.00  0.00     0.030 A 
ATOM     11  C   UNL d   1      23.016 -17.369  -0.479  0.00  0.00     0.002 A 
ATOM     12  C   UNL d   1      23.904 -18.198   0.199  0.00  0.00     0.001 A 
ATOM     13  C   UNL d   1      25.272 -17.957   0.103  0.00  0.00     0.015 A 
ATOM     14  C   UNL d   1      25.771 -16.893  -0.677  0.00  0.00     0.008 A 
BRANCH  14  15
ATOM     15  C   UNL d   1      27.207 -16.617  -0.630  0.00  0.00     0.017 A 
ATOM     16  C   UNL d   1      27.980 -16.371   0.489  0.00  0.00     0.020 A 
ATOM     17  C   UNL d   1      29.267 -15.873   0.151  0.00  0.00     0.008 A 
ATOM     18  C   UNL d   1      29.459 -15.831  -1.212  0.00  0.00     0.050 A 
ATOM     19  S   UNL d   1      28.104 -16.416  -2.078  0.00  0.00    -0.101 SA
ENDBRANCH  14  15
ENDBRANCH   7   9
ENDBRANCH   2   5
BRANCH   1  20
ATOM     20  C   UNL d   1      27.425 -12.493  -6.037  0.00  0.00     0.150 C 
ATOM     21  C   UNL d   1      28.898 -12.412  -5.682  0.00  0.00     0.040 C 
BRANCH  20  22
ATOM     22  C   UNL d   1      26.583 -11.200  -5.856  0.00  0.00     0.127 C 
ATOM     23  N   UNL d   1      26.814 -10.181  -6.654  0.00  0.00    -0.231 NA
ATOM     24  C   UNL d   1      25.877  -9.242  -6.378  0.00  0.00     0.085 C 
ATOM     25  C   UNL d   1      25.535  -8.168  -7.194  0.00  0.00     0.034 C 
ATOM     26  C   UNL d   1      25.206  -9.473  -5.187  0.00  0.00     0.062 C 
ATOM     27  C   UNL d   1      24.637  -7.206  -6.757  0.00  0.00     0.002 C 
ATOM     28  C   UNL d   1      24.109  -7.303  -5.473  0.00  0.00     0.002 C 
ATOM     29  C   UNL d   1      24.377  -8.437  -4.645  0.00  0.00     0.032 C 
ATOM     30  N   UNL d   1      25.530 -10.836  -4.972  0.00  0.00    -0.341 N 
ATOM     31  H   UNL d   1      24.919 -11.498  -4.509  0.00  0.00     0.167 HD
ENDBRANCH  20  22
ENDBRANCH   1  20
TORSDOF 5
ENDMDL
MODEL 9
REMARK VINA RESULT:    -7.226      6.139      8.300
REMARK INTER + INTRA:         -11.570
REMARK INTER:                  -8.718
REMARK INTRA:                  -2.852
REMARK CONF_INDEPENDENT:        1.492
REMARK UNBOUND:                -2.852
REMARK  5 active torsions:
REMARK  status: ('A' for Active; 'I' for Inactive)
REMARK    1  A    between atoms: C_2  and  N_3 
REMARK    2  A    between atoms: C_2  and  C_20 
REMARK       I    between atoms: N_3  and  C_4 
REMARK    3  A    between atoms: C_4  and  C_6 
REMARK       I    between atoms: C_6  and  N_8 
REMARK    4  A    between atoms: N_8  and  C_9 
REMARK    5  A    between atoms: C_14  and  C_15 
ROOT
ATOM      1  N   UNL d   1      28.464 -14.510   2.818  0.00  0.00    -0.342 N 
ATOM      2  C   UNL d   1      27.451 -14.026   1.974  0.00  0.00     0.310 C 
ATOM      3  O   UNL d   1      26.519 -13.322   2.316  0.00  0.00    -0.262 OA
ATOM      4  H   UNL d   1      29.104 -15.200   2.425  0.00  0.00     0.163 HD
ENDROOT
BRANCH   2   5
ATOM      5  C   UNL d   1      27.604 -14.418   0.469  0.00  0.00     0.314 C 
ATOM      6  O   UNL d   1      28.549 -15.119   0.169  0.00  0.00    -0.262 OA
ATOM      7  N   UNL d   1      26.669 -13.849  -0.422  0.00  0.00    -0.318 N 
ATOM      8  H   UNL d   1      26.125 -13.061  -0.087  0.00  0.00     0.169 HD
BRANCH   7   9
ATOM      9  C   UNL d   1      26.449 -14.281  -1.775  0.00  0.00     0.046 A 
ATOM     10  C   UNL d   1      26.752 -13.391  -2.824  0.00  0.00     0.030 A 
ATOM     11  C   UNL d   1      26.432 -13.703  -4.158  0.00  0.00     0.002 A 
ATOM     12  C   UNL d   1      25.831 -14.917  -4.472  0.00  0.00     0.001 A 
ATOM     13  C   UNL d   1      25.531 -15.814  -3.450  0.00  0.00     0.015 A 
ATOM     14  C   UNL d   1      25.834 -15.515  -2.105  0.00  0.00     0.008 A 
BRANCH  14  15
ATOM     15  C   UNL d   1      25.375 -16.441  -1.071  0.00  0.00     0.017 A 
ATOM     16  C   UNL d   1      26.151 -17.219  -0.233  0.00  0.00     0.020 A 
ATOM     17  C   UNL d   1      25.382 -18.197   0.454  0.00  0.00     0.008 A 
ATOM     18  C   UNL d   1      24.038 -18.082   0.176  0.00  0.00     0.050 A 
ATOM     19  S   UNL d   1      23.704 -16.780  -0.885  0.00  0.00    -0.101 SA
ENDBRANCH  14  15
ENDBRANCH   7   9
ENDBRANCH   2   5
BRANCH   1  20
ATOM     20  C   UNL d   1      28.628 -14.136   4.253  0.00  0.00     0.150 C 
ATOM     21  C   UNL d   1      27.764 -15.053   5.098  0.00  0.00     0.040 C 
BRANCH  20  22
ATOM     22  C   UNL d   1      28.425 -12.607   4.437  0.00  0.00     0.127 C 
ATOM     23  N   UNL d   1      28.817 -12.050   5.562  0.00  0.00    -0.231 NA
ATOM     24  C   UNL d   1      28.649 -10.713   5.422  0.00  0.00     0.085 C 
ATOM     25  C   UNL d   1      29.237  -9.730   6.212  0.00  0.00     0.034 C 
ATOM     26  C   UNL d   1      27.851 -10.373   4.340  0.00  0.00     0.062 C 
ATOM     27  C   UNL d   1      28.903  -8.395   6.045  0.00  0.00     0.002 C 
ATOM     28  C   UNL d   1      27.940  -8.049   5.103  0.00  0.00     0.002 C 
ATOM     29  C   UNL d   1      27.380  -9.025   4.221  0.00  0.00     0.032 C 
ATOM     30  N   UNL d   1      27.887 -11.585   3.607  0.00  0.00    -0.341 N 
ATOM     31  H   UNL d   1      27.837 -11.639   2.596  0.00  0.00     0.167 HD
ENDBRANCH  20  22
ENDBRANCH   1  20
TORSDOF 5
ENDMDL
