MODEL 1
REMARK VINA RESULT:    -7.259      0.000      0.000
REMARK INTER + INTRA:         -10.528
REMARK INTER:                  -8.750
REMARK INTRA:                  -1.778
REMARK CONF_INDEPENDENT:        1.492
REMARK UNBOUND:                -1.778
REMARK  5 active torsions:
REMARK  status: ('A' for Active; 'I' for Inactive)
REMARK    1  A    between atoms: C_2  and  C_3 
REMARK    2  A    between atoms: C_3  and  C_5 
REMARK       I    between atoms: C_5  and  N_7 
REMARK    3  A    between atoms: N_7  and  N_8 
REMARK       I    between atoms: N_8  and  C_9 
REMARK    4  A    between atoms: C_9  and  C_11 
REMARK    5  A    between atoms: C_17  and  O_18 
ROOT
ATOM      1  N   UNL d   1      23.218 -18.413   0.126  0.00  0.00    -0.263 N 
ATOM      2  C   UNL d   1      21.918 -18.207  -0.330  0.00  0.00     0.272 C 
ATOM      3  O   UNL d   1      21.648 -17.296  -1.117  0.00  0.00    -0.266 OA
ATOM      4  H   UNL d   1      23.495 -19.188   0.724  0.00  0.00     0.190 HD
ENDROOT
BRANCH   2   5
ATOM      5  C   UNL d   1      20.845 -19.119   0.202  0.00  0.00     0.066 A 
ATOM      6  C   UNL d   1      20.662 -19.275   1.586  0.00  0.00     0.020 A 
ATOM      7  C   UNL d   1      19.618 -20.076   2.092  0.00  0.00     0.008 A 
ATOM      8  C   UNL d   1      18.728 -20.724   1.227  0.00  0.00    -0.059 A 
ATOM      9  C   UNL d   1      17.595 -21.578   1.729  0.00  0.00     0.048 C 
ATOM     10  C   UNL d   1      18.904 -20.566  -0.152  0.00  0.00     0.044 A 
ATOM     11  C   UNL d   1      19.951 -19.778  -0.657  0.00  0.00     0.082 A 
BRANCH  11  12
ATOM     12  O   UNL d   1      20.103 -19.700  -2.014  0.00  0.00    -0.360 OA
ATOM     13  H   UNL d   1      20.672 -18.945  -2.235  0.00  0.00     0.217 HD
ENDBRANCH  11  12
ENDBRANCH   2   5
BRANCH   1  14
ATOM     14  N   UNL d   1      24.275 -17.604  -0.385  0.00  0.00    -0.267 N 
ATOM     15  C   UNL d   1      25.557 -17.767   0.124  0.00  0.00     0.239 C 
ATOM     16  O   UNL d   1      25.785 -18.573   1.027  0.00  0.00    -0.271 OA
ATOM     17  H   UNL d   1      24.024 -16.957  -1.130  0.00  0.00     0.190 HD
BRANCH  15  18
ATOM     18  C   UNL d   1      26.657 -16.858  -0.479  0.00  0.00     0.075 C 
ATOM     19  C   UNL d   1      27.619 -16.363   0.603  0.00  0.00     0.020 C 
BRANCH  18  20
ATOM     20  C   UNL d   1      26.032 -15.648  -1.223  0.00  0.00     0.009 C 
ATOM     21  C   UNL d   1      25.537 -15.969  -2.633  0.00  0.00     0.006 C 
ENDBRANCH  18  20
ENDBRANCH  15  18
ENDBRANCH   1  14
TORSDOF 5
ENDMDL
MODEL 2
REMARK VINA RESULT:    -7.200      1.398      7.633
REMARK INTER + INTRA:         -10.455
REMARK INTER:                  -8.691
REMARK INTRA:                  -1.764
REMARK CONF_INDEPENDENT:        1.492
REMARK UNBOUND:                -1.764
REMARK  5 active torsions:
REMARK  status: ('A' for Active; 'I' for Inactive)
REMARK    1  A    between atoms: C_2  and  C_3 
REMARK    2  A    between atoms: C_3  and  C_5 
REMARK       I    between atoms: C_5  and  N_7 
REMARK    3  A    between atoms: N_7  and  N_8 
REMARK       I    between atoms: N_8  and  C_9 
REMARK    4  A    between atoms: C_9  and  C_11 
REMARK    5  A    between atoms: C_17  and  O_18 
ROOT
ATOM      1  N   UNL d   1      23.065 -17.959  -0.828  0.00  0.00    -0.263 N 
ATOM      2  C   UNL d   1      24.416 -17.872  -0.502  0.00  0.00     0.272 C 
ATOM      3  O   UNL d   1      24.914 -18.575   0.381  0.00  0.00    -0.266 OA
ATOM      4  H   UNL d   1      22.629 -17.444  -1.589  0.00  0.00     0.190 HD
ENDROOT
BRANCH   2   5
ATOM      5  C   UNL d   1      25.244 -16.859  -1.248  0.00  0.00     0.066 A 
ATOM      6  C   UNL d   1      24.626 -15.860  -2.018  0.00  0.00     0.020 A 
ATOM      7  C   UNL d   1      25.391 -14.868  -2.666  0.00  0.00     0.008 A 
ATOM      8  C   UNL d   1      26.786 -14.846  -2.544  0.00  0.00    -0.059 A 
ATOM      9  C   UNL d   1      27.635 -13.799  -3.211  0.00  0.00     0.048 C 
ATOM     10  C   UNL d   1      27.404 -15.836  -1.774  0.00  0.00     0.044 A 
ATOM     11  C   UNL d   1      26.643 -16.831  -1.138  0.00  0.00     0.082 A 
BRANCH  11  12
ATOM     12  O   UNL d   1      27.306 -17.801  -0.437  0.00  0.00    -0.360 OA
ATOM     13  H   UNL d   1      26.949 -17.854   0.464  0.00  0.00     0.217 HD
ENDBRANCH  11  12
ENDBRANCH   2   5
BRANCH   1  14
ATOM     14  N   UNL d   1      22.251 -18.935  -0.182  0.00  0.00    -0.267 N 
ATOM     15  C   UNL d   1      20.897 -18.992  -0.482  0.00  0.00     0.239 C 
ATOM     16  O   UNL d   1      20.386 -18.194  -1.270  0.00  0.00    -0.271 OA
ATOM     17  H   UNL d   1      22.731 -19.566   0.458  0.00  0.00     0.190 HD
BRANCH  15  18
ATOM     18  C   UNL d   1      20.074 -20.079   0.254  0.00  0.00     0.075 C 
ATOM     19  C   UNL d   1      18.678 -20.222  -0.355  0.00  0.00     0.020 C 
BRANCH  18  20
ATOM     20  C   UNL d   1      19.958 -19.758   1.768  0.00  0.00     0.009 C 
ATOM     21  C   UNL d   1      18.788 -20.450   2.466  0.00  0.00     0.006 C 
ENDBRANCH  18  20
ENDBRANCH  15  18
ENDBRANCH   1  14
TORSDOF 5
ENDMDL
MODEL 3
REMARK VINA RESULT:    -7.094      1.418      7.508
REMARK INTER + INTRA:         -10.338
REMARK INTER:                  -8.585
REMARK INTRA:                  -1.753
REMARK CONF_INDEPENDENT:        1.492
REMARK UNBOUND:                -1.753
REMARK  5 active torsions:
REMARK  status: ('A' for Active; 'I' for Inactive)
REMARK    1  A    between atoms: C_2  and  C_3 
REMARK    2  A    between atoms: C_3  and  C_5 
REMARK       I    between atoms: C_5  and  N_7 
REMARK    3  A    between atoms: N_7  and  N_8 
REMARK       I    between atoms: N_8  and  C_9 
REMARK    4  A    between atoms: C_9  and  C_11 
REMARK    5  A    between atoms: C_17  and  O_18 
ROOT
ATOM      1  N   UNL d   1      23.303 -18.020  -0.798  0.00  0.00    -0.263 N 
ATOM      2  C   UNL d   1      24.612 -17.912  -0.337  0.00  0.00     0.272 C 
ATOM      3  O   UNL d   1      25.015 -18.575   0.622  0.00  0.00    -0.266 OA
ATOM      4  H   UNL d   1      22.948 -17.540  -1.622  0.00  0.00     0.190 HD
ENDROOT
BRANCH   2   5
ATOM      5  C   UNL d   1      25.512 -16.927  -1.034  0.00  0.00     0.066 A 
ATOM      6  C   UNL d   1      26.908 -17.077  -0.987  0.00  0.00     0.020 A 
ATOM      7  C   UNL d   1      27.755 -16.197  -1.691  0.00  0.00     0.008 A 
ATOM      8  C   UNL d   1      27.224 -15.160  -2.467  0.00  0.00    -0.059 A 
ATOM      9  C   UNL d   1      28.095 -14.207  -3.241  0.00  0.00     0.048 C 
ATOM     10  C   UNL d   1      25.835 -15.010  -2.521  0.00  0.00     0.044 A 
ATOM     11  C   UNL d   1      24.991 -15.879  -1.810  0.00  0.00     0.082 A 
BRANCH  11  12
ATOM     12  O   UNL d   1      23.642 -15.655  -1.862  0.00  0.00    -0.360 OA
ATOM     13  H   UNL d   1      23.291 -15.574  -0.960  0.00  0.00     0.217 HD
ENDBRANCH  11  12
ENDBRANCH   2   5
BRANCH   1  14
ATOM     14  N   UNL d   1      22.427 -18.973  -0.200  0.00  0.00    -0.267 N 
ATOM     15  C   UNL d   1      21.075 -18.938  -0.512  0.00  0.00     0.239 C 
ATOM     16  O   UNL d   1      20.619 -18.080  -1.270  0.00  0.00    -0.271 OA
ATOM     17  H   UNL d   1      22.863 -19.657   0.416  0.00  0.00     0.190 HD
BRANCH  15  18
ATOM     18  C   UNL d   1      20.182 -20.004   0.171  0.00  0.00     0.075 C 
ATOM     19  C   UNL d   1      18.804 -20.075  -0.487  0.00  0.00     0.020 C 
BRANCH  18  20
ATOM     20  C   UNL d   1      20.028 -19.711   1.687  0.00  0.00     0.009 C 
ATOM     21  C   UNL d   1      18.866 -20.449   2.352  0.00  0.00     0.006 C 
ENDBRANCH  18  20
ENDBRANCH  15  18
ENDBRANCH   1  14
TORSDOF 5
ENDMDL
MODEL 4
REMARK VINA RESULT:    -6.364      1.152      2.040
REMARK INTER + INTRA:          -8.972
REMARK INTER:                  -7.855
REMARK INTRA:                  -1.116
REMARK CONF_INDEPENDENT:        1.492
REMARK UNBOUND:                -1.116
REMARK  5 active torsions:
REMARK  status: ('A' for Active; 'I' for Inactive)
REMARK    1  A    between atoms: C_2  and  C_3 
REMARK    2  A    between atoms: C_3  and  C_5 
REMARK       I    between atoms: C_5  and  N_7 
REMARK    3  A    between atoms: N_7  and  N_8 
REMARK       I    between atoms: N_8  and  C_9 
REMARK    4  A    between atoms: C_9  and  C_11 
REMARK    5  A    between atoms: C_17  and  O_18 
ROOT
ATOM      1  N   UNL d   1      22.628 -18.427  -1.304  0.00  0.00    -0.263 N 
ATOM      2  C   UNL d   1      22.287 -18.624   0.031  0.00  0.00     0.272 C 
ATOM      3  O   UNL d   1      22.998 -18.203   0.947  0.00  0.00    -0.266 OA
ATOM      4  H   UNL d   1      22.041 -18.702  -2.088  0.00  0.00     0.190 HD
ENDROOT
BRANCH   2   5
ATOM      5  C   UNL d   1      21.030 -19.401   0.317  0.00  0.00     0.066 A 
ATOM      6  C   UNL d   1      20.655 -19.692   1.639  0.00  0.00     0.020 A 
ATOM      7  C   UNL d   1      19.447 -20.363   1.918  0.00  0.00     0.008 A 
ATOM      8  C   UNL d   1      18.583 -20.742   0.884  0.00  0.00    -0.059 A 
ATOM      9  C   UNL d   1      17.280 -21.449   1.142  0.00  0.00     0.048 C 
ATOM     10  C   UNL d   1      18.950 -20.450  -0.434  0.00  0.00     0.044 A 
ATOM     11  C   UNL d   1      20.159 -19.792  -0.713  0.00  0.00     0.082 A 
BRANCH  11  12
ATOM     12  O   UNL d   1      20.488 -19.576  -2.023  0.00  0.00    -0.360 OA
ATOM     13  H   UNL d   1      19.680 -19.540  -2.560  0.00  0.00     0.217 HD
ENDBRANCH  11  12
ENDBRANCH   2   5
BRANCH   1  14
ATOM     14  N   UNL d   1      23.785 -17.657  -1.625  0.00  0.00    -0.267 N 
ATOM     15  C   UNL d   1      23.783 -16.294  -1.362  0.00  0.00     0.239 C 
ATOM     16  O   UNL d   1      22.790 -15.738  -0.888  0.00  0.00    -0.271 OA
ATOM     17  H   UNL d   1      24.573 -18.172  -2.013  0.00  0.00     0.190 HD
BRANCH  15  18
ATOM     18  C   UNL d   1      25.073 -15.519  -1.733  0.00  0.00     0.075 C 
ATOM     19  C   UNL d   1      25.530 -15.856  -3.153  0.00  0.00     0.020 C 
BRANCH  18  20
ATOM     20  C   UNL d   1      26.213 -15.824  -0.725  0.00  0.00     0.009 C 
ATOM     21  C   UNL d   1      25.997 -17.093   0.098  0.00  0.00     0.006 C 
ENDBRANCH  18  20
ENDBRANCH  15  18
ENDBRANCH   1  14
TORSDOF 5
ENDMDL
MODEL 5
REMARK VINA RESULT:    -6.162      3.199      8.396
REMARK INTER + INTRA:          -9.425
REMARK INTER:                  -7.654
REMARK INTRA:                  -1.772
REMARK CONF_INDEPENDENT:        1.492
REMARK UNBOUND:                -1.772
REMARK  5 active torsions:
REMARK  status: ('A' for Active; 'I' for Inactive)
REMARK    1  A    between atoms: C_2  and  C_3 
REMARK    2  A    between atoms: C_3  and  C_5 
REMARK       I    between atoms: C_5  and  N_7 
REMARK    3  A    between atoms: N_7  and  N_8 
REMARK       I    between atoms: N_8  and  C_9 
REMARK    4  A    between atoms: C_9  and  C_11 
REMARK    5  A    between atoms: C_17  and  O_18 
ROOT
ATOM      1  N   UNL d   1      24.528 -15.650  -2.162  0.00  0.00    -0.263 N 
ATOM      2  C   UNL d   1      25.837 -15.496  -2.610  0.00  0.00     0.272 C 
ATOM      3  O   UNL d   1      26.700 -16.349  -2.386  0.00  0.00    -0.266 OA
ATOM      4  H   UNL d   1      23.773 -15.003  -2.377  0.00  0.00     0.190 HD
ENDROOT
BRANCH   2   5
ATOM      5  C   UNL d   1      26.171 -14.230  -3.351  0.00  0.00     0.066 A 
ATOM      6  C   UNL d   1      27.459 -13.675  -3.275  0.00  0.00     0.020 A 
ATOM      7  C   UNL d   1      27.798 -12.526  -4.018  0.00  0.00     0.008 A 
ATOM      8  C   UNL d   1      26.862 -11.917  -4.863  0.00  0.00    -0.059 A 
ATOM      9  C   UNL d   1      27.190 -10.697  -5.680  0.00  0.00     0.048 C 
ATOM     10  C   UNL d   1      25.580 -12.469  -4.946  0.00  0.00     0.044 A 
ATOM     11  C   UNL d   1      25.238 -13.607  -4.196  0.00  0.00     0.082 A 
BRANCH  11  12
ATOM     12  O   UNL d   1      23.955 -14.074  -4.282  0.00  0.00    -0.360 OA
ATOM     13  H   UNL d   1      23.493 -13.625  -5.009  0.00  0.00     0.217 HD
ENDBRANCH  11  12
ENDBRANCH   2   5
BRANCH   1  14
ATOM     14  N   UNL d   1      24.153 -16.853  -1.495  0.00  0.00    -0.267 N 
ATOM     15  C   UNL d   1      22.904 -16.933  -0.894  0.00  0.00     0.239 C 
ATOM     16  O   UNL d   1      22.133 -15.972  -0.901  0.00  0.00    -0.271 OA
ATOM     17  H   UNL d   1      24.832 -17.612  -1.525  0.00  0.00     0.190 HD
BRANCH  15  18
ATOM     18  C   UNL d   1      22.562 -18.270  -0.191  0.00  0.00     0.075 C 
ATOM     19  C   UNL d   1      23.621 -19.334  -0.483  0.00  0.00     0.020 C 
BRANCH  18  20
ATOM     20  C   UNL d   1      21.163 -18.784  -0.624  0.00  0.00     0.009 C 
ATOM     21  C   UNL d   1      20.482 -19.685   0.405  0.00  0.00     0.006 C 
ENDBRANCH  18  20
ENDBRANCH  15  18
ENDBRANCH   1  14
TORSDOF 5
ENDMDL
MODEL 6
REMARK VINA RESULT:    -5.944      4.177      9.057
REMARK INTER + INTRA:          -9.276
REMARK INTER:                  -7.436
REMARK INTRA:                  -1.840
REMARK CONF_INDEPENDENT:        1.492
REMARK UNBOUND:                -1.840
REMARK  5 active torsions:
REMARK  status: ('A' for Active; 'I' for Inactive)
REMARK    1  A    between atoms: C_2  and  C_3 
REMARK    2  A    between atoms: C_3  and  C_5 
REMARK       I    between atoms: C_5  and  N_7 
REMARK    3  A    between atoms: N_7  and  N_8 
REMARK       I    between atoms: N_8  and  C_9 
REMARK    4  A    between atoms: C_9  and  C_11 
REMARK    5  A    between atoms: C_17  and  O_18 
ROOT
ATOM      1  N   UNL d   1      25.870 -15.557  -3.083  0.00  0.00    -0.263 N 
ATOM      2  C   UNL d   1      25.519 -14.539  -3.966  0.00  0.00     0.272 C 
ATOM      3  O   UNL d   1      24.373 -14.083  -4.001  0.00  0.00    -0.266 OA
ATOM      4  H   UNL d   1      26.815 -15.918  -2.978  0.00  0.00     0.190 HD
ENDROOT
BRANCH   2   5
ATOM      5  C   UNL d   1      26.584 -14.038  -4.904  0.00  0.00     0.066 A 
ATOM      6  C   UNL d   1      27.571 -14.909  -5.395  0.00  0.00     0.020 A 
ATOM      7  C   UNL d   1      28.532 -14.463  -6.324  0.00  0.00     0.008 A 
ATOM      8  C   UNL d   1      28.518 -13.144  -6.792  0.00  0.00    -0.059 A 
ATOM      9  C   UNL d   1      29.521 -12.634  -7.792  0.00  0.00     0.048 C 
ATOM     10  C   UNL d   1      27.535 -12.275  -6.310  0.00  0.00     0.044 A 
ATOM     11  C   UNL d   1      26.583 -12.715  -5.375  0.00  0.00     0.082 A 
BRANCH  11  12
ATOM     12  O   UNL d   1      25.675 -11.808  -4.902  0.00  0.00    -0.360 OA
ATOM     13  H   UNL d   1      24.781 -12.181  -4.963  0.00  0.00     0.217 HD
ENDBRANCH  11  12
ENDBRANCH   2   5
BRANCH   1  14
ATOM     14  N   UNL d   1      24.908 -16.032  -2.144  0.00  0.00    -0.267 N 
ATOM     15  C   UNL d   1      25.303 -16.944  -1.174  0.00  0.00     0.239 C 
ATOM     16  O   UNL d   1      26.459 -17.369  -1.134  0.00  0.00    -0.271 OA
ATOM     17  H   UNL d   1      23.971 -15.643  -2.227  0.00  0.00     0.190 HD
BRANCH  15  18
ATOM     18  C   UNL d   1      24.207 -17.415  -0.185  0.00  0.00     0.075 C 
ATOM     19  C   UNL d   1      24.119 -18.941  -0.145  0.00  0.00     0.020 C 
BRANCH  18  20
ATOM     20  C   UNL d   1      22.826 -16.816  -0.560  0.00  0.00     0.009 C 
ATOM     21  C   UNL d   1      21.761 -17.861  -0.894  0.00  0.00     0.006 C 
ENDBRANCH  18  20
ENDBRANCH  15  18
ENDBRANCH   1  14
TORSDOF 5
ENDMDL
MODEL 7
REMARK VINA RESULT:    -5.790      4.268      9.087
REMARK INTER + INTRA:          -9.083
REMARK INTER:                  -7.281
REMARK INTRA:                  -1.802
REMARK CONF_INDEPENDENT:        1.492
REMARK UNBOUND:                -1.802
REMARK  5 active torsions:
REMARK  status: ('A' for Active; 'I' for Inactive)
REMARK    1  A    between atoms: C_2  and  C_3 
REMARK    2  A    between atoms: C_3  and  C_5 
REMARK       I    between atoms: C_5  and  N_7 
REMARK    3  A    between atoms: N_7  and  N_8 
REMARK       I    between atoms: N_8  and  C_9 
REMARK    4  A    between atoms: C_9  and  C_11 
REMARK    5  A    between atoms: C_17  and  O_18 
ROOT
ATOM      1  N   UNL d   1      25.654 -15.251  -3.334  0.00  0.00    -0.263 N 
ATOM      2  C   UNL d   1      25.196 -14.168  -4.080  0.00  0.00     0.272 C 
ATOM      3  O   UNL d   1      24.030 -13.775  -3.998  0.00  0.00    -0.266 OA
ATOM      4  H   UNL d   1      26.620 -15.569  -3.325  0.00  0.00     0.190 HD
ENDROOT
BRANCH   2   5
ATOM      5  C   UNL d   1      26.173 -13.513  -5.019  0.00  0.00     0.066 A 
ATOM      6  C   UNL d   1      26.076 -12.141  -5.307  0.00  0.00     0.020 A 
ATOM      7  C   UNL d   1      27.026 -11.507  -6.134  0.00  0.00     0.008 A 
ATOM      8  C   UNL d   1      28.098 -12.225  -6.676  0.00  0.00    -0.059 A 
ATOM      9  C   UNL d   1      29.137 -11.581  -7.554  0.00  0.00     0.048 C 
ATOM     10  C   UNL d   1      28.200 -13.590  -6.388  0.00  0.00     0.044 A 
ATOM     11  C   UNL d   1      27.248 -14.226  -5.574  0.00  0.00     0.082 A 
BRANCH  11  12
ATOM     12  O   UNL d   1      27.373 -15.572  -5.366  0.00  0.00    -0.360 OA
ATOM     13  H   UNL d   1      28.229 -15.758  -4.947  0.00  0.00     0.217 HD
ENDBRANCH  11  12
ENDBRANCH   2   5
BRANCH   1  14
ATOM     14  N   UNL d   1      24.779 -15.875  -2.397  0.00  0.00    -0.267 N 
ATOM     15  C   UNL d   1      25.301 -16.782  -1.485  0.00  0.00     0.239 C 
ATOM     16  O   UNL d   1      26.497 -17.077  -1.495  0.00  0.00    -0.271 OA
ATOM     17  H   UNL d   1      23.802 -15.590  -2.437  0.00  0.00     0.190 HD
BRANCH  15  18
ATOM     18  C   UNL d   1      24.295 -17.419  -0.494  0.00  0.00     0.075 C 
ATOM     19  C   UNL d   1      25.019 -18.200   0.604  0.00  0.00     0.020 C 
BRANCH  18  20
ATOM     20  C   UNL d   1      23.299 -18.351  -1.235  0.00  0.00     0.009 C 
ATOM     21  C   UNL d   1      21.986 -18.584  -0.488  0.00  0.00     0.006 C 
ENDBRANCH  18  20
ENDBRANCH  15  18
ENDBRANCH   1  14
TORSDOF 5
ENDMDL
MODEL 8
REMARK VINA RESULT:    -5.653      3.562      5.657
REMARK INTER + INTRA:          -8.968
REMARK INTER:                  -7.144
REMARK INTRA:                  -1.824
REMARK CONF_INDEPENDENT:        1.492
REMARK UNBOUND:                -1.824
REMARK  5 active torsions:
REMARK  status: ('A' for Active; 'I' for Inactive)
REMARK    1  A    between atoms: C_2  and  C_3 
REMARK    2  A    between atoms: C_3  and  C_5 
REMARK       I    between atoms: C_5  and  N_7 
REMARK    3  A    between atoms: N_7  and  N_8 
REMARK       I    between atoms: N_8  and  C_9 
REMARK    4  A    between atoms: C_9  and  C_11 
REMARK    5  A    between atoms: C_17  and  O_18 
ROOT
ATOM      1  N   UNL d   1      26.153 -15.953  -2.975  0.00  0.00    -0.263 N 
ATOM      2  C   UNL d   1      26.147 -16.201  -1.605  0.00  0.00     0.272 C 
ATOM      3  O   UNL d   1      27.112 -15.910  -0.893  0.00  0.00    -0.266 OA
ATOM      4  H   UNL d   1      25.357 -16.119  -3.587  0.00  0.00     0.190 HD
ENDROOT
BRANCH   2   5
ATOM      5  C   UNL d   1      24.930 -16.871  -1.028  0.00  0.00     0.066 A 
ATOM      6  C   UNL d   1      23.644 -16.373  -1.299  0.00  0.00     0.020 A 
ATOM      7  C   UNL d   1      22.496 -17.033  -0.817  0.00  0.00     0.008 A 
ATOM      8  C   UNL d   1      22.607 -18.211  -0.068  0.00  0.00    -0.059 A 
ATOM      9  C   UNL d   1      21.405 -18.950   0.454  0.00  0.00     0.048 C 
ATOM     10  C   UNL d   1      23.885 -18.713   0.199  0.00  0.00     0.044 A 
ATOM     11  C   UNL d   1      25.031 -18.049  -0.271  0.00  0.00     0.082 A 
BRANCH  11  12
ATOM     12  O   UNL d   1      26.255 -18.561   0.062  0.00  0.00    -0.360 OA
ATOM     13  H   UNL d   1      26.909 -17.844   0.096  0.00  0.00     0.217 HD
ENDBRANCH  11  12
ENDBRANCH   2   5
BRANCH   1  14
ATOM     14  N   UNL d   1      27.264 -15.277  -3.560  0.00  0.00    -0.267 N 
ATOM     15  C   UNL d   1      27.309 -15.117  -4.938  0.00  0.00     0.239 C 
ATOM     16  O   UNL d   1      26.423 -15.575  -5.661  0.00  0.00    -0.271 OA
ATOM     17  H   UNL d   1      27.964 -14.921  -2.911  0.00  0.00     0.190 HD
BRANCH  15  18
ATOM     18  C   UNL d   1      28.544 -14.371  -5.505  0.00  0.00     0.075 C 
ATOM     19  C   UNL d   1      28.122 -13.207  -6.402  0.00  0.00     0.020 C 
BRANCH  18  20
ATOM     20  C   UNL d   1      29.464 -15.340  -6.294  0.00  0.00     0.009 C 
ATOM     21  C   UNL d   1      30.032 -16.485  -5.457  0.00  0.00     0.006 C 
ENDBRANCH  18  20
ENDBRANCH  15  18
ENDBRANCH   1  14
TORSDOF 5
ENDMDL
MODEL 9
REMARK VINA RESULT:    -5.419      4.406      9.236
REMARK INTER + INTRA:          -8.726
REMARK INTER:                  -6.910
REMARK INTRA:                  -1.815
REMARK CONF_INDEPENDENT:        1.492
REMARK UNBOUND:                -1.815
REMARK  5 active torsions:
REMARK  status: ('A' for Active; 'I' for Inactive)
REMARK    1  A    between atoms: C_2  and  C_3 
REMARK    2  A    between atoms: C_3  and  C_5 
REMARK       I    between atoms: C_5  and  N_7 
REMARK    3  A    between atoms: N_7  and  N_8 
REMARK       I    between atoms: N_8  and  C_9 
REMARK    4  A    between atoms: C_9  and  C_11 
REMARK    5  A    between atoms: C_17  and  O_18 
ROOT
ATOM      1  N   UNL d   1      25.787 -15.070  -3.262  0.00  0.00    -0.263 N 
ATOM      2  C   UNL d   1      26.179 -14.971  -4.594  0.00  0.00     0.272 C 
ATOM      3  O   UNL d   1      26.163 -15.949  -5.346  0.00  0.00    -0.266 OA
ATOM      4  H   UNL d   1      25.726 -14.279  -2.626  0.00  0.00     0.190 HD
ENDROOT
BRANCH   2   5
ATOM      5  C   UNL d   1      26.660 -13.629  -5.076  0.00  0.00     0.066 A 
ATOM      6  C   UNL d   1      27.678 -13.538  -6.041  0.00  0.00     0.020 A 
ATOM      7  C   UNL d   1      28.087 -12.287  -6.545  0.00  0.00     0.008 A 
ATOM      8  C   UNL d   1      27.480 -11.104  -6.107  0.00  0.00    -0.059 A 
ATOM      9  C   UNL d   1      27.882  -9.751  -6.630  0.00  0.00     0.048 C 
ATOM     10  C   UNL d   1      26.463 -11.190  -5.150  0.00  0.00     0.044 A 
ATOM     11  C   UNL d   1      26.062 -12.436  -4.639  0.00  0.00     0.082 A 
BRANCH  11  12
ATOM     12  O   UNL d   1      25.097 -12.454  -3.670  0.00  0.00    -0.360 OA
ATOM     13  H   UNL d   1      24.415 -11.794  -3.877  0.00  0.00     0.217 HD
ENDBRANCH  11  12
ENDBRANCH   2   5
BRANCH   1  14
ATOM     14  N   UNL d   1      25.280 -16.310  -2.772  0.00  0.00    -0.267 N 
ATOM     15  C   UNL d   1      24.966 -16.427  -1.425  0.00  0.00     0.239 C 
ATOM     16  O   UNL d   1      25.147 -15.490  -0.646  0.00  0.00    -0.271 OA
ATOM     17  H   UNL d   1      25.151 -17.046  -3.464  0.00  0.00     0.190 HD
BRANCH  15  18
ATOM     18  C   UNL d   1      24.417 -17.800  -0.963  0.00  0.00     0.075 C 
ATOM     19  C   UNL d   1      22.889 -17.793  -0.901  0.00  0.00     0.020 C 
BRANCH  18  20
ATOM     20  C   UNL d   1      25.000 -18.194   0.421  0.00  0.00     0.009 C 
ATOM     21  C   UNL d   1      26.527 -18.226   0.470  0.00  0.00     0.006 C 
ENDBRANCH  18  20
ENDBRANCH  15  18
ENDBRANCH   1  14
TORSDOF 5
ENDMDL
