MODEL 1
REMARK VINA RESULT:    -8.074      0.000      0.000
REMARK INTER + INTRA:         -13.075
REMARK INTER:                 -10.759
REMARK INTRA:                  -2.316
REMARK CONF_INDEPENDENT:        2.685
REMARK UNBOUND:                -2.316
REMARK  9 active torsions:
REMARK  status: ('A' for Active; 'I' for Inactive)
REMARK    1  A    between atoms: C_2  and  O_3 
REMARK    2  A    between atoms: O_3  and  C_4 
REMARK    3  A    between atoms: C_4  and  C_6 
REMARK    4  A    between atoms: C_10  and  C_11 
REMARK    5  A    between atoms: C_11  and  O_13 
REMARK    6  A    between atoms: O_13  and  C_14 
REMARK    7  A    between atoms: C_14  and  C_15 
REMARK       I    between atoms: C_15  and  N_17 
REMARK    8  A    between atoms: N_17  and  N_18 
REMARK       I    between atoms: N_18  and  C_19 
REMARK    9  A    between atoms: C_19  and  C_21 
ROOT
ATOM      1  O   UNL d   1      25.807 -14.645  -1.408  0.00  0.00    -0.307 OA
ENDROOT
BRANCH   1   2
ATOM      2  C   UNL d   1      25.067 -14.447  -2.550  0.00  0.00     0.311 C 
ATOM      3  O   UNL d   1      23.875 -14.751  -2.602  0.00  0.00    -0.258 OA
BRANCH   2   4
ATOM      4  C   UNL d   1      25.827 -13.849  -3.672  0.00  0.00     0.115 A 
ATOM      5  N   UNL d   1      25.553 -12.661  -4.329  0.00  0.00    -0.354 N 
ATOM      6  C   UNL d   1      26.467 -12.412  -5.350  0.00  0.00     0.022 A 
ATOM      7  H   UNL d   1      24.768 -12.062  -4.108  0.00  0.00     0.166 HD
ATOM      8  C   UNL d   1      27.373 -13.466  -5.391  0.00  0.00     0.070 A 
ATOM      9  C   UNL d   1      26.330 -11.210  -6.222  0.00  0.00     0.069 C 
ATOM     10  C   UNL d   1      26.973 -14.353  -4.310  0.00  0.00    -0.011 A 
ATOM     11  C   UNL d   1      27.714 -15.605  -3.970  0.00  0.00     0.052 C 
BRANCH   8  12
ATOM     12  C   UNL d   1      28.474 -13.728  -6.358  0.00  0.00     0.295 C 
ATOM     13  O   UNL d   1      29.044 -12.814  -6.948  0.00  0.00    -0.259 OA
BRANCH  12  14
ATOM     14  O   UNL d   1      28.785 -15.052  -6.577  0.00  0.00    -0.318 OA
BRANCH  14  15
ATOM     15  C   UNL d   1      30.208 -15.327  -6.590  0.00  0.00     0.174 C 
ATOM     16  C   UNL d   1      30.475 -16.771  -6.191  0.00  0.00     0.034 C 
ENDBRANCH  14  15
ENDBRANCH  12  14
ENDBRANCH   8  12
ENDBRANCH   2   4
ENDBRANCH   1   2
BRANCH   1  17
ATOM     17  C   UNL d   1      26.194 -16.038  -1.149  0.00  0.00     0.283 C 
BRANCH  17  18
ATOM     18  C   UNL d   1      24.994 -16.914  -0.671  0.00  0.00     0.260 C 
ATOM     19  O   UNL d   1      25.153 -18.078  -0.291  0.00  0.00    -0.269 OA
ATOM     20  N   UNL d   1      23.717 -16.338  -0.681  0.00  0.00    -0.265 N 
ATOM     21  H   UNL d   1      23.498 -15.388  -0.981  0.00  0.00     0.190 HD
BRANCH  20  22
ATOM     22  N   UNL d   1      22.602 -17.120  -0.204  0.00  0.00    -0.263 N 
ATOM     23  C   UNL d   1      22.157 -18.235  -0.917  0.00  0.00     0.270 C 
ATOM     24  O   UNL d   1      22.655 -18.589  -1.982  0.00  0.00    -0.266 OA
ATOM     25  H   UNL d   1      22.267 -16.888   0.730  0.00  0.00     0.190 HD
BRANCH  23  26
ATOM     26  C   UNL d   1      21.031 -19.035  -0.314  0.00  0.00     0.033 A 
ATOM     27  C   UNL d   1      19.996 -19.555  -1.104  0.00  0.00     0.019 A 
ATOM     28  C   UNL d   1      18.953 -20.297  -0.520  0.00  0.00     0.025 A 
ATOM     29  C   UNL d   1      18.938 -20.526   0.854  0.00  0.00     0.034 A 
ATOM     30 CL   UNL d   1      17.631 -21.393   1.567  0.00  0.00    -0.084 Cl
ATOM     31  C   UNL d   1      19.979 -20.053   1.650  0.00  0.00     0.025 A 
ATOM     32  C   UNL d   1      21.029 -19.320   1.065  0.00  0.00     0.019 A 
ENDBRANCH  23  26
ENDBRANCH  20  22
ENDBRANCH  17  18
ENDBRANCH   1  17
TORSDOF 9
ENDMDL
MODEL 2
REMARK VINA RESULT:    -7.810      4.737      7.181
REMARK INTER + INTRA:         -12.785
REMARK INTER:                 -10.495
REMARK INTRA:                  -2.290
REMARK CONF_INDEPENDENT:        2.685
REMARK UNBOUND:                -2.290
REMARK  9 active torsions:
REMARK  status: ('A' for Active; 'I' for Inactive)
REMARK    1  A    between atoms: C_2  and  O_3 
REMARK    2  A    between atoms: O_3  and  C_4 
REMARK    3  A    between atoms: C_4  and  C_6 
REMARK    4  A    between atoms: C_10  and  C_11 
REMARK    5  A    between atoms: C_11  and  O_13 
REMARK    6  A    between atoms: O_13  and  C_14 
REMARK    7  A    between atoms: C_14  and  C_15 
REMARK       I    between atoms: C_15  and  N_17 
REMARK    8  A    between atoms: N_17  and  N_18 
REMARK       I    between atoms: N_18  and  C_19 
REMARK    9  A    between atoms: C_19  and  C_21 
ROOT
ATOM      1  O   UNL d   1      27.061 -15.288   0.068  0.00  0.00    -0.307 OA
ENDROOT
BRANCH   1   2
ATOM      2  C   UNL d   1      28.010 -14.353   0.409  0.00  0.00     0.311 C 
ATOM      3  O   UNL d   1      28.748 -13.850  -0.439  0.00  0.00    -0.258 OA
BRANCH   2   4
ATOM      4  C   UNL d   1      28.048 -14.022   1.852  0.00  0.00     0.115 A 
ATOM      5  N   UNL d   1      28.204 -14.904   2.909  0.00  0.00    -0.354 N 
ATOM      6  C   UNL d   1      28.175 -14.248   4.137  0.00  0.00     0.022 A 
ATOM      7  H   UNL d   1      28.301 -15.905   2.799  0.00  0.00     0.166 HD
ATOM      8  C   UNL d   1      27.982 -12.891   3.903  0.00  0.00     0.070 A 
ATOM      9  C   UNL d   1      28.274 -15.013   5.414  0.00  0.00     0.069 C 
ATOM     10  C   UNL d   1      27.929 -12.759   2.456  0.00  0.00    -0.011 A 
ATOM     11  C   UNL d   1      27.773 -11.443   1.766  0.00  0.00     0.052 C 
BRANCH   8  12
ATOM     12  C   UNL d   1      27.779 -11.784   4.877  0.00  0.00     0.295 C 
ATOM     13  O   UNL d   1      27.890 -10.607   4.547  0.00  0.00    -0.259 OA
BRANCH  12  14
ATOM     14  O   UNL d   1      27.499 -12.161   6.173  0.00  0.00    -0.318 OA
BRANCH  14  15
ATOM     15  C   UNL d   1      28.594 -11.946   7.097  0.00  0.00     0.174 C 
ATOM     16  C   UNL d   1      28.828 -13.189   7.943  0.00  0.00     0.034 C 
ENDBRANCH  14  15
ENDBRANCH  12  14
ENDBRANCH   8  12
ENDBRANCH   2   4
ENDBRANCH   1   2
BRANCH   1  17
ATOM     17  C   UNL d   1      27.462 -16.686   0.269  0.00  0.00     0.283 C 
BRANCH  17  18
ATOM     18  C   UNL d   1      26.245 -17.629   0.519  0.00  0.00     0.260 C 
ATOM     19  O   UNL d   1      26.374 -18.715   1.093  0.00  0.00    -0.269 OA
ATOM     20  N   UNL d   1      24.986 -17.207   0.071  0.00  0.00    -0.265 N 
ATOM     21  H   UNL d   1      24.793 -16.331  -0.412  0.00  0.00     0.190 HD
BRANCH  20  22
ATOM     22  N   UNL d   1      23.843 -18.049   0.330  0.00  0.00    -0.263 N 
ATOM     23  C   UNL d   1      22.558 -17.634  -0.025  0.00  0.00     0.270 C 
ATOM     24  O   UNL d   1      22.326 -16.541  -0.535  0.00  0.00    -0.266 OA
ATOM     25  H   UNL d   1      24.053 -18.994   0.650  0.00  0.00     0.190 HD
BRANCH  23  26
ATOM     26  C   UNL d   1      21.428 -18.601   0.219  0.00  0.00     0.033 A 
ATOM     27  C   UNL d   1      21.028 -18.950   1.516  0.00  0.00     0.019 A 
ATOM     28  C   UNL d   1      19.973 -19.858   1.720  0.00  0.00     0.025 A 
ATOM     29  C   UNL d   1      19.309 -20.420   0.631  0.00  0.00     0.034 A 
ATOM     30 CL   UNL d   1      18.051 -21.568   0.891  0.00  0.00    -0.084 Cl
ATOM     31  C   UNL d   1      19.665 -20.054  -0.665  0.00  0.00     0.025 A 
ATOM     32  C   UNL d   1      20.713 -19.137  -0.870  0.00  0.00     0.019 A 
ENDBRANCH  23  26
ENDBRANCH  20  22
ENDBRANCH  17  18
ENDBRANCH   1  17
TORSDOF 9
ENDMDL
MODEL 3
REMARK VINA RESULT:    -7.682      4.093      9.020
REMARK INTER + INTRA:         -13.216
REMARK INTER:                 -10.367
REMARK INTRA:                  -2.849
REMARK CONF_INDEPENDENT:        2.685
REMARK UNBOUND:                -2.849
REMARK  9 active torsions:
REMARK  status: ('A' for Active; 'I' for Inactive)
REMARK    1  A    between atoms: C_2  and  O_3 
REMARK    2  A    between atoms: O_3  and  C_4 
REMARK    3  A    between atoms: C_4  and  C_6 
REMARK    4  A    between atoms: C_10  and  C_11 
REMARK    5  A    between atoms: C_11  and  O_13 
REMARK    6  A    between atoms: O_13  and  C_14 
REMARK    7  A    between atoms: C_14  and  C_15 
REMARK       I    between atoms: C_15  and  N_17 
REMARK    8  A    between atoms: N_17  and  N_18 
REMARK       I    between atoms: N_18  and  C_19 
REMARK    9  A    between atoms: C_19  and  C_21 
ROOT
ATOM      1  O   UNL d   1      26.311 -12.978  -4.144  0.00  0.00    -0.307 OA
ENDROOT
BRANCH   1   2
ATOM      2  C   UNL d   1      25.500 -14.066  -3.923  0.00  0.00     0.311 C 
ATOM      3  O   UNL d   1      24.404 -14.171  -4.473  0.00  0.00    -0.258 OA
BRANCH   2   4
ATOM      4  C   UNL d   1      26.065 -15.067  -2.988  0.00  0.00     0.115 A 
ATOM      5  N   UNL d   1      27.384 -15.480  -2.901  0.00  0.00    -0.354 N 
ATOM      6  C   UNL d   1      27.557 -16.451  -1.917  0.00  0.00     0.022 A 
ATOM      7  H   UNL d   1      28.124 -15.136  -3.499  0.00  0.00     0.166 HD
ATOM      8  C   UNL d   1      26.321 -16.707  -1.335  0.00  0.00     0.070 A 
ATOM      9  C   UNL d   1      28.892 -17.076  -1.687  0.00  0.00     0.069 C 
ATOM     10  C   UNL d   1      25.392 -15.809  -2.002  0.00  0.00    -0.011 A 
ATOM     11  C   UNL d   1      23.944 -15.727  -1.646  0.00  0.00     0.052 C 
BRANCH   8  12
ATOM     12  C   UNL d   1      25.951 -17.726  -0.314  0.00  0.00     0.295 C 
ATOM     13  O   UNL d   1      26.576 -17.840   0.738  0.00  0.00    -0.259 OA
BRANCH  12  14
ATOM     14  O   UNL d   1      24.897 -18.552  -0.636  0.00  0.00    -0.318 OA
BRANCH  14  15
ATOM     15  C   UNL d   1      23.745 -18.400   0.230  0.00  0.00     0.174 C 
ATOM     16  C   UNL d   1      22.457 -18.568  -0.563  0.00  0.00     0.034 C 
ENDBRANCH  14  15
ENDBRANCH  12  14
ENDBRANCH   8  12
ENDBRANCH   2   4
ENDBRANCH   1   2
BRANCH   1  17
ATOM     17  C   UNL d   1      26.962 -12.942  -5.460  0.00  0.00     0.283 C 
BRANCH  17  18
ATOM     18  C   UNL d   1      27.672 -14.285  -5.815  0.00  0.00     0.260 C 
ATOM     19  O   UNL d   1      27.153 -15.377  -5.566  0.00  0.00    -0.269 OA
ATOM     20  N   UNL d   1      28.928 -14.219  -6.432  0.00  0.00    -0.265 N 
ATOM     21  H   UNL d   1      29.427 -13.362  -6.669  0.00  0.00     0.190 HD
BRANCH  20  22
ATOM     22  N   UNL d   1      29.581 -15.451  -6.803  0.00  0.00    -0.263 N 
ATOM     23  C   UNL d   1      29.840 -16.436  -5.849  0.00  0.00     0.270 C 
ATOM     24  O   UNL d   1      29.563 -16.303  -4.659  0.00  0.00    -0.266 OA
ATOM     25  H   UNL d   1      29.707 -15.600  -7.804  0.00  0.00     0.190 HD
BRANCH  23  26
ATOM     26  C   UNL d   1      30.464 -17.720  -6.333  0.00  0.00     0.033 A 
ATOM     27  C   UNL d   1      31.155 -17.785  -7.551  0.00  0.00     0.019 A 
ATOM     28  C   UNL d   1      31.728 -18.994  -7.985  0.00  0.00     0.025 A 
ATOM     29  C   UNL d   1      31.617 -20.144  -7.206  0.00  0.00     0.034 A 
ATOM     30 CL   UNL d   1      32.278 -21.632  -7.769  0.00  0.00    -0.084 Cl
ATOM     31  C   UNL d   1      30.969 -20.089  -5.973  0.00  0.00     0.025 A 
ATOM     32  C   UNL d   1      30.406 -18.877  -5.533  0.00  0.00     0.019 A 
ENDBRANCH  23  26
ENDBRANCH  20  22
ENDBRANCH  17  18
ENDBRANCH   1  17
TORSDOF 9
ENDMDL
MODEL 4
REMARK VINA RESULT:    -7.612      1.147      2.107
REMARK INTER + INTRA:         -12.817
REMARK INTER:                 -10.297
REMARK INTRA:                  -2.520
REMARK CONF_INDEPENDENT:        2.685
REMARK UNBOUND:                -2.520
REMARK  9 active torsions:
REMARK  status: ('A' for Active; 'I' for Inactive)
REMARK    1  A    between atoms: C_2  and  O_3 
REMARK    2  A    between atoms: O_3  and  C_4 
REMARK    3  A    between atoms: C_4  and  C_6 
REMARK    4  A    between atoms: C_10  and  C_11 
REMARK    5  A    between atoms: C_11  and  O_13 
REMARK    6  A    between atoms: O_13  and  C_14 
REMARK    7  A    between atoms: C_14  and  C_15 
REMARK       I    between atoms: C_15  and  N_17 
REMARK    8  A    between atoms: N_17  and  N_18 
REMARK       I    between atoms: N_18  and  C_19 
REMARK    9  A    between atoms: C_19  and  C_21 
ROOT
ATOM      1  O   UNL d   1      26.016 -14.756  -1.304  0.00  0.00    -0.307 OA
ENDROOT
BRANCH   1   2
ATOM      2  C   UNL d   1      25.510 -14.764  -2.582  0.00  0.00     0.311 C 
ATOM      3  O   UNL d   1      24.297 -14.776  -2.792  0.00  0.00    -0.258 OA
BRANCH   2   4
ATOM      4  C   UNL d   1      26.542 -14.755  -3.645  0.00  0.00     0.115 A 
ATOM      5  N   UNL d   1      27.583 -15.653  -3.809  0.00  0.00    -0.354 N 
ATOM      6  C   UNL d   1      28.375 -15.331  -4.908  0.00  0.00     0.022 A 
ATOM      7  H   UNL d   1      27.758 -16.433  -3.188  0.00  0.00     0.166 HD
ATOM      8  C   UNL d   1      27.863 -14.178  -5.492  0.00  0.00     0.070 A 
ATOM      9  C   UNL d   1      29.585 -16.138  -5.241  0.00  0.00     0.069 C 
ATOM     10  C   UNL d   1      26.691 -13.839  -4.700  0.00  0.00    -0.011 A 
ATOM     11  C   UNL d   1      25.808 -12.676  -5.014  0.00  0.00     0.052 C 
BRANCH   8  12
ATOM     12  C   UNL d   1      28.401 -13.373  -6.623  0.00  0.00     0.295 C 
ATOM     13  O   UNL d   1      27.891 -12.305  -6.953  0.00  0.00    -0.259 OA
BRANCH  12  14
ATOM     14  O   UNL d   1      29.473 -13.916  -7.297  0.00  0.00    -0.318 OA
BRANCH  14  15
ATOM     15  C   UNL d   1      30.725 -13.223  -7.064  0.00  0.00     0.174 C 
ATOM     16  C   UNL d   1      31.621 -13.318  -8.290  0.00  0.00     0.034 C 
ENDBRANCH  14  15
ENDBRANCH  12  14
ENDBRANCH   8  12
ENDBRANCH   2   4
ENDBRANCH   1   2
BRANCH   1  17
ATOM     17  C   UNL d   1      26.400 -16.072  -0.776  0.00  0.00     0.283 C 
BRANCH  17  18
ATOM     18  C   UNL d   1      25.171 -16.918  -0.322  0.00  0.00     0.260 C 
ATOM     19  O   UNL d   1      25.308 -18.007   0.243  0.00  0.00    -0.269 OA
ATOM     20  N   UNL d   1      23.893 -16.404  -0.573  0.00  0.00    -0.265 N 
ATOM     21  H   UNL d   1      23.691 -15.517  -1.034  0.00  0.00     0.190 HD
BRANCH  20  22
ATOM     22  N   UNL d   1      22.745 -17.155  -0.123  0.00  0.00    -0.263 N 
ATOM     23  C   UNL d   1      22.242 -18.211  -0.885  0.00  0.00     0.270 C 
ATOM     24  O   UNL d   1      22.714 -18.536  -1.971  0.00  0.00    -0.266 OA
ATOM     25  H   UNL d   1      22.428 -16.953   0.825  0.00  0.00     0.190 HD
BRANCH  23  26
ATOM     26  C   UNL d   1      21.083 -18.986  -0.310  0.00  0.00     0.033 A 
ATOM     27  C   UNL d   1      21.030 -19.325   1.049  0.00  0.00     0.019 A 
ATOM     28  C   UNL d   1      19.940 -20.050   1.563  0.00  0.00     0.025 A 
ATOM     29  C   UNL d   1      18.897 -20.439   0.725  0.00  0.00     0.034 A 
ATOM     30 CL   UNL d   1      17.591 -21.370   1.355  0.00  0.00    -0.084 Cl
ATOM     31  C   UNL d   1      18.912 -20.076  -0.619  0.00  0.00     0.025 A 
ATOM     32  C   UNL d   1      19.996 -19.340  -1.133  0.00  0.00     0.019 A 
ENDBRANCH  23  26
ENDBRANCH  20  22
ENDBRANCH  17  18
ENDBRANCH   1  17
TORSDOF 9
ENDMDL
MODEL 5
REMARK VINA RESULT:    -7.412      1.997      2.540
REMARK INTER + INTRA:         -13.167
REMARK INTER:                 -10.096
REMARK INTRA:                  -3.070
REMARK CONF_INDEPENDENT:        2.685
REMARK UNBOUND:                -3.070
REMARK  9 active torsions:
REMARK  status: ('A' for Active; 'I' for Inactive)
REMARK    1  A    between atoms: C_2  and  O_3 
REMARK    2  A    between atoms: O_3  and  C_4 
REMARK    3  A    between atoms: C_4  and  C_6 
REMARK    4  A    between atoms: C_10  and  C_11 
REMARK    5  A    between atoms: C_11  and  O_13 
REMARK    6  A    between atoms: O_13  and  C_14 
REMARK    7  A    between atoms: C_14  and  C_15 
REMARK       I    between atoms: C_15  and  N_17 
REMARK    8  A    between atoms: N_17  and  N_18 
REMARK       I    between atoms: N_18  and  C_19 
REMARK    9  A    between atoms: C_19  and  C_21 
ROOT
ATOM      1  O   UNL d   1      27.667 -15.723   0.437  0.00  0.00    -0.307 OA
ENDROOT
BRANCH   1   2
ATOM      2  C   UNL d   1      27.007 -14.982  -0.514  0.00  0.00     0.311 C 
ATOM      3  O   UNL d   1      25.928 -14.442  -0.272  0.00  0.00    -0.258 OA
BRANCH   2   4
ATOM      4  C   UNL d   1      27.709 -14.899  -1.816  0.00  0.00     0.115 A 
ATOM      5  N   UNL d   1      28.978 -14.396  -2.053  0.00  0.00    -0.354 N 
ATOM      6  C   UNL d   1      29.314 -14.457  -3.403  0.00  0.00     0.022 A 
ATOM      7  H   UNL d   1      29.574 -14.007  -1.333  0.00  0.00     0.166 HD
ATOM      8  C   UNL d   1      28.240 -15.004  -4.096  0.00  0.00     0.070 A 
ATOM      9  C   UNL d   1      30.618 -13.920  -3.891  0.00  0.00     0.069 C 
ATOM     10  C   UNL d   1      27.243 -15.302  -3.079  0.00  0.00    -0.011 A 
ATOM     11  C   UNL d   1      25.934 -15.948  -3.391  0.00  0.00     0.052 C 
BRANCH   8  12
ATOM     12  C   UNL d   1      28.057 -15.187  -5.562  0.00  0.00     0.295 C 
ATOM     13  O   UNL d   1      26.942 -15.176  -6.078  0.00  0.00    -0.259 OA
BRANCH  12  14
ATOM     14  O   UNL d   1      29.203 -15.408  -6.293  0.00  0.00    -0.318 OA
BRANCH  14  15
ATOM     15  C   UNL d   1      30.107 -16.370  -5.692  0.00  0.00     0.174 C 
ATOM     16  C   UNL d   1      30.404 -17.501  -6.667  0.00  0.00     0.034 C 
ENDBRANCH  14  15
ENDBRANCH  12  14
ENDBRANCH   8  12
ENDBRANCH   2   4
ENDBRANCH   1   2
BRANCH   1  17
ATOM     17  C   UNL d   1      27.875 -17.136   0.093  0.00  0.00     0.283 C 
BRANCH  17  18
ATOM     18  C   UNL d   1      26.575 -17.986   0.238  0.00  0.00     0.260 C 
ATOM     19  O   UNL d   1      26.610 -19.165   0.602  0.00  0.00    -0.269 OA
ATOM     20  N   UNL d   1      25.353 -17.369  -0.057  0.00  0.00    -0.265 N 
ATOM     21  H   UNL d   1      25.235 -16.404  -0.366  0.00  0.00     0.190 HD
BRANCH  20  22
ATOM     22  N   UNL d   1      24.136 -18.128   0.110  0.00  0.00    -0.263 N 
ATOM     23  C   UNL d   1      22.907 -17.602  -0.290  0.00  0.00     0.270 C 
ATOM     24  O   UNL d   1      22.785 -16.476  -0.766  0.00  0.00    -0.266 OA
ATOM     25  H   UNL d   1      24.258 -19.098   0.401  0.00  0.00     0.190 HD
BRANCH  23  26
ATOM     26  C   UNL d   1      21.696 -18.487  -0.142  0.00  0.00     0.033 A 
ATOM     27  C   UNL d   1      21.275 -18.950   1.113  0.00  0.00     0.019 A 
ATOM     28  C   UNL d   1      20.143 -19.777   1.227  0.00  0.00     0.025 A 
ATOM     29  C   UNL d   1      19.424 -20.146   0.092  0.00  0.00     0.034 A 
ATOM     30 CL   UNL d   1      18.070 -21.200   0.237  0.00  0.00    -0.084 Cl
ATOM     31  C   UNL d   1      19.803 -19.663  -1.159  0.00  0.00     0.025 A 
ATOM     32  C   UNL d   1      20.929 -18.825  -1.273  0.00  0.00     0.019 A 
ENDBRANCH  23  26
ENDBRANCH  20  22
ENDBRANCH  17  18
ENDBRANCH   1  17
TORSDOF 9
ENDMDL
MODEL 6
REMARK VINA RESULT:    -7.337      2.649      4.132
REMARK INTER + INTRA:         -13.319
REMARK INTER:                 -10.022
REMARK INTRA:                  -3.298
REMARK CONF_INDEPENDENT:        2.685
REMARK UNBOUND:                -3.298
REMARK  9 active torsions:
REMARK  status: ('A' for Active; 'I' for Inactive)
REMARK    1  A    between atoms: C_2  and  O_3 
REMARK    2  A    between atoms: O_3  and  C_4 
REMARK    3  A    between atoms: C_4  and  C_6 
REMARK    4  A    between atoms: C_10  and  C_11 
REMARK    5  A    between atoms: C_11  and  O_13 
REMARK    6  A    between atoms: O_13  and  C_14 
REMARK    7  A    between atoms: C_14  and  C_15 
REMARK       I    between atoms: C_15  and  N_17 
REMARK    8  A    between atoms: N_17  and  N_18 
REMARK       I    between atoms: N_18  and  C_19 
REMARK    9  A    between atoms: C_19  and  C_21 
ROOT
ATOM      1  O   UNL d   1      29.041 -11.955  -0.151  0.00  0.00    -0.307 OA
ENDROOT
BRANCH   1   2
ATOM      2  C   UNL d   1      28.059 -11.807  -1.102  0.00  0.00     0.311 C 
ATOM      3  O   UNL d   1      27.392 -10.775  -1.180  0.00  0.00    -0.258 OA
BRANCH   2   4
ATOM      4  C   UNL d   1      27.893 -12.978  -1.994  0.00  0.00     0.115 A 
ATOM      5  N   UNL d   1      28.695 -14.106  -2.052  0.00  0.00    -0.354 N 
ATOM      6  C   UNL d   1      28.256 -15.002  -3.023  0.00  0.00     0.022 A 
ATOM      7  H   UNL d   1      29.515 -14.246  -1.475  0.00  0.00     0.166 HD
ATOM      8  C   UNL d   1      27.137 -14.460  -3.644  0.00  0.00     0.070 A 
ATOM      9  C   UNL d   1      29.004 -16.265  -3.291  0.00  0.00     0.069 C 
ATOM     10  C   UNL d   1      26.904 -13.193  -2.968  0.00  0.00    -0.011 A 
ATOM     11  C   UNL d   1      25.759 -12.294  -3.301  0.00  0.00     0.052 C 
BRANCH   8  12
ATOM     12  C   UNL d   1      26.361 -14.971  -4.807  0.00  0.00     0.295 C 
ATOM     13  O   UNL d   1      25.158 -15.206  -4.725  0.00  0.00    -0.259 OA
BRANCH  12  14
ATOM     14  O   UNL d   1      27.078 -15.200  -5.960  0.00  0.00    -0.318 OA
BRANCH  14  15
ATOM     15  C   UNL d   1      28.147 -14.247  -6.187  0.00  0.00     0.174 C 
ATOM     16  C   UNL d   1      29.350 -14.936  -6.814  0.00  0.00     0.034 C 
ENDBRANCH  14  15
ENDBRANCH  12  14
ENDBRANCH   8  12
ENDBRANCH   2   4
ENDBRANCH   1   2
BRANCH   1  17
ATOM     17  C   UNL d   1      28.607 -12.588   1.101  0.00  0.00     0.283 C 
BRANCH  17  18
ATOM     18  C   UNL d   1      27.242 -13.329   0.956  0.00  0.00     0.260 C 
ATOM     19  O   UNL d   1      26.190 -12.833   1.370  0.00  0.00    -0.269 OA
ATOM     20  N   UNL d   1      27.240 -14.584   0.335  0.00  0.00    -0.265 N 
ATOM     21  H   UNL d   1      28.061 -15.065  -0.031  0.00  0.00     0.190 HD
BRANCH  20  22
ATOM     22  N   UNL d   1      25.980 -15.265   0.157  0.00  0.00    -0.263 N 
ATOM     23  C   UNL d   1      25.923 -16.499  -0.494  0.00  0.00     0.270 C 
ATOM     24  O   UNL d   1      26.912 -17.050  -0.970  0.00  0.00    -0.266 OA
ATOM     25  H   UNL d   1      25.185 -14.859   0.648  0.00  0.00     0.190 HD
BRANCH  23  26
ATOM     26  C   UNL d   1      24.577 -17.173  -0.578  0.00  0.00     0.033 A 
ATOM     27  C   UNL d   1      24.440 -18.559  -0.414  0.00  0.00     0.019 A 
ATOM     28  C   UNL d   1      23.175 -19.168  -0.499  0.00  0.00     0.025 A 
ATOM     29  C   UNL d   1      22.040 -18.398  -0.745  0.00  0.00     0.034 A 
ATOM     30 CL   UNL d   1      20.502 -19.159  -0.896  0.00  0.00    -0.084 Cl
ATOM     31  C   UNL d   1      22.151 -17.015  -0.870  0.00  0.00     0.025 A 
ATOM     32  C   UNL d   1      23.415 -16.404  -0.774  0.00  0.00     0.019 A 
ENDBRANCH  23  26
ENDBRANCH  20  22
ENDBRANCH  17  18
ENDBRANCH   1  17
TORSDOF 9
ENDMDL
MODEL 7
REMARK VINA RESULT:    -7.248      2.592      3.799
REMARK INTER + INTRA:         -13.194
REMARK INTER:                  -9.932
REMARK INTRA:                  -3.261
REMARK CONF_INDEPENDENT:        2.685
REMARK UNBOUND:                -3.261
REMARK  9 active torsions:
REMARK  status: ('A' for Active; 'I' for Inactive)
REMARK    1  A    between atoms: C_2  and  O_3 
REMARK    2  A    between atoms: O_3  and  C_4 
REMARK    3  A    between atoms: C_4  and  C_6 
REMARK    4  A    between atoms: C_10  and  C_11 
REMARK    5  A    between atoms: C_11  and  O_13 
REMARK    6  A    between atoms: O_13  and  C_14 
REMARK    7  A    between atoms: C_14  and  C_15 
REMARK       I    between atoms: C_15  and  N_17 
REMARK    8  A    between atoms: N_17  and  N_18 
REMARK       I    between atoms: N_18  and  C_19 
REMARK    9  A    between atoms: C_19  and  C_21 
ROOT
ATOM      1  O   UNL d   1      29.148 -12.375  -0.015  0.00  0.00    -0.307 OA
ENDROOT
BRANCH   1   2
ATOM      2  C   UNL d   1      29.373 -13.338  -0.970  0.00  0.00     0.311 C 
ATOM      3  O   UNL d   1      30.309 -14.132  -0.871  0.00  0.00    -0.258 OA
BRANCH   2   4
ATOM      4  C   UNL d   1      28.405 -13.322  -2.091  0.00  0.00     0.115 A 
ATOM      5  N   UNL d   1      27.659 -12.245  -2.537  0.00  0.00    -0.354 N 
ATOM      6  C   UNL d   1      26.835 -12.594  -3.604  0.00  0.00     0.022 A 
ATOM      7  H   UNL d   1      27.692 -11.323  -2.119  0.00  0.00     0.166 HD
ATOM      8  C   UNL d   1      27.020 -13.944  -3.875  0.00  0.00     0.070 A 
ATOM      9  C   UNL d   1      25.904 -11.596  -4.209  0.00  0.00     0.069 C 
ATOM     10  C   UNL d   1      28.033 -14.386  -2.930  0.00  0.00    -0.011 A 
ATOM     11  C   UNL d   1      28.566 -15.781  -2.904  0.00  0.00     0.052 C 
BRANCH   8  12
ATOM     12  C   UNL d   1      26.307 -14.819  -4.846  0.00  0.00     0.295 C 
ATOM     13  O   UNL d   1      25.157 -15.200  -4.645  0.00  0.00    -0.259 OA
BRANCH  12  14
ATOM     14  O   UNL d   1      27.027 -15.205  -5.956  0.00  0.00    -0.318 OA
BRANCH  14  15
ATOM     15  C   UNL d   1      28.206 -14.398  -6.201  0.00  0.00     0.174 C 
ATOM     16  C   UNL d   1      29.467 -15.227  -6.006  0.00  0.00     0.034 C 
ENDBRANCH  14  15
ENDBRANCH  12  14
ENDBRANCH   8  12
ENDBRANCH   2   4
ENDBRANCH   1   2
BRANCH   1  17
ATOM     17  C   UNL d   1      28.641 -12.876   1.269  0.00  0.00     0.283 C 
BRANCH  17  18
ATOM     18  C   UNL d   1      27.267 -13.602   1.129  0.00  0.00     0.260 C 
ATOM     19  O   UNL d   1      26.261 -13.203   1.723  0.00  0.00    -0.269 OA
ATOM     20  N   UNL d   1      27.203 -14.728   0.299  0.00  0.00    -0.265 N 
ATOM     21  H   UNL d   1      27.984 -15.124  -0.224  0.00  0.00     0.190 HD
BRANCH  20  22
ATOM     22  N   UNL d   1      25.931 -15.388   0.126  0.00  0.00    -0.263 N 
ATOM     23  C   UNL d   1      25.853 -16.631  -0.503  0.00  0.00     0.270 C 
ATOM     24  O   UNL d   1      26.833 -17.210  -0.964  0.00  0.00    -0.266 OA
ATOM     25  H   UNL d   1      25.141 -14.957   0.606  0.00  0.00     0.190 HD
BRANCH  23  26
ATOM     26  C   UNL d   1      24.495 -17.281  -0.582  0.00  0.00     0.033 A 
ATOM     27  C   UNL d   1      23.336 -16.531  -0.827  0.00  0.00     0.019 A 
ATOM     28  C   UNL d   1      22.079 -17.157  -0.894  0.00  0.00     0.025 A 
ATOM     29  C   UNL d   1      21.970 -18.536  -0.720  0.00  0.00     0.034 A 
ATOM     30 CL   UNL d   1      20.420 -19.287  -0.755  0.00  0.00    -0.084 Cl
ATOM     31  C   UNL d   1      23.115 -19.304  -0.517  0.00  0.00     0.025 A 
ATOM     32  C   UNL d   1      24.375 -18.679  -0.461  0.00  0.00     0.019 A 
ENDBRANCH  23  26
ENDBRANCH  20  22
ENDBRANCH  17  18
ENDBRANCH   1  17
TORSDOF 9
ENDMDL
MODEL 8
REMARK VINA RESULT:    -6.520      2.589      3.945
REMARK INTER + INTRA:         -12.898
REMARK INTER:                  -9.205
REMARK INTRA:                  -3.693
REMARK CONF_INDEPENDENT:        2.685
REMARK UNBOUND:                -3.693
REMARK  9 active torsions:
REMARK  status: ('A' for Active; 'I' for Inactive)
REMARK    1  A    between atoms: C_2  and  O_3 
REMARK    2  A    between atoms: O_3  and  C_4 
REMARK    3  A    between atoms: C_4  and  C_6 
REMARK    4  A    between atoms: C_10  and  C_11 
REMARK    5  A    between atoms: C_11  and  O_13 
REMARK    6  A    between atoms: O_13  and  C_14 
REMARK    7  A    between atoms: C_14  and  C_15 
REMARK       I    between atoms: C_15  and  N_17 
REMARK    8  A    between atoms: N_17  and  N_18 
REMARK       I    between atoms: N_18  and  C_19 
REMARK    9  A    between atoms: C_19  and  C_21 
ROOT
ATOM      1  O   UNL d   1      30.235 -14.813  -0.250  0.00  0.00    -0.307 OA
ENDROOT
BRANCH   1   2
ATOM      2  C   UNL d   1      29.712 -15.663  -1.196  0.00  0.00     0.311 C 
ATOM      3  O   UNL d   1      29.997 -16.861  -1.209  0.00  0.00    -0.258 OA
BRANCH   2   4
ATOM      4  C   UNL d   1      28.799 -15.011  -2.163  0.00  0.00     0.115 A 
ATOM      5  N   UNL d   1      27.692 -14.231  -1.874  0.00  0.00    -0.354 N 
ATOM      6  C   UNL d   1      27.053 -13.793  -3.032  0.00  0.00     0.022 A 
ATOM      7  H   UNL d   1      27.375 -14.028  -0.935  0.00  0.00     0.166 HD
ATOM      8  C   UNL d   1      27.739 -14.302  -4.128  0.00  0.00     0.070 A 
ATOM      9  C   UNL d   1      25.805 -12.979  -2.953  0.00  0.00     0.069 C 
ATOM     10  C   UNL d   1      28.854 -15.048  -3.567  0.00  0.00    -0.011 A 
ATOM     11  C   UNL d   1      29.881 -15.730  -4.410  0.00  0.00     0.052 C 
BRANCH   8  12
ATOM     12  C   UNL d   1      27.405 -14.211  -5.576  0.00  0.00     0.295 C 
ATOM     13  O   UNL d   1      27.419 -15.200  -6.304  0.00  0.00    -0.259 OA
BRANCH  12  14
ATOM     14  O   UNL d   1      27.119 -12.951  -6.054  0.00  0.00    -0.318 OA
BRANCH  14  15
ATOM     15  C   UNL d   1      28.199 -12.352  -6.813  0.00  0.00     0.174 C 
ATOM     16  C   UNL d   1      28.764 -11.147  -6.076  0.00  0.00     0.034 C 
ENDBRANCH  14  15
ENDBRANCH  12  14
ENDBRANCH   8  12
ENDBRANCH   2   4
ENDBRANCH   1   2
BRANCH   1  17
ATOM     17  C   UNL d   1      29.553 -14.832   1.050  0.00  0.00     0.283 C 
BRANCH  17  18
ATOM     18  C   UNL d   1      28.103 -15.401   0.959  0.00  0.00     0.260 C 
ATOM     19  O   UNL d   1      27.114 -14.686   1.146  0.00  0.00    -0.269 OA
ATOM     20  N   UNL d   1      27.950 -16.759   0.652  0.00  0.00    -0.265 N 
ATOM     21  H   UNL d   1      28.711 -17.418   0.485  0.00  0.00     0.190 HD
BRANCH  20  22
ATOM     22  N   UNL d   1      26.615 -17.293   0.523  0.00  0.00    -0.263 N 
ATOM     23  C   UNL d   1      25.690 -16.698  -0.336  0.00  0.00     0.270 C 
ATOM     24  O   UNL d   1      25.939 -15.691  -0.993  0.00  0.00    -0.266 OA
ATOM     25  H   UNL d   1      26.451 -18.188   0.984  0.00  0.00     0.190 HD
BRANCH  23  26
ATOM     26  C   UNL d   1      24.341 -17.359  -0.461  0.00  0.00     0.033 A 
ATOM     27  C   UNL d   1      24.174 -18.733  -0.238  0.00  0.00     0.019 A 
ATOM     28  C   UNL d   1      22.906 -19.329  -0.363  0.00  0.00     0.025 A 
ATOM     29  C   UNL d   1      21.798 -18.558  -0.709  0.00  0.00     0.034 A 
ATOM     30 CL   UNL d   1      20.259 -19.306  -0.909  0.00  0.00    -0.084 Cl
ATOM     31  C   UNL d   1      21.936 -17.185  -0.895  0.00  0.00     0.025 A 
ATOM     32  C   UNL d   1      23.203 -16.585  -0.759  0.00  0.00     0.019 A 
ENDBRANCH  23  26
ENDBRANCH  20  22
ENDBRANCH  17  18
ENDBRANCH   1  17
TORSDOF 9
ENDMDL
MODEL 9
REMARK VINA RESULT:    -6.267      3.121      4.890
REMARK INTER + INTRA:         -12.604
REMARK INTER:                  -8.952
REMARK INTRA:                  -3.652
REMARK CONF_INDEPENDENT:        2.685
REMARK UNBOUND:                -3.652
REMARK  9 active torsions:
REMARK  status: ('A' for Active; 'I' for Inactive)
REMARK    1  A    between atoms: C_2  and  O_3 
REMARK    2  A    between atoms: O_3  and  C_4 
REMARK    3  A    between atoms: C_4  and  C_6 
REMARK    4  A    between atoms: C_10  and  C_11 
REMARK    5  A    between atoms: C_11  and  O_13 
REMARK    6  A    between atoms: O_13  and  C_14 
REMARK    7  A    between atoms: C_14  and  C_15 
REMARK       I    between atoms: C_15  and  N_17 
REMARK    8  A    between atoms: N_17  and  N_18 
REMARK       I    between atoms: N_18  and  C_19 
REMARK    9  A    between atoms: C_19  and  C_21 
ROOT
ATOM      1  O   UNL d   1      31.408 -15.497  -0.619  0.00  0.00    -0.307 OA
ENDROOT
BRANCH   1   2
ATOM      2  C   UNL d   1      31.319 -15.008  -1.901  0.00  0.00     0.311 C 
ATOM      3  O   UNL d   1      32.318 -14.880  -2.609  0.00  0.00    -0.258 OA
BRANCH   2   4
ATOM      4  C   UNL d   1      29.943 -14.665  -2.327  0.00  0.00     0.115 A 
ATOM      5  N   UNL d   1      29.147 -13.640  -1.842  0.00  0.00    -0.354 N 
ATOM      6  C   UNL d   1      27.899 -13.619  -2.460  0.00  0.00     0.022 A 
ATOM      7  H   UNL d   1      29.432 -13.002  -1.110  0.00  0.00     0.166 HD
ATOM      8  C   UNL d   1      27.847 -14.664  -3.375  0.00  0.00     0.070 A 
ATOM      9  C   UNL d   1      26.861 -12.627  -2.053  0.00  0.00     0.069 C 
ATOM     10  C   UNL d   1      29.153 -15.301  -3.300  0.00  0.00    -0.011 A 
ATOM     11  C   UNL d   1      29.543 -16.457  -4.161  0.00  0.00     0.052 C 
BRANCH   8  12
ATOM     12  C   UNL d   1      26.708 -15.132  -4.211  0.00  0.00     0.295 C 
ATOM     13  O   UNL d   1      26.859 -15.447  -5.389  0.00  0.00    -0.259 OA
BRANCH  12  14
ATOM     14  O   UNL d   1      25.474 -15.152  -3.598  0.00  0.00    -0.318 OA
BRANCH  14  15
ATOM     15  C   UNL d   1      24.596 -14.075  -4.010  0.00  0.00     0.174 C 
ATOM     16  C   UNL d   1      25.389 -12.976  -4.702  0.00  0.00     0.034 C 
ENDBRANCH  14  15
ENDBRANCH  12  14
ENDBRANCH   8  12
ENDBRANCH   2   4
ENDBRANCH   1   2
BRANCH   1  17
ATOM     17  C   UNL d   1      31.395 -16.962  -0.508  0.00  0.00     0.283 C 
BRANCH  17  18
ATOM     18  C   UNL d   1      29.955 -17.557  -0.603  0.00  0.00     0.260 C 
ATOM     19  O   UNL d   1      29.763 -18.741  -0.895  0.00  0.00    -0.269 OA
ATOM     20  N   UNL d   1      28.875 -16.705  -0.341  0.00  0.00    -0.265 N 
ATOM     21  H   UNL d   1      28.946 -15.718  -0.096  0.00  0.00     0.190 HD
BRANCH  20  22
ATOM     22  N   UNL d   1      27.539 -17.249  -0.385  0.00  0.00    -0.263 N 
ATOM     23  C   UNL d   1      26.426 -16.408  -0.341  0.00  0.00     0.270 C 
ATOM     24  O   UNL d   1      26.513 -15.188  -0.233  0.00  0.00    -0.266 OA
ATOM     25  H   UNL d   1      27.475 -18.246  -0.585  0.00  0.00     0.190 HD
BRANCH  23  26
ATOM     26  C   UNL d   1      25.068 -17.053  -0.460  0.00  0.00     0.033 A 
ATOM     27  C   UNL d   1      24.885 -18.423  -0.224  0.00  0.00     0.019 A 
ATOM     28  C   UNL d   1      23.610 -19.004  -0.343  0.00  0.00     0.025 A 
ATOM     29  C   UNL d   1      22.511 -18.223  -0.695  0.00  0.00     0.034 A 
ATOM     30 CL   UNL d   1      20.962 -18.954  -0.887  0.00  0.00    -0.084 Cl
ATOM     31  C   UNL d   1      22.666 -16.853  -0.893  0.00  0.00     0.025 A 
ATOM     32  C   UNL d   1      23.940 -16.268  -0.763  0.00  0.00     0.019 A 
ENDBRANCH  23  26
ENDBRANCH  20  22
ENDBRANCH  17  18
ENDBRANCH   1  17
TORSDOF 9
ENDMDL
