MODEL 1
REMARK VINA RESULT:   -10.013      0.000      0.000
REMARK INTER + INTRA:         -13.515
REMARK INTER:                 -12.101
REMARK INTRA:                  -1.415
REMARK CONF_INDEPENDENT:        2.088
REMARK UNBOUND:                -1.415
REMARK  7 active torsions:
REMARK  status: ('A' for Active; 'I' for Inactive)
REMARK    1  A    between atoms: C_5  and  N_6 
REMARK       I    between atoms: N_6  and  C_7 
REMARK    2  A    between atoms: C_7  and  C_9 
REMARK    3  A    between atoms: C_9  and  N_10 
REMARK    4  A    between atoms: N_10  and  C_11 
REMARK    5  A    between atoms: C_14  and  C_15 
REMARK       I    between atoms: C_15  and  N_17 
REMARK    6  A    between atoms: N_17  and  C_18 
REMARK    7  A    between atoms: C_18  and  C_19 
ROOT
ATOM      1  C   UNL d   1      26.538 -16.624   0.401  0.00  0.00     0.028 A 
ATOM      2  C   UNL d   1      26.264 -17.989   0.558  0.00  0.00     0.030 A 
ATOM      3  C   UNL d   1      25.124 -18.576  -0.018  0.00  0.00     0.019 A 
ATOM      4  C   UNL d   1      24.196 -17.797  -0.726  0.00  0.00     0.032 A 
ATOM      5  C   UNL d   1      24.482 -16.441  -0.903  0.00  0.00     0.019 A 
ATOM      6  C   UNL d   1      25.632 -15.868  -0.339  0.00  0.00     0.030 A 
ENDROOT
BRANCH   1   7
ATOM      7  N   UNL d   1      27.652 -16.083   0.999  0.00  0.00    -0.381 N 
ATOM      8  H   UNL d   1      28.368 -16.736   1.337  0.00  0.00     0.160 HD
BRANCH   7   9
ATOM      9  C   UNL d   1      28.133 -14.706   0.814  0.00  0.00     0.223 C 
BRANCH   9  10
ATOM     10  C   UNL d   1      28.065 -13.977   2.166  0.00  0.00     0.239 C 
ATOM     11  N   UNL d   1      28.589 -14.649   3.274  0.00  0.00    -0.326 N 
ATOM     12  H   UNL d   1      28.995 -15.569   3.142  0.00  0.00     0.169 HD
ATOM     13  O   UNL d   1      27.547 -12.856   2.185  0.00  0.00    -0.271 OA
BRANCH  11  14
ATOM     14  C   UNL d   1      28.626 -14.114   4.598  0.00  0.00     0.035 A 
ATOM     15  C   UNL d   1      27.674 -13.196   5.039  0.00  0.00     0.030 A 
ATOM     16  C   UNL d   1      27.719 -12.631   6.306  0.00  0.00     0.009 A 
ATOM     17  C   UNL d   1      28.721 -12.979   7.203  0.00  0.00    -0.056 A 
ATOM     18  C   UNL d   1      28.721 -12.314   8.551  0.00  0.00     0.049 C 
ATOM     19  C   UNL d   1      29.682 -13.932   6.813  0.00  0.00    -0.054 A 
ATOM     20  C   UNL d   1      29.631 -14.490   5.506  0.00  0.00     0.037 A 
ATOM     21  C   UNL d   1      30.749 -14.356   7.789  0.00  0.00     0.049 C 
ENDBRANCH  11  14
ENDBRANCH   9  10
ENDBRANCH   7   9
ENDBRANCH   1   7
BRANCH   4  22
ATOM     22  C   UNL d   1      22.925 -18.432  -1.212  0.00  0.00     0.251 C 
ATOM     23  O   UNL d   1      22.919 -19.056  -2.277  0.00  0.00    -0.268 OA
ATOM     24  N   UNL d   1      21.795 -18.332  -0.424  0.00  0.00    -0.351 N 
ATOM     25  H   UNL d   1      21.802 -17.838   0.454  0.00  0.00     0.163 HD
BRANCH  24  26
ATOM     26  C   UNL d   1      20.542 -18.947  -0.821  0.00  0.00     0.187 C 
BRANCH  26  27
ATOM     27  C   UNL d   1      19.917 -19.619   0.352  0.00  0.00     0.070 A 
ATOM     28  C   UNL d   1      18.876 -20.521   0.442  0.00  0.00     0.036 A 
ATOM     29  C   UNL d   1      18.717 -20.827   1.811  0.00  0.00     0.027 A 
ATOM     30  C   UNL d   1      19.656 -20.078   2.481  0.00  0.00     0.142 A 
ATOM     31  O   UNL d   1      20.396 -19.343   1.604  0.00  0.00    -0.325 OA
ENDBRANCH  26  27
ENDBRANCH  24  26
ENDBRANCH   4  22
TORSDOF 7
ENDMDL
MODEL 2
REMARK VINA RESULT:    -9.544      1.270      2.087
REMARK INTER + INTRA:         -12.714
REMARK INTER:                 -11.632
REMARK INTRA:                  -1.082
REMARK CONF_INDEPENDENT:        2.088
REMARK UNBOUND:                -1.082
REMARK  7 active torsions:
REMARK  status: ('A' for Active; 'I' for Inactive)
REMARK    1  A    between atoms: C_5  and  N_6 
REMARK       I    between atoms: N_6  and  C_7 
REMARK    2  A    between atoms: C_7  and  C_9 
REMARK    3  A    between atoms: C_9  and  N_10 
REMARK    4  A    between atoms: N_10  and  C_11 
REMARK    5  A    between atoms: C_14  and  C_15 
REMARK       I    between atoms: C_15  and  N_17 
REMARK    6  A    between atoms: N_17  and  C_18 
REMARK    7  A    between atoms: C_18  and  C_19 
ROOT
ATOM      1  C   UNL d   1      26.612 -16.995  -0.157  0.00  0.00     0.028 A 
ATOM      2  C   UNL d   1      25.831 -16.156  -0.961  0.00  0.00     0.030 A 
ATOM      3  C   UNL d   1      24.449 -16.365  -1.109  0.00  0.00     0.019 A 
ATOM      4  C   UNL d   1      23.819 -17.458  -0.495  0.00  0.00     0.032 A 
ATOM      5  C   UNL d   1      24.594 -18.281   0.327  0.00  0.00     0.019 A 
ATOM      6  C   UNL d   1      25.970 -18.052   0.483  0.00  0.00     0.030 A 
ENDROOT
BRANCH   1   7
ATOM      7  N   UNL d   1      27.965 -16.770  -0.056  0.00  0.00    -0.381 N 
ATOM      8  H   UNL d   1      28.588 -17.564  -0.242  0.00  0.00     0.160 HD
BRANCH   7   9
ATOM      9  C   UNL d   1      28.619 -15.457  -0.150  0.00  0.00     0.223 C 
BRANCH   9  10
ATOM     10  C   UNL d   1      28.246 -14.632   1.093  0.00  0.00     0.239 C 
ATOM     11  N   UNL d   1      29.026 -14.826   2.237  0.00  0.00    -0.326 N 
ATOM     12  H   UNL d   1      29.799 -15.482   2.198  0.00  0.00     0.169 HD
ATOM     13  O   UNL d   1      27.282 -13.866   1.003  0.00  0.00    -0.271 OA
BRANCH  11  14
ATOM     14  C   UNL d   1      28.835 -14.133   3.471  0.00  0.00     0.035 A 
ATOM     15  C   UNL d   1      29.043 -14.760   4.698  0.00  0.00     0.030 A 
ATOM     16  C   UNL d   1      28.820 -14.117   5.908  0.00  0.00     0.009 A 
ATOM     17  C   UNL d   1      28.389 -12.797   5.942  0.00  0.00    -0.056 A 
ATOM     18  C   UNL d   1      28.147 -12.169   7.284  0.00  0.00     0.049 C 
ATOM     19  C   UNL d   1      28.202 -12.112   4.724  0.00  0.00    -0.054 A 
ATOM     20  C   UNL d   1      28.421 -12.789   3.493  0.00  0.00     0.037 A 
ATOM     21  C   UNL d   1      27.779 -10.666   4.742  0.00  0.00     0.049 C 
ENDBRANCH  11  14
ENDBRANCH   9  10
ENDBRANCH   7   9
ENDBRANCH   1   7
BRANCH   4  22
ATOM     22  C   UNL d   1      22.369 -17.727  -0.783  0.00  0.00     0.251 C 
ATOM     23  O   UNL d   1      21.581 -16.785  -0.894  0.00  0.00    -0.268 OA
ATOM     24  N   UNL d   1      21.964 -19.037  -0.956  0.00  0.00    -0.351 N 
ATOM     25  H   UNL d   1      22.610 -19.807  -0.882  0.00  0.00     0.163 HD
BRANCH  24  26
ATOM     26  C   UNL d   1      20.585 -19.364  -1.265  0.00  0.00     0.187 C 
BRANCH  26  27
ATOM     27  C   UNL d   1      19.891 -19.834  -0.034  0.00  0.00     0.070 A 
ATOM     28  C   UNL d   1      20.011 -19.451   1.286  0.00  0.00     0.036 A 
ATOM     29  C   UNL d   1      19.096 -20.233   2.024  0.00  0.00     0.027 A 
ATOM     30  C   UNL d   1      18.484 -21.063   1.114  0.00  0.00     0.142 A 
ATOM     31  O   UNL d   1      18.955 -20.826  -0.142  0.00  0.00    -0.325 OA
ENDBRANCH  26  27
ENDBRANCH  24  26
ENDBRANCH   4  22
TORSDOF 7
ENDMDL
MODEL 3
REMARK VINA RESULT:    -9.094      4.797      7.857
REMARK INTER + INTRA:         -12.373
REMARK INTER:                 -11.182
REMARK INTRA:                  -1.191
REMARK CONF_INDEPENDENT:        2.088
REMARK UNBOUND:                -1.191
REMARK  7 active torsions:
REMARK  status: ('A' for Active; 'I' for Inactive)
REMARK    1  A    between atoms: C_5  and  N_6 
REMARK       I    between atoms: N_6  and  C_7 
REMARK    2  A    between atoms: C_7  and  C_9 
REMARK    3  A    between atoms: C_9  and  N_10 
REMARK    4  A    between atoms: N_10  and  C_11 
REMARK    5  A    between atoms: C_14  and  C_15 
REMARK       I    between atoms: C_15  and  N_17 
REMARK    6  A    between atoms: N_17  and  C_18 
REMARK    7  A    between atoms: C_18  and  C_19 
ROOT
ATOM      1  C   UNL d   1      26.835 -17.265  -0.247  0.00  0.00     0.028 A 
ATOM      2  C   UNL d   1      26.127 -16.444  -1.133  0.00  0.00     0.030 A 
ATOM      3  C   UNL d   1      24.731 -16.543  -1.263  0.00  0.00     0.019 A 
ATOM      4  C   UNL d   1      24.009 -17.507  -0.544  0.00  0.00     0.032 A 
ATOM      5  C   UNL d   1      24.713 -18.310   0.359  0.00  0.00     0.019 A 
ATOM      6  C   UNL d   1      26.105 -18.191   0.494  0.00  0.00     0.030 A 
ENDROOT
BRANCH   1   7
ATOM      7  N   UNL d   1      28.203 -17.154  -0.166  0.00  0.00    -0.381 N 
ATOM      8  H   UNL d   1      28.715 -17.942   0.247  0.00  0.00     0.160 HD
BRANCH   7   9
ATOM      9  C   UNL d   1      29.035 -16.261  -0.986  0.00  0.00     0.223 C 
BRANCH   9  10
ATOM     10  C   UNL d   1      29.648 -17.078  -2.135  0.00  0.00     0.239 C 
ATOM     11  N   UNL d   1      29.527 -16.547  -3.422  0.00  0.00    -0.326 N 
ATOM     12  H   UNL d   1      29.059 -15.655  -3.543  0.00  0.00     0.169 HD
ATOM     13  O   UNL d   1      30.194 -18.147  -1.847  0.00  0.00    -0.271 OA
BRANCH  11  14
ATOM     14  C   UNL d   1      30.052 -17.161  -4.600  0.00  0.00     0.035 A 
ATOM     15  C   UNL d   1      30.312 -16.420  -5.752  0.00  0.00     0.030 A 
ATOM     16  C   UNL d   1      30.780 -17.004  -6.921  0.00  0.00     0.009 A 
ATOM     17  C   UNL d   1      31.029 -18.370  -6.982  0.00  0.00    -0.056 A 
ATOM     18  C   UNL d   1      31.515 -18.941  -8.283  0.00  0.00     0.049 C 
ATOM     19  C   UNL d   1      30.817 -19.151  -5.828  0.00  0.00    -0.054 A 
ATOM     20  C   UNL d   1      30.322 -18.540  -4.643  0.00  0.00     0.037 A 
ATOM     21  C   UNL d   1      31.125 -20.626  -5.861  0.00  0.00     0.049 C 
ENDBRANCH  11  14
ENDBRANCH   9  10
ENDBRANCH   7   9
ENDBRANCH   1   7
BRANCH   4  22
ATOM     22  C   UNL d   1      22.540 -17.672  -0.807  0.00  0.00     0.251 C 
ATOM     23  O   UNL d   1      21.817 -16.676  -0.895  0.00  0.00    -0.268 OA
ATOM     24  N   UNL d   1      22.042 -18.949  -0.984  0.00  0.00    -0.351 N 
ATOM     25  H   UNL d   1      22.634 -19.762  -0.929  0.00  0.00     0.163 HD
BRANCH  24  26
ATOM     26  C   UNL d   1      20.638 -19.176  -1.270  0.00  0.00     0.187 C 
BRANCH  26  27
ATOM     27  C   UNL d   1      19.968 -19.758  -0.073  0.00  0.00     0.070 A 
ATOM     28  C   UNL d   1      20.282 -19.700   1.269  0.00  0.00     0.036 A 
ATOM     29  C   UNL d   1      19.287 -20.431   1.954  0.00  0.00     0.027 A 
ATOM     30  C   UNL d   1      18.434 -20.911   0.988  0.00  0.00     0.142 A 
ATOM     31  O   UNL d   1      18.835 -20.504  -0.249  0.00  0.00    -0.325 OA
ENDBRANCH  26  27
ENDBRANCH  24  26
ENDBRANCH   4  22
TORSDOF 7
ENDMDL
MODEL 4
REMARK VINA RESULT:    -8.746      1.885      2.601
REMARK INTER + INTRA:         -12.071
REMARK INTER:                 -10.834
REMARK INTRA:                  -1.237
REMARK CONF_INDEPENDENT:        2.088
REMARK UNBOUND:                -1.237
REMARK  7 active torsions:
REMARK  status: ('A' for Active; 'I' for Inactive)
REMARK    1  A    between atoms: C_5  and  N_6 
REMARK       I    between atoms: N_6  and  C_7 
REMARK    2  A    between atoms: C_7  and  C_9 
REMARK    3  A    between atoms: C_9  and  N_10 
REMARK    4  A    between atoms: N_10  and  C_11 
REMARK    5  A    between atoms: C_14  and  C_15 
REMARK       I    between atoms: C_15  and  N_17 
REMARK    6  A    between atoms: N_17  and  C_18 
REMARK    7  A    between atoms: C_18  and  C_19 
ROOT
ATOM      1  C   UNL d   1      26.762 -17.439  -0.281  0.00  0.00     0.028 A 
ATOM      2  C   UNL d   1      25.996 -18.471   0.275  0.00  0.00     0.030 A 
ATOM      3  C   UNL d   1      24.614 -18.565   0.038  0.00  0.00     0.019 A 
ATOM      4  C   UNL d   1      23.949 -17.592  -0.725  0.00  0.00     0.032 A 
ATOM      5  C   UNL d   1      24.717 -16.576  -1.300  0.00  0.00     0.019 A 
ATOM      6  C   UNL d   1      26.100 -16.501  -1.070  0.00  0.00     0.030 A 
ENDROOT
BRANCH   1   7
ATOM      7  N   UNL d   1      28.107 -17.368  -0.005  0.00  0.00    -0.381 N 
ATOM      8  H   UNL d   1      28.565 -18.226   0.324  0.00  0.00     0.160 HD
BRANCH   7   9
ATOM      9  C   UNL d   1      29.034 -16.359  -0.539  0.00  0.00     0.223 C 
BRANCH   9  10
ATOM     10  C   UNL d   1      28.577 -14.971  -0.061  0.00  0.00     0.239 C 
ATOM     11  N   UNL d   1      28.384 -14.808   1.314  0.00  0.00    -0.326 N 
ATOM     12  H   UNL d   1      28.562 -15.594   1.930  0.00  0.00     0.169 HD
ATOM     13  O   UNL d   1      28.401 -14.101  -0.919  0.00  0.00    -0.271 OA
BRANCH  11  14
ATOM     14  C   UNL d   1      27.980 -13.585   1.932  0.00  0.00     0.035 A 
ATOM     15  C   UNL d   1      27.073 -12.724   1.317  0.00  0.00     0.030 A 
ATOM     16  C   UNL d   1      26.702 -11.511   1.880  0.00  0.00     0.009 A 
ATOM     17  C   UNL d   1      27.218 -11.110   3.107  0.00  0.00    -0.056 A 
ATOM     18  C   UNL d   1      26.790  -9.776   3.649  0.00  0.00     0.049 C 
ATOM     19  C   UNL d   1      28.109 -11.968   3.782  0.00  0.00    -0.054 A 
ATOM     20  C   UNL d   1      28.490 -13.201   3.185  0.00  0.00     0.037 A 
ATOM     21  C   UNL d   1      28.642 -11.571   5.134  0.00  0.00     0.049 C 
ENDBRANCH  11  14
ENDBRANCH   9  10
ENDBRANCH   7   9
ENDBRANCH   1   7
BRANCH   4  22
ATOM     22  C   UNL d   1      22.453 -17.651  -0.847  0.00  0.00     0.251 C 
ATOM     23  O   UNL d   1      21.795 -16.607  -0.829  0.00  0.00    -0.268 OA
ATOM     24  N   UNL d   1      21.854 -18.884  -1.018  0.00  0.00    -0.351 N 
ATOM     25  H   UNL d   1      22.392 -19.736  -1.049  0.00  0.00     0.163 HD
BRANCH  24  26
ATOM     26  C   UNL d   1      20.417 -19.009  -1.171  0.00  0.00     0.187 C 
BRANCH  26  27
ATOM     27  C   UNL d   1      19.840 -19.684   0.024  0.00  0.00     0.070 A 
ATOM     28  C   UNL d   1      18.693 -20.435   0.186  0.00  0.00     0.036 A 
ATOM     29  C   UNL d   1      18.651 -20.831   1.540  0.00  0.00     0.027 A 
ATOM     30  C   UNL d   1      19.763 -20.282   2.133  0.00  0.00     0.142 A 
ATOM     31  O   UNL d   1      20.497 -19.585   1.220  0.00  0.00    -0.325 OA
ENDBRANCH  26  27
ENDBRANCH  24  26
ENDBRANCH   4  22
TORSDOF 7
ENDMDL
MODEL 5
REMARK VINA RESULT:    -8.571      4.565      6.929
REMARK INTER + INTRA:         -12.060
REMARK INTER:                 -10.659
REMARK INTRA:                  -1.401
REMARK CONF_INDEPENDENT:        2.088
REMARK UNBOUND:                -1.401
REMARK  7 active torsions:
REMARK  status: ('A' for Active; 'I' for Inactive)
REMARK    1  A    between atoms: C_5  and  N_6 
REMARK       I    between atoms: N_6  and  C_7 
REMARK    2  A    between atoms: C_7  and  C_9 
REMARK    3  A    between atoms: C_9  and  N_10 
REMARK    4  A    between atoms: N_10  and  C_11 
REMARK    5  A    between atoms: C_14  and  C_15 
REMARK       I    between atoms: C_15  and  N_17 
REMARK    6  A    between atoms: N_17  and  C_18 
REMARK    7  A    between atoms: C_18  and  C_19 
ROOT
ATOM      1  C   UNL d   1      26.731 -17.048  -0.074  0.00  0.00     0.028 A 
ATOM      2  C   UNL d   1      26.070 -18.200   0.369  0.00  0.00     0.030 A 
ATOM      3  C   UNL d   1      24.719 -18.432   0.059  0.00  0.00     0.019 A 
ATOM      4  C   UNL d   1      23.976 -17.485  -0.663  0.00  0.00     0.032 A 
ATOM      5  C   UNL d   1      24.642 -16.347  -1.126  0.00  0.00     0.019 A 
ATOM      6  C   UNL d   1      25.997 -16.134  -0.825  0.00  0.00     0.030 A 
ENDROOT
BRANCH   1   7
ATOM      7  N   UNL d   1      28.048 -16.847   0.270  0.00  0.00    -0.381 N 
ATOM      8  H   UNL d   1      28.254 -16.677   1.261  0.00  0.00     0.160 HD
BRANCH   7   9
ATOM      9  C   UNL d   1      29.210 -17.280  -0.520  0.00  0.00     0.223 C 
BRANCH   9  10
ATOM     10  C   UNL d   1      29.364 -16.338  -1.724  0.00  0.00     0.239 C 
ATOM     11  N   UNL d   1      28.420 -16.462  -2.749  0.00  0.00    -0.326 N 
ATOM     12  H   UNL d   1      27.679 -17.148  -2.652  0.00  0.00     0.169 HD
ATOM     13  O   UNL d   1      30.311 -15.546  -1.713  0.00  0.00    -0.271 OA
BRANCH  11  14
ATOM     14  C   UNL d   1      28.401 -15.657  -3.929  0.00  0.00     0.035 A 
ATOM     15  C   UNL d   1      29.250 -15.920  -5.003  0.00  0.00     0.030 A 
ATOM     16  C   UNL d   1      29.278 -15.123  -6.139  0.00  0.00     0.009 A 
ATOM     17  C   UNL d   1      28.434 -14.026  -6.258  0.00  0.00    -0.056 A 
ATOM     18  C   UNL d   1      28.530 -13.195  -7.506  0.00  0.00     0.049 C 
ATOM     19  C   UNL d   1      27.532 -13.746  -5.213  0.00  0.00    -0.054 A 
ATOM     20  C   UNL d   1      27.526 -14.563  -4.049  0.00  0.00     0.037 A 
ATOM     21  C   UNL d   1      26.577 -12.589  -5.344  0.00  0.00     0.049 C 
ENDBRANCH  11  14
ENDBRANCH   9  10
ENDBRANCH   7   9
ENDBRANCH   1   7
BRANCH   4  22
ATOM     22  C   UNL d   1      22.503 -17.704  -0.861  0.00  0.00     0.251 C 
ATOM     23  O   UNL d   1      21.739 -16.736  -0.895  0.00  0.00    -0.268 OA
ATOM     24  N   UNL d   1      22.047 -18.995  -1.041  0.00  0.00    -0.351 N 
ATOM     25  H   UNL d   1      22.672 -19.786  -1.030  0.00  0.00     0.163 HD
BRANCH  24  26
ATOM     26  C   UNL d   1      20.641 -19.273  -1.266  0.00  0.00     0.187 C 
BRANCH  26  27
ATOM     27  C   UNL d   1      20.017 -19.765  -0.006  0.00  0.00     0.070 A 
ATOM     28  C   UNL d   1      18.843 -20.451   0.226  0.00  0.00     0.036 A 
ATOM     29  C   UNL d   1      18.760 -20.663   1.620  0.00  0.00     0.027 A 
ATOM     30  C   UNL d   1      19.879 -20.075   2.161  0.00  0.00     0.142 A 
ATOM     31  O   UNL d   1      20.654 -19.530   1.182  0.00  0.00    -0.325 OA
ENDBRANCH  26  27
ENDBRANCH  24  26
ENDBRANCH   4  22
TORSDOF 7
ENDMDL
MODEL 6
REMARK VINA RESULT:    -8.391      5.591      8.673
REMARK INTER + INTRA:         -12.136
REMARK INTER:                 -10.479
REMARK INTRA:                  -1.658
REMARK CONF_INDEPENDENT:        2.088
REMARK UNBOUND:                -1.658
REMARK  7 active torsions:
REMARK  status: ('A' for Active; 'I' for Inactive)
REMARK    1  A    between atoms: C_5  and  N_6 
REMARK       I    between atoms: N_6  and  C_7 
REMARK    2  A    between atoms: C_7  and  C_9 
REMARK    3  A    between atoms: C_9  and  N_10 
REMARK    4  A    between atoms: N_10  and  C_11 
REMARK    5  A    between atoms: C_14  and  C_15 
REMARK       I    between atoms: C_15  and  N_17 
REMARK    6  A    between atoms: N_17  and  C_18 
REMARK    7  A    between atoms: C_18  and  C_19 
ROOT
ATOM      1  C   UNL d   1      26.713 -14.481  -3.577  0.00  0.00     0.028 A 
ATOM      2  C   UNL d   1      27.524 -15.398  -2.897  0.00  0.00     0.030 A 
ATOM      3  C   UNL d   1      26.979 -16.323  -1.990  0.00  0.00     0.019 A 
ATOM      4  C   UNL d   1      25.607 -16.319  -1.699  0.00  0.00     0.032 A 
ATOM      5  C   UNL d   1      24.794 -15.421  -2.396  0.00  0.00     0.019 A 
ATOM      6  C   UNL d   1      25.346 -14.513  -3.313  0.00  0.00     0.030 A 
ENDROOT
BRANCH   1   7
ATOM      7  N   UNL d   1      27.288 -13.576  -4.439  0.00  0.00    -0.381 N 
ATOM      8  H   UNL d   1      26.831 -12.662  -4.533  0.00  0.00     0.160 HD
BRANCH   7   9
ATOM      9  C   UNL d   1      28.688 -13.599  -4.887  0.00  0.00     0.223 C 
BRANCH   9  10
ATOM     10  C   UNL d   1      28.933 -14.901  -5.665  0.00  0.00     0.239 C 
ATOM     11  N   UNL d   1      30.067 -15.642  -5.317  0.00  0.00    -0.326 N 
ATOM     12  H   UNL d   1      30.663 -15.303  -4.570  0.00  0.00     0.169 HD
ATOM     13  O   UNL d   1      28.124 -15.200  -6.549  0.00  0.00    -0.271 OA
BRANCH  11  14
ATOM     14  C   UNL d   1      30.437 -16.883  -5.921  0.00  0.00     0.035 A 
ATOM     15  C   UNL d   1      30.838 -16.951  -7.254  0.00  0.00     0.030 A 
ATOM     16  C   UNL d   1      31.159 -18.152  -7.872  0.00  0.00     0.009 A 
ATOM     17  C   UNL d   1      31.107 -19.349  -7.168  0.00  0.00    -0.056 A 
ATOM     18  C   UNL d   1      31.447 -20.614  -7.903  0.00  0.00     0.049 C 
ATOM     19  C   UNL d   1      30.743 -19.321  -5.806  0.00  0.00    -0.054 A 
ATOM     20  C   UNL d   1      30.403 -18.085  -5.192  0.00  0.00     0.037 A 
ATOM     21  C   UNL d   1      30.727 -20.603  -5.015  0.00  0.00     0.049 C 
ENDBRANCH  11  14
ENDBRANCH   9  10
ENDBRANCH   7   9
ENDBRANCH   1   7
BRANCH   4  22
ATOM     22  C   UNL d   1      25.081 -17.231  -0.628  0.00  0.00     0.251 C 
ATOM     23  O   UNL d   1      25.787 -17.502   0.348  0.00  0.00    -0.268 OA
ATOM     24  N   UNL d   1      23.792 -17.714  -0.748  0.00  0.00    -0.351 N 
ATOM     25  H   UNL d   1      23.209 -17.480  -1.535  0.00  0.00     0.163 HD
BRANCH  24  26
ATOM     26  C   UNL d   1      23.213 -18.575   0.266  0.00  0.00     0.187 C 
BRANCH  26  27
ATOM     27  C   UNL d   1      21.858 -19.020  -0.165  0.00  0.00     0.070 A 
ATOM     28  C   UNL d   1      20.766 -19.456   0.557  0.00  0.00     0.036 A 
ATOM     29  C   UNL d   1      19.745 -19.739  -0.376  0.00  0.00     0.027 A 
ATOM     30  C   UNL d   1      20.280 -19.479  -1.616  0.00  0.00     0.142 A 
ATOM     31  O   UNL d   1      21.563 -19.037  -1.501  0.00  0.00    -0.325 OA
ENDBRANCH  26  27
ENDBRANCH  24  26
ENDBRANCH   4  22
TORSDOF 7
ENDMDL
MODEL 7
REMARK VINA RESULT:    -8.194      3.612      6.540
REMARK INTER + INTRA:         -11.960
REMARK INTER:                 -10.282
REMARK INTRA:                  -1.678
REMARK CONF_INDEPENDENT:        2.088
REMARK UNBOUND:                -1.678
REMARK  7 active torsions:
REMARK  status: ('A' for Active; 'I' for Inactive)
REMARK    1  A    between atoms: C_5  and  N_6 
REMARK       I    between atoms: N_6  and  C_7 
REMARK    2  A    between atoms: C_7  and  C_9 
REMARK    3  A    between atoms: C_9  and  N_10 
REMARK    4  A    between atoms: N_10  and  C_11 
REMARK    5  A    between atoms: C_14  and  C_15 
REMARK       I    between atoms: C_15  and  N_17 
REMARK    6  A    between atoms: N_17  and  C_18 
REMARK    7  A    between atoms: C_18  and  C_19 
ROOT
ATOM      1  C   UNL d   1      26.507 -16.614   0.242  0.00  0.00     0.028 A 
ATOM      2  C   UNL d   1      26.202 -17.948   0.538  0.00  0.00     0.030 A 
ATOM      3  C   UNL d   1      25.067 -18.575  -0.006  0.00  0.00     0.019 A 
ATOM      4  C   UNL d   1      24.176 -17.863  -0.822  0.00  0.00     0.032 A 
ATOM      5  C   UNL d   1      24.494 -16.539  -1.137  0.00  0.00     0.019 A 
ATOM      6  C   UNL d   1      25.639 -15.928  -0.603  0.00  0.00     0.030 A 
ENDROOT
BRANCH   1   7
ATOM      7  N   UNL d   1      27.614 -16.029   0.812  0.00  0.00    -0.381 N 
ATOM      8  H   UNL d   1      28.270 -16.645   1.304  0.00  0.00     0.160 HD
BRANCH   7   9
ATOM      9  C   UNL d   1      28.183 -14.729   0.426  0.00  0.00     0.223 C 
BRANCH   9  10
ATOM     10  C   UNL d   1      28.729 -14.838  -1.007  0.00  0.00     0.239 C 
ATOM     11  N   UNL d   1      28.894 -16.126  -1.524  0.00  0.00    -0.326 N 
ATOM     12  H   UNL d   1      28.640 -16.922  -0.948  0.00  0.00     0.169 HD
ATOM     13  O   UNL d   1      28.994 -13.787  -1.599  0.00  0.00    -0.271 OA
BRANCH  11  14
ATOM     14  C   UNL d   1      29.370 -16.412  -2.841  0.00  0.00     0.035 A 
ATOM     15  C   UNL d   1      28.962 -15.658  -3.940  0.00  0.00     0.030 A 
ATOM     16  C   UNL d   1      29.378 -15.947  -5.233  0.00  0.00     0.009 A 
ATOM     17  C   UNL d   1      30.243 -17.005  -5.481  0.00  0.00    -0.056 A 
ATOM     18  C   UNL d   1      30.637 -17.275  -6.905  0.00  0.00     0.049 C 
ATOM     19  C   UNL d   1      30.711 -17.770  -4.393  0.00  0.00    -0.054 A 
ATOM     20  C   UNL d   1      30.264 -17.470  -3.077  0.00  0.00     0.037 A 
ATOM     21  C   UNL d   1      31.686 -18.892  -4.638  0.00  0.00     0.049 C 
ENDBRANCH  11  14
ENDBRANCH   9  10
ENDBRANCH   7   9
ENDBRANCH   1   7
BRANCH   4  22
ATOM     22  C   UNL d   1      22.907 -18.526  -1.276  0.00  0.00     0.251 C 
ATOM     23  O   UNL d   1      22.905 -19.210  -2.303  0.00  0.00    -0.268 OA
ATOM     24  N   UNL d   1      21.774 -18.382  -0.498  0.00  0.00    -0.351 N 
ATOM     25  H   UNL d   1      21.778 -17.838   0.350  0.00  0.00     0.163 HD
BRANCH  24  26
ATOM     26  C   UNL d   1      20.523 -19.020  -0.864  0.00  0.00     0.187 C 
BRANCH  26  27
ATOM     27  C   UNL d   1      19.906 -19.644   0.340  0.00  0.00     0.070 A 
ATOM     28  C   UNL d   1      18.812 -20.474   0.480  0.00  0.00     0.036 A 
ATOM     29  C   UNL d   1      18.693 -20.763   1.857  0.00  0.00     0.027 A 
ATOM     30  C   UNL d   1      19.708 -20.076   2.480  0.00  0.00     0.142 A 
ATOM     31  O   UNL d   1      20.455 -19.396   1.568  0.00  0.00    -0.325 OA
ENDBRANCH  26  27
ENDBRANCH  24  26
ENDBRANCH   4  22
TORSDOF 7
ENDMDL
MODEL 8
REMARK VINA RESULT:    -8.075      3.996      6.317
REMARK INTER + INTRA:         -11.671
REMARK INTER:                 -10.163
REMARK INTRA:                  -1.508
REMARK CONF_INDEPENDENT:        2.088
REMARK UNBOUND:                -1.508
REMARK  7 active torsions:
REMARK  status: ('A' for Active; 'I' for Inactive)
REMARK    1  A    between atoms: C_5  and  N_6 
REMARK       I    between atoms: N_6  and  C_7 
REMARK    2  A    between atoms: C_7  and  C_9 
REMARK    3  A    between atoms: C_9  and  N_10 
REMARK    4  A    between atoms: N_10  and  C_11 
REMARK    5  A    between atoms: C_14  and  C_15 
REMARK       I    between atoms: C_15  and  N_17 
REMARK    6  A    between atoms: N_17  and  C_18 
REMARK    7  A    between atoms: C_18  and  C_19 
ROOT
ATOM      1  C   UNL d   1      26.368 -16.456   0.131  0.00  0.00     0.028 A 
ATOM      2  C   UNL d   1      26.209 -17.834   0.327  0.00  0.00     0.030 A 
ATOM      3  C   UNL d   1      25.093 -18.520  -0.183  0.00  0.00     0.019 A 
ATOM      4  C   UNL d   1      24.076 -17.832  -0.861  0.00  0.00     0.032 A 
ATOM      5  C   UNL d   1      24.246 -16.462  -1.077  0.00  0.00     0.019 A 
ATOM      6  C   UNL d   1      25.373 -15.789  -0.579  0.00  0.00     0.030 A 
ENDROOT
BRANCH   1   7
ATOM      7  N   UNL d   1      27.462 -15.817   0.665  0.00  0.00    -0.381 N 
ATOM      8  H   UNL d   1      27.648 -15.960   1.664  0.00  0.00     0.160 HD
BRANCH   7   9
ATOM      9  C   UNL d   1      28.621 -15.331  -0.099  0.00  0.00     0.223 C 
BRANCH   9  10
ATOM     10  C   UNL d   1      28.125 -14.787  -1.449  0.00  0.00     0.239 C 
ATOM     11  N   UNL d   1      27.491 -13.542  -1.435  0.00  0.00    -0.326 N 
ATOM     12  H   UNL d   1      27.396 -13.050  -0.553  0.00  0.00     0.169 HD
ATOM     13  O   UNL d   1      28.310 -15.488  -2.449  0.00  0.00    -0.271 OA
BRANCH  11  14
ATOM     14  C   UNL d   1      26.988 -12.880  -2.596  0.00  0.00     0.035 A 
ATOM     15  C   UNL d   1      26.891 -13.536  -3.822  0.00  0.00     0.030 A 
ATOM     16  C   UNL d   1      26.446 -12.899  -4.972  0.00  0.00     0.009 A 
ATOM     17  C   UNL d   1      26.059 -11.565  -4.940  0.00  0.00    -0.056 A 
ATOM     18  C   UNL d   1      25.608 -10.931  -6.225  0.00  0.00     0.049 C 
ATOM     19  C   UNL d   1      26.104 -10.873  -3.713  0.00  0.00    -0.054 A 
ATOM     20  C   UNL d   1      26.576 -11.537  -2.547  0.00  0.00     0.037 A 
ATOM     21  C   UNL d   1      25.644  -9.440  -3.649  0.00  0.00     0.049 C 
ENDBRANCH  11  14
ENDBRANCH   9  10
ENDBRANCH   7   9
ENDBRANCH   1   7
BRANCH   4  22
ATOM     22  C   UNL d   1      22.837 -18.574  -1.274  0.00  0.00     0.251 C 
ATOM     23  O   UNL d   1      22.873 -19.336  -2.243  0.00  0.00    -0.268 OA
ATOM     24  N   UNL d   1      21.689 -18.409  -0.523  0.00  0.00    -0.351 N 
ATOM     25  H   UNL d   1      21.662 -17.799   0.279  0.00  0.00     0.163 HD
BRANCH  24  26
ATOM     26  C   UNL d   1      20.467 -19.118  -0.850  0.00  0.00     0.187 C 
BRANCH  26  27
ATOM     27  C   UNL d   1      19.893 -19.728   0.382  0.00  0.00     0.070 A 
ATOM     28  C   UNL d   1      18.851 -20.614   0.564  0.00  0.00     0.036 A 
ATOM     29  C   UNL d   1      18.755 -20.854   1.952  0.00  0.00     0.027 A 
ATOM     30  C   UNL d   1      19.731 -20.084   2.540  0.00  0.00     0.142 A 
ATOM     31  O   UNL d   1      20.433 -19.398   1.595  0.00  0.00    -0.325 OA
ENDBRANCH  26  27
ENDBRANCH  24  26
ENDBRANCH   4  22
TORSDOF 7
ENDMDL
MODEL 9
REMARK VINA RESULT:    -8.055      5.109      8.044
REMARK INTER + INTRA:         -12.071
REMARK INTER:                 -10.144
REMARK INTRA:                  -1.928
REMARK CONF_INDEPENDENT:        2.088
REMARK UNBOUND:                -1.928
REMARK  7 active torsions:
REMARK  status: ('A' for Active; 'I' for Inactive)
REMARK    1  A    between atoms: C_5  and  N_6 
REMARK       I    between atoms: N_6  and  C_7 
REMARK    2  A    between atoms: C_7  and  C_9 
REMARK    3  A    between atoms: C_9  and  N_10 
REMARK    4  A    between atoms: N_10  and  C_11 
REMARK    5  A    between atoms: C_14  and  C_15 
REMARK       I    between atoms: C_15  and  N_17 
REMARK    6  A    between atoms: N_17  and  C_18 
REMARK    7  A    between atoms: C_18  and  C_19 
ROOT
ATOM      1  C   UNL d   1      26.005 -13.872  -2.764  0.00  0.00     0.028 A 
ATOM      2  C   UNL d   1      24.819 -14.550  -3.071  0.00  0.00     0.030 A 
ATOM      3  C   UNL d   1      24.404 -15.670  -2.330  0.00  0.00     0.019 A 
ATOM      4  C   UNL d   1      25.199 -16.175  -1.289  0.00  0.00     0.032 A 
ATOM      5  C   UNL d   1      26.370 -15.484  -0.967  0.00  0.00     0.019 A 
ATOM      6  C   UNL d   1      26.765 -14.356  -1.703  0.00  0.00     0.030 A 
ENDROOT
BRANCH   1   7
ATOM      7  N   UNL d   1      26.387 -12.794  -3.529  0.00  0.00    -0.381 N 
ATOM      8  H   UNL d   1      26.879 -12.030  -3.051  0.00  0.00     0.160 HD
BRANCH   7   9
ATOM      9  C   UNL d   1      26.568 -12.807  -4.988  0.00  0.00     0.223 C 
BRANCH   9  10
ATOM     10  C   UNL d   1      27.274 -14.114  -5.383  0.00  0.00     0.239 C 
ATOM     11  N   UNL d   1      28.671 -14.097  -5.402  0.00  0.00    -0.326 N 
ATOM     12  H   UNL d   1      29.155 -13.243  -5.146  0.00  0.00     0.169 HD
ATOM     13  O   UNL d   1      26.563 -15.084  -5.667  0.00  0.00    -0.271 OA
BRANCH  11  14
ATOM     14  C   UNL d   1      29.487 -15.224  -5.726  0.00  0.00     0.035 A 
ATOM     15  C   UNL d   1      30.213 -15.278  -6.915  0.00  0.00     0.030 A 
ATOM     16  C   UNL d   1      30.976 -16.382  -7.270  0.00  0.00     0.009 A 
ATOM     17  C   UNL d   1      31.059 -17.487  -6.431  0.00  0.00    -0.056 A 
ATOM     18  C   UNL d   1      31.886 -18.656  -6.885  0.00  0.00     0.049 C 
ATOM     19  C   UNL d   1      30.372 -17.459  -5.201  0.00  0.00    -0.054 A 
ATOM     20  C   UNL d   1      29.583 -16.327  -4.859  0.00  0.00     0.037 A 
ATOM     21  C   UNL d   1      30.488 -18.628  -4.258  0.00  0.00     0.049 C 
ENDBRANCH  11  14
ENDBRANCH   9  10
ENDBRANCH   7   9
ENDBRANCH   1   7
BRANCH   4  22
ATOM     22  C   UNL d   1      24.792 -17.450  -0.607  0.00  0.00     0.251 C 
ATOM     23  O   UNL d   1      25.591 -18.032   0.131  0.00  0.00    -0.268 OA
ATOM     24  N   UNL d   1      23.506 -17.917  -0.798  0.00  0.00    -0.351 N 
ATOM     25  H   UNL d   1      22.846 -17.433  -1.387  0.00  0.00     0.163 HD
BRANCH  24  26
ATOM     26  C   UNL d   1      23.039 -19.126  -0.145  0.00  0.00     0.187 C 
BRANCH  26  27
ATOM     27  C   UNL d   1      21.554 -19.202  -0.228  0.00  0.00     0.070 A 
ATOM     28  C   UNL d   1      20.650 -20.078   0.338  0.00  0.00     0.036 A 
ATOM     29  C   UNL d   1      19.365 -19.667  -0.080  0.00  0.00     0.027 A 
ATOM     30  C   UNL d   1      19.561 -18.576  -0.894  0.00  0.00     0.142 A 
ATOM     31  O   UNL d   1      20.887 -18.281  -0.988  0.00  0.00    -0.325 OA
ENDBRANCH  26  27
ENDBRANCH  24  26
ENDBRANCH   4  22
TORSDOF 7
ENDMDL
