MODEL 1
REMARK VINA RESULT:   -10.104      0.000      0.000
REMARK INTER + INTRA:         -11.009
REMARK INTER:                 -10.402
REMARK INTRA:                  -0.607
REMARK CONF_INDEPENDENT:        0.298
REMARK UNBOUND:                -0.607
REMARK  1 active torsions:
REMARK  status: ('A' for Active; 'I' for Inactive)
REMARK    1  A    between atoms: C_13  and  C_12 
ROOT
ATOM      1  C   UNL d   1      26.127 -16.182  -1.898  0.00  0.00     0.084 C 
ATOM      2  C   UNL d   1      25.530 -15.881  -3.265  0.00  0.00     0.118 C 
ATOM      3  C   UNL d   1      25.266 -14.426  -3.542  0.00  0.00     0.223 C 
ATOM      4  O   UNL d   1      24.756 -14.075  -4.644  0.00  0.00    -0.273 OA
ATOM      5  N   UNL d   1      25.653 -13.467  -2.648  0.00  0.00    -0.327 N 
ATOM      6  C   UNL d   1      26.384 -13.725  -1.473  0.00  0.00     0.040 C 
ATOM      7  C   UNL d   1      26.945 -12.749  -0.621  0.00  0.00     0.035 C 
ATOM      8  C   UNL d   1      27.659 -13.115   0.572  0.00  0.00     0.112 C 
ATOM      9  C   UNL d   1      27.030 -14.112   1.225  0.00  0.00     0.040 C 
ATOM     10  C   UNL d   1      26.938 -15.193   0.289  0.00  0.00    -0.002 C 
ATOM     11  C   UNL d   1      26.540 -15.011  -1.059  0.00  0.00    -0.024 C 
ATOM     12  C   UNL d   1      27.717 -14.266   2.562  0.00  0.00     0.152 C 
ATOM     13  N   UNL d   1      28.964 -14.607   1.904  0.00  0.00    -0.337 N 
ATOM     14  N   UNL d   1      29.044 -13.740   0.718  0.00  0.00    -0.127 NA
ATOM     15  H   UNL d   1      25.443 -12.520  -2.949  0.00  0.00     0.169 HD
ATOM     16  H   UNL d   1      29.318 -15.575   1.957  0.00  0.00     0.175 HD
ENDROOT
BRANCH   1  17
ATOM     17  C   UNL d   1      25.319 -17.028  -0.931  0.00  0.00     0.075 A 
ATOM     18  N   UNL d   1      23.977 -17.150  -1.220  0.00  0.00    -0.225 NA
ATOM     19  C   UNL d   1      23.566 -18.143  -0.469  0.00  0.00     0.180 A 
ATOM     20  O   UNL d   1      24.552 -18.763   0.243  0.00  0.00    -0.294 OA
ATOM     21  C   UNL d   1      22.239 -18.691  -0.319  0.00  0.00     0.017 A 
ATOM     22  C   UNL d   1      25.677 -18.027  -0.007  0.00  0.00     0.077 A 
ATOM     23  C   UNL d   1      26.933 -18.594   0.569  0.00  0.00     0.079 C 
ATOM     24  C   UNL d   1      21.673 -18.775   0.957  0.00  0.00     0.016 A 
ATOM     25  C   UNL d   1      21.505 -19.111  -1.435  0.00  0.00     0.016 A 
ATOM     26  C   UNL d   1      20.406 -19.325   1.125  0.00  0.00     0.001 A 
ATOM     27  C   UNL d   1      19.675 -19.740   0.012  0.00  0.00     0.000 A 
ATOM     28  C   UNL d   1      20.221 -19.633  -1.266  0.00  0.00     0.001 A 
ENDBRANCH   1  17
TORSDOF 1
ENDMDL
MODEL 2
REMARK VINA RESULT:    -7.904      2.382      3.508
REMARK INTER + INTRA:          -8.900
REMARK INTER:                  -8.203
REMARK INTRA:                  -0.697
REMARK CONF_INDEPENDENT:        0.298
REMARK UNBOUND:                -0.697
REMARK  1 active torsions:
REMARK  status: ('A' for Active; 'I' for Inactive)
REMARK    1  A    between atoms: C_13  and  C_12 
ROOT
ATOM      1  C   UNL d   1      28.413 -13.828  -0.080  0.00  0.00     0.084 C 
ATOM      2  C   UNL d   1      28.120 -12.766  -1.131  0.00  0.00     0.118 C 
ATOM      3  C   UNL d   1      27.408 -11.542  -0.623  0.00  0.00     0.223 C 
ATOM      4  O   UNL d   1      27.105 -10.611  -1.421  0.00  0.00    -0.273 OA
ATOM      5  N   UNL d   1      27.160 -11.386   0.712  0.00  0.00    -0.327 N 
ATOM      6  C   UNL d   1      27.605 -12.273   1.712  0.00  0.00     0.040 C 
ATOM      7  C   UNL d   1      27.518 -12.055   3.104  0.00  0.00     0.035 C 
ATOM      8  C   UNL d   1      27.983 -13.035   4.047  0.00  0.00     0.112 C 
ATOM      9  C   UNL d   1      27.632 -14.279   3.667  0.00  0.00     0.040 C 
ATOM     10  C   UNL d   1      28.198 -14.462   2.363  0.00  0.00    -0.002 C 
ATOM     11  C   UNL d   1      28.122 -13.476   1.347  0.00  0.00    -0.024 C 
ATOM     12  C   UNL d   1      27.957 -15.201   4.818  0.00  0.00     0.152 C 
ATOM     13  N   UNL d   1      29.364 -14.865   4.715  0.00  0.00    -0.337 N 
ATOM     14  N   UNL d   1      29.413 -13.427   4.408  0.00  0.00    -0.127 NA
ATOM     15  H   UNL d   1      26.694 -10.514   0.941  0.00  0.00     0.169 HD
ATOM     16  H   UNL d   1      30.031 -15.570   4.364  0.00  0.00     0.175 HD
ENDROOT
BRANCH   1  17
ATOM     17  C   UNL d   1      27.764 -15.191  -0.236  0.00  0.00     0.075 A 
ATOM     18  N   UNL d   1      26.411 -15.243   0.022  0.00  0.00    -0.225 NA
ATOM     19  C   UNL d   1      26.025 -16.396  -0.469  0.00  0.00     0.180 A 
ATOM     20  O   UNL d   1      27.001 -17.091  -1.122  0.00  0.00    -0.294 OA
ATOM     21  C   UNL d   1      24.719 -17.009  -0.449  0.00  0.00     0.017 A 
ATOM     22  C   UNL d   1      28.137 -16.351  -0.940  0.00  0.00     0.077 A 
ATOM     23  C   UNL d   1      29.332 -16.851  -1.683  0.00  0.00     0.079 C 
ATOM     24  C   UNL d   1      24.573 -18.294   0.085  0.00  0.00     0.016 A 
ATOM     25  C   UNL d   1      23.595 -16.325  -0.930  0.00  0.00     0.016 A 
ATOM     26  C   UNL d   1      23.327 -18.913   0.089  0.00  0.00     0.001 A 
ATOM     27  C   UNL d   1      22.209 -18.228  -0.387  0.00  0.00     0.000 A 
ATOM     28  C   UNL d   1      22.341 -16.935  -0.895  0.00  0.00     0.001 A 
ENDBRANCH   1  17
TORSDOF 1
ENDMDL
MODEL 3
REMARK VINA RESULT:    -7.587      2.894      6.514
REMARK INTER + INTRA:          -8.531
REMARK INTER:                  -7.885
REMARK INTRA:                  -0.646
REMARK CONF_INDEPENDENT:        0.298
REMARK UNBOUND:                -0.646
REMARK  1 active torsions:
REMARK  status: ('A' for Active; 'I' for Inactive)
REMARK    1  A    between atoms: C_13  and  C_12 
ROOT
ATOM      1  C   UNL d   1      26.549 -16.582  -1.249  0.00  0.00     0.084 C 
ATOM      2  C   UNL d   1      25.289 -17.029  -0.522  0.00  0.00     0.118 C 
ATOM      3  C   UNL d   1      24.021 -16.351  -0.963  0.00  0.00     0.223 C 
ATOM      4  O   UNL d   1      22.923 -16.641  -0.409  0.00  0.00    -0.273 OA
ATOM      5  N   UNL d   1      24.028 -15.483  -2.020  0.00  0.00    -0.327 N 
ATOM      6  C   UNL d   1      25.154 -15.217  -2.822  0.00  0.00     0.040 C 
ATOM      7  C   UNL d   1      25.155 -14.465  -4.017  0.00  0.00     0.035 C 
ATOM      8  C   UNL d   1      26.366 -14.231  -4.755  0.00  0.00     0.112 C 
ATOM      9  C   UNL d   1      27.389 -13.941  -3.928  0.00  0.00     0.040 C 
ATOM     10  C   UNL d   1      27.498 -15.058  -3.037  0.00  0.00    -0.002 C 
ATOM     11  C   UNL d   1      26.374 -15.660  -2.418  0.00  0.00    -0.024 C 
ATOM     12  C   UNL d   1      28.542 -13.491  -4.793  0.00  0.00     0.152 C 
ATOM     13  N   UNL d   1      28.584 -14.785  -5.446  0.00  0.00    -0.337 N 
ATOM     14  N   UNL d   1      27.181 -15.200  -5.608  0.00  0.00    -0.127 NA
ATOM     15  H   UNL d   1      23.113 -15.102  -2.241  0.00  0.00     0.169 HD
ATOM     16  H   UNL d   1      29.374 -15.423  -5.261  0.00  0.00     0.175 HD
ENDROOT
BRANCH   1  17
ATOM     17  C   UNL d   1      27.644 -15.907  -0.442  0.00  0.00     0.075 A 
ATOM     18  N   UNL d   1      27.228 -15.248   0.695  0.00  0.00    -0.225 NA
ATOM     19  C   UNL d   1      28.330 -15.030   1.372  0.00  0.00     0.180 A 
ATOM     20  O   UNL d   1      29.454 -15.574   0.818  0.00  0.00    -0.294 OA
ATOM     21  C   UNL d   1      28.515 -14.337   2.624  0.00  0.00     0.017 A 
ATOM     22  C   UNL d   1      29.035 -16.101  -0.373  0.00  0.00     0.077 A 
ATOM     23  C   UNL d   1      30.077 -16.874  -1.111  0.00  0.00     0.079 C 
ATOM     24  C   UNL d   1      29.421 -13.273   2.691  0.00  0.00     0.016 A 
ATOM     25  C   UNL d   1      27.780 -14.697   3.760  0.00  0.00     0.016 A 
ATOM     26  C   UNL d   1      29.633 -12.609   3.895  0.00  0.00     0.001 A 
ATOM     27  C   UNL d   1      28.897 -12.968   5.025  0.00  0.00     0.000 A 
ATOM     28  C   UNL d   1      27.971 -14.008   4.959  0.00  0.00     0.001 A 
ENDBRANCH   1  17
TORSDOF 1
ENDMDL
MODEL 4
REMARK VINA RESULT:    -7.518      2.800      6.734
REMARK INTER + INTRA:          -8.492
REMARK INTER:                  -7.816
REMARK INTRA:                  -0.676
REMARK CONF_INDEPENDENT:        0.298
REMARK UNBOUND:                -0.676
REMARK  1 active torsions:
REMARK  status: ('A' for Active; 'I' for Inactive)
REMARK    1  A    between atoms: C_13  and  C_12 
ROOT
ATOM      1  C   UNL d   1      26.879 -16.855  -0.609  0.00  0.00     0.084 C 
ATOM      2  C   UNL d   1      26.161 -17.892   0.243  0.00  0.00     0.118 C 
ATOM      3  C   UNL d   1      24.662 -17.771   0.271  0.00  0.00     0.223 C 
ATOM      4  O   UNL d   1      23.976 -18.575   0.963  0.00  0.00    -0.273 OA
ATOM      5  N   UNL d   1      24.024 -16.851  -0.514  0.00  0.00    -0.327 N 
ATOM      6  C   UNL d   1      24.670 -16.023  -1.452  0.00  0.00     0.040 C 
ATOM      7  C   UNL d   1      24.030 -15.191  -2.395  0.00  0.00     0.035 C 
ATOM      8  C   UNL d   1      24.781 -14.364  -3.300  0.00  0.00     0.112 C 
ATOM      9  C   UNL d   1      25.818 -13.777  -2.671  0.00  0.00     0.040 C 
ATOM     10  C   UNL d   1      26.601 -14.847  -2.129  0.00  0.00    -0.002 C 
ATOM     11  C   UNL d   1      26.028 -15.950  -1.447  0.00  0.00    -0.024 C 
ATOM     12  C   UNL d   1      26.399 -12.764  -3.628  0.00  0.00     0.152 C 
ATOM     13  N   UNL d   1      26.725 -13.815  -4.573  0.00  0.00    -0.337 N 
ATOM     14  N   UNL d   1      25.603 -14.765  -4.522  0.00  0.00    -0.127 NA
ATOM     15  H   UNL d   1      23.013 -16.873  -0.429  0.00  0.00     0.169 HD
ATOM     16  H   UNL d   1      27.713 -14.071  -4.728  0.00  0.00     0.175 HD
ENDROOT
BRANCH   1  17
ATOM     17  C   UNL d   1      27.828 -15.891   0.080  0.00  0.00     0.075 A 
ATOM     18  N   UNL d   1      27.374 -15.347   1.263  0.00  0.00    -0.225 NA
ATOM     19  C   UNL d   1      28.440 -14.823   1.817  0.00  0.00     0.180 A 
ATOM     20  O   UNL d   1      29.603 -15.051   1.139  0.00  0.00    -0.294 OA
ATOM     21  C   UNL d   1      28.563 -14.080   3.048  0.00  0.00     0.017 A 
ATOM     22  C   UNL d   1      29.218 -15.696  -0.004  0.00  0.00     0.077 A 
ATOM     23  C   UNL d   1      30.346 -16.171  -0.860  0.00  0.00     0.079 C 
ATOM     24  C   UNL d   1      29.145 -12.809   3.026  0.00  0.00     0.016 A 
ATOM     25  C   UNL d   1      28.081 -14.604   4.255  0.00  0.00     0.016 A 
ATOM     26  C   UNL d   1      29.296 -12.088   4.207  0.00  0.00     0.001 A 
ATOM     27  C   UNL d   1      28.813 -12.610   5.406  0.00  0.00     0.000 A 
ATOM     28  C   UNL d   1      28.205 -13.865   5.432  0.00  0.00     0.001 A 
ENDBRANCH   1  17
TORSDOF 1
ENDMDL
MODEL 5
REMARK VINA RESULT:    -7.437      3.666      5.979
REMARK INTER + INTRA:          -8.119
REMARK INTER:                  -7.736
REMARK INTRA:                  -0.383
REMARK CONF_INDEPENDENT:        0.298
REMARK UNBOUND:                -0.383
REMARK  1 active torsions:
REMARK  status: ('A' for Active; 'I' for Inactive)
REMARK    1  A    between atoms: C_13  and  C_12 
ROOT
ATOM      1  C   UNL d   1      28.523 -13.988  -4.293  0.00  0.00     0.084 C 
ATOM      2  C   UNL d   1      29.317 -15.229  -4.675  0.00  0.00     0.118 C 
ATOM      3  C   UNL d   1      29.355 -15.536  -6.146  0.00  0.00     0.223 C 
ATOM      4  O   UNL d   1      29.975 -16.555  -6.563  0.00  0.00    -0.273 OA
ATOM      5  N   UNL d   1      28.797 -14.676  -7.051  0.00  0.00    -0.327 N 
ATOM      6  C   UNL d   1      28.235 -13.429  -6.719  0.00  0.00     0.040 C 
ATOM      7  C   UNL d   1      27.809 -12.447  -7.638  0.00  0.00     0.035 C 
ATOM      8  C   UNL d   1      27.225 -11.209  -7.198  0.00  0.00     0.112 C 
ATOM      9  C   UNL d   1      26.365 -11.414  -6.182  0.00  0.00     0.040 C 
ATOM     10  C   UNL d   1      27.125 -12.058  -5.152  0.00  0.00    -0.002 C 
ATOM     11  C   UNL d   1      28.018 -13.128  -5.411  0.00  0.00    -0.024 C 
ATOM     12  C   UNL d   1      25.641 -10.109  -5.946  0.00  0.00     0.152 C 
ATOM     13  N   UNL d   1      26.891  -9.453  -5.615  0.00  0.00    -0.337 N 
ATOM     14  N   UNL d   1      27.894 -10.005  -6.539  0.00  0.00    -0.127 NA
ATOM     15  H   UNL d   1      28.901 -14.976  -8.016  0.00  0.00     0.169 HD
ATOM     16  H   UNL d   1      27.075  -9.172  -4.638  0.00  0.00     0.175 HD
ENDROOT
BRANCH   1  17
ATOM     17  C   UNL d   1      27.297 -14.162  -3.414  0.00  0.00     0.075 A 
ATOM     18  N   UNL d   1      26.967 -15.462  -3.097  0.00  0.00    -0.225 NA
ATOM     19  C   UNL d   1      26.109 -15.355  -2.111  0.00  0.00     0.180 A 
ATOM     20  O   UNL d   1      25.901 -14.078  -1.676  0.00  0.00    -0.294 OA
ATOM     21  C   UNL d   1      25.390 -16.388  -1.405  0.00  0.00     0.017 A 
ATOM     22  C   UNL d   1      26.622 -13.295  -2.535  0.00  0.00     0.077 A 
ATOM     23  C   UNL d   1      26.655 -11.846  -2.178  0.00  0.00     0.079 C 
ATOM     24  C   UNL d   1      23.995 -16.325  -1.333  0.00  0.00     0.016 A 
ATOM     25  C   UNL d   1      26.069 -17.463  -0.818  0.00  0.00     0.016 A 
ATOM     26  C   UNL d   1      23.286 -17.297  -0.634  0.00  0.00     0.001 A 
ATOM     27  C   UNL d   1      23.964 -18.368  -0.053  0.00  0.00     0.000 A 
ATOM     28  C   UNL d   1      25.353 -18.453  -0.145  0.00  0.00     0.001 A 
ENDBRANCH   1  17
TORSDOF 1
ENDMDL
MODEL 6
REMARK VINA RESULT:    -7.361      4.372      6.811
REMARK INTER + INTRA:          -8.157
REMARK INTER:                  -7.660
REMARK INTRA:                  -0.498
REMARK CONF_INDEPENDENT:        0.298
REMARK UNBOUND:                -0.498
REMARK  1 active torsions:
REMARK  status: ('A' for Active; 'I' for Inactive)
REMARK    1  A    between atoms: C_13  and  C_12 
ROOT
ATOM      1  C   UNL d   1      28.670 -11.226   2.338  0.00  0.00     0.084 C 
ATOM      2  C   UNL d   1      28.048  -9.860   2.085  0.00  0.00     0.118 C 
ATOM      3  C   UNL d   1      27.157  -9.350   3.184  0.00  0.00     0.223 C 
ATOM      4  O   UNL d   1      26.580  -8.233   3.062  0.00  0.00    -0.273 OA
ATOM      5  N   UNL d   1      27.030 -10.044   4.355  0.00  0.00    -0.327 N 
ATOM      6  C   UNL d   1      27.757 -11.207   4.672  0.00  0.00     0.040 C 
ATOM      7  C   UNL d   1      27.780 -11.847   5.929  0.00  0.00     0.035 C 
ATOM      8  C   UNL d   1      28.541 -13.048   6.148  0.00  0.00     0.112 C 
ATOM      9  C   UNL d   1      28.418 -13.894   5.107  0.00  0.00     0.040 C 
ATOM     10  C   UNL d   1      28.863 -13.165   3.957  0.00  0.00    -0.002 C 
ATOM     11  C   UNL d   1      28.472 -11.828   3.695  0.00  0.00    -0.024 C 
ATOM     12  C   UNL d   1      29.053 -15.200   5.523  0.00  0.00     0.152 C 
ATOM     13  N   UNL d   1      30.339 -14.548   5.679  0.00  0.00    -0.337 N 
ATOM     14  N   UNL d   1      30.052 -13.227   6.261  0.00  0.00    -0.127 NA
ATOM     15  H   UNL d   1      26.420  -9.595   5.031  0.00  0.00     0.169 HD
ATOM     16  H   UNL d   1      31.096 -14.748   5.006  0.00  0.00     0.175 HD
ENDROOT
BRANCH   1  17
ATOM     17  C   UNL d   1      28.308 -12.365   1.402  0.00  0.00     0.075 A 
ATOM     18  N   UNL d   1      27.304 -12.099   0.496  0.00  0.00    -0.225 NA
ATOM     19  C   UNL d   1      27.383 -13.071  -0.381  0.00  0.00     0.180 A 
ATOM     20  O   UNL d   1      28.427 -13.929  -0.184  0.00  0.00    -0.294 OA
ATOM     21  C   UNL d   1      26.554 -13.337  -1.531  0.00  0.00     0.017 A 
ATOM     22  C   UNL d   1      29.002 -13.515   0.985  0.00  0.00     0.077 A 
ATOM     23  C   UNL d   1      30.261 -14.232   1.347  0.00  0.00     0.079 C 
ATOM     24  C   UNL d   1      25.936 -14.586  -1.657  0.00  0.00     0.016 A 
ATOM     25  C   UNL d   1      26.340 -12.354  -2.506  0.00  0.00     0.016 A 
ATOM     26  C   UNL d   1      25.155 -14.871  -2.772  0.00  0.00     0.001 A 
ATOM     27  C   UNL d   1      24.940 -13.890  -3.740  0.00  0.00     0.000 A 
ATOM     28  C   UNL d   1      25.530 -12.633  -3.608  0.00  0.00     0.001 A 
ENDBRANCH   1  17
TORSDOF 1
ENDMDL
MODEL 7
REMARK VINA RESULT:    -7.287      3.364      5.163
REMARK INTER + INTRA:          -8.287
REMARK INTER:                  -7.586
REMARK INTRA:                  -0.702
REMARK CONF_INDEPENDENT:        0.298
REMARK UNBOUND:                -0.702
REMARK  1 active torsions:
REMARK  status: ('A' for Active; 'I' for Inactive)
REMARK    1  A    between atoms: C_13  and  C_12 
ROOT
ATOM      1  C   UNL d   1      29.294 -15.943  -1.390  0.00  0.00     0.084 C 
ATOM      2  C   UNL d   1      30.069 -17.068  -0.719  0.00  0.00     0.118 C 
ATOM      3  C   UNL d   1      30.541 -18.158  -1.642  0.00  0.00     0.223 C 
ATOM      4  O   UNL d   1      31.180 -19.145  -1.179  0.00  0.00    -0.273 OA
ATOM      5  N   UNL d   1      30.362 -18.051  -2.994  0.00  0.00    -0.327 N 
ATOM      6  C   UNL d   1      29.823 -16.921  -3.636  0.00  0.00     0.040 C 
ATOM      7  C   UNL d   1      29.782 -16.707  -5.031  0.00  0.00     0.035 C 
ATOM      8  C   UNL d   1      29.188 -15.524  -5.593  0.00  0.00     0.112 C 
ATOM      9  C   UNL d   1      28.040 -15.213  -4.960  0.00  0.00     0.040 C 
ATOM     10  C   UNL d   1      28.388 -15.048  -3.580  0.00  0.00    -0.002 C 
ATOM     11  C   UNL d   1      29.232 -15.952  -2.887  0.00  0.00    -0.024 C 
ATOM     12  C   UNL d   1      27.382 -14.112  -5.758  0.00  0.00     0.152 C 
ATOM     13  N   UNL d   1      28.512 -13.235  -5.518  0.00  0.00    -0.337 N 
ATOM     14  N   UNL d   1      29.708 -14.089  -5.597  0.00  0.00    -0.127 NA
ATOM     15  H   UNL d   1      30.739 -18.834  -3.518  0.00  0.00     0.169 HD
ATOM     16  H   UNL d   1      28.403 -12.425  -4.888  0.00  0.00     0.175 HD
ENDROOT
BRANCH   1  17
ATOM     17  C   UNL d   1      27.845 -15.730  -0.989  0.00  0.00     0.075 A 
ATOM     18  N   UNL d   1      26.968 -16.725  -1.365  0.00  0.00    -0.225 NA
ATOM     19  C   UNL d   1      25.885 -16.495  -0.662  0.00  0.00     0.180 A 
ATOM     20  O   UNL d   1      25.996 -15.469   0.232  0.00  0.00    -0.294 OA
ATOM     21  C   UNL d   1      24.620 -17.189  -0.672  0.00  0.00     0.017 A 
ATOM     22  C   UNL d   1      27.235 -14.937  -0.000  0.00  0.00     0.077 A 
ATOM     23  C   UNL d   1      27.642 -13.866   0.958  0.00  0.00     0.079 C 
ATOM     24  C   UNL d   1      23.445 -16.467  -0.905  0.00  0.00     0.016 A 
ATOM     25  C   UNL d   1      24.559 -18.575  -0.482  0.00  0.00     0.016 A 
ATOM     26  C   UNL d   1      22.213 -17.115  -0.892  0.00  0.00     0.001 A 
ATOM     27  C   UNL d   1      22.155 -18.495  -0.706  0.00  0.00     0.000 A 
ATOM     28  C   UNL d   1      23.325 -19.226  -0.502  0.00  0.00     0.001 A 
ENDBRANCH   1  17
TORSDOF 1
ENDMDL
MODEL 8
REMARK VINA RESULT:    -7.229      2.782      7.259
REMARK INTER + INTRA:          -8.197
REMARK INTER:                  -7.528
REMARK INTRA:                  -0.669
REMARK CONF_INDEPENDENT:        0.298
REMARK UNBOUND:                -0.669
REMARK  1 active torsions:
REMARK  status: ('A' for Active; 'I' for Inactive)
REMARK    1  A    between atoms: C_13  and  C_12 
ROOT
ATOM      1  C   UNL d   1      27.674 -16.246  -2.484  0.00  0.00     0.084 C 
ATOM      2  C   UNL d   1      29.154 -16.110  -2.157  0.00  0.00     0.118 C 
ATOM      3  C   UNL d   1      29.510 -16.313  -0.710  0.00  0.00     0.223 C 
ATOM      4  O   UNL d   1      30.712 -16.204  -0.334  0.00  0.00    -0.273 OA
ATOM      5  N   UNL d   1      28.559 -16.699   0.193  0.00  0.00    -0.327 N 
ATOM      6  C   UNL d   1      27.230 -17.019  -0.142  0.00  0.00     0.040 C 
ATOM      7  C   UNL d   1      26.274 -17.583   0.730  0.00  0.00     0.035 C 
ATOM      8  C   UNL d   1      24.930 -17.854   0.297  0.00  0.00     0.112 C 
ATOM      9  C   UNL d   1      24.452 -16.845  -0.456  0.00  0.00     0.040 C 
ATOM     10  C   UNL d   1      25.364 -16.711  -1.553  0.00  0.00    -0.002 C 
ATOM     11  C   UNL d   1      26.772 -16.725  -1.388  0.00  0.00    -0.024 C 
ATOM     12  C   UNL d   1      22.980 -17.110  -0.666  0.00  0.00     0.152 C 
ATOM     13  N   UNL d   1      23.281 -18.348  -1.358  0.00  0.00    -0.337 N 
ATOM     14  N   UNL d   1      24.417 -18.946  -0.638  0.00  0.00    -0.127 NA
ATOM     15  H   UNL d   1      28.918 -16.826   1.134  0.00  0.00     0.169 HD
ATOM     16  H   UNL d   1      23.124 -18.413  -2.376  0.00  0.00     0.175 HD
ENDROOT
BRANCH   1  17
ATOM     17  C   UNL d   1      26.942 -15.030  -3.022  0.00  0.00     0.075 A 
ATOM     18  N   UNL d   1      27.295 -13.822  -2.460  0.00  0.00    -0.225 NA
ATOM     19  C   UNL d   1      26.793 -12.920  -3.269  0.00  0.00     0.180 A 
ATOM     20  O   UNL d   1      26.201 -13.430  -4.389  0.00  0.00    -0.294 OA
ATOM     21  C   UNL d   1      26.810 -11.482  -3.163  0.00  0.00     0.017 A 
ATOM     22  C   UNL d   1      26.248 -14.786  -4.221  0.00  0.00     0.077 A 
ATOM     23  C   UNL d   1      25.768 -15.575  -5.395  0.00  0.00     0.079 C 
ATOM     24  C   UNL d   1      25.602 -10.777  -3.204  0.00  0.00     0.016 A 
ATOM     25  C   UNL d   1      28.014 -10.788  -2.990  0.00  0.00     0.016 A 
ATOM     26  C   UNL d   1      25.600  -9.387  -3.130  0.00  0.00     0.001 A 
ATOM     27  C   UNL d   1      26.800  -8.699  -2.955  0.00  0.00     0.000 A 
ATOM     28  C   UNL d   1      28.006  -9.396  -2.884  0.00  0.00     0.001 A 
ENDBRANCH   1  17
TORSDOF 1
ENDMDL
