MODEL 1
REMARK VINA RESULT:    -8.136      0.000      0.000
REMARK INTER + INTRA:          -9.718
REMARK INTER:                  -9.031
REMARK INTRA:                  -0.687
REMARK CONF_INDEPENDENT:        0.895
REMARK UNBOUND:                -0.687
REMARK  3 active torsions:
REMARK  status: ('A' for Active; 'I' for Inactive)
REMARK       I    between atoms: C_2  and  N_3 
REMARK    1  A    between atoms: C_12  and  C_2 
REMARK    2  A    between atoms: N_3  and  N_4 
REMARK    3  A    between atoms: N_4  and  C_5 
ROOT
ATOM      1  O   UNL d   1      20.523 -17.817  -1.270  0.00  0.00    -0.271 OA
ATOM      2  C   UNL d   1      21.110 -18.576  -0.498  0.00  0.00     0.240 C 
ATOM      3  N   UNL d   1      22.467 -18.488  -0.224  0.00  0.00    -0.269 N 
ATOM      4  H   UNL d   1      22.911 -18.991   0.537  0.00  0.00     0.190 HD
ENDROOT
BRANCH   3   5
ATOM      5  N   UNL d   1      23.247 -17.605  -0.940  0.00  0.00    -0.298 N 
ATOM      6  H   UNL d   1      22.799 -17.018  -1.643  0.00  0.00     0.187 HD
BRANCH   5   7
ATOM      7  C   UNL d   1      24.623 -17.566  -0.705  0.00  0.00     0.048 A 
ATOM      8  C   UNL d   1      25.229 -18.203   0.391  0.00  0.00     0.034 A 
ATOM      9  C   UNL d   1      26.610 -18.109   0.605  0.00  0.00     0.044 A 
ATOM     10  C   UNL d   1      27.388 -17.352  -0.261  0.00  0.00     0.116 A 
ATOM     11  F   UNL d   1      28.708 -17.259  -0.057  0.00  0.00    -0.206 F 
ATOM     12  C   UNL d   1      26.810 -16.689  -1.335  0.00  0.00     0.044 A 
ATOM     13  C   UNL d   1      25.434 -16.798  -1.553  0.00  0.00     0.034 A 
ENDBRANCH   5   7
ENDBRANCH   3   5
BRANCH   2  14
ATOM     14  C   UNL d   1      20.425 -19.715   0.260  0.00  0.00     0.083 C 
ATOM     15  C   UNL d   1      19.110 -20.060  -0.464  0.00  0.00     0.041 C 
ATOM     16  C   UNL d   1      18.174 -20.911   0.328  0.00  0.00    -0.030 C 
ATOM     17  C   UNL d   1      18.303 -21.096   1.648  0.00  0.00    -0.031 C 
ATOM     18  C   UNL d   1      19.382 -20.450   2.465  0.00  0.00     0.027 C 
ATOM     19  C   UNL d   1      20.139 -19.343   1.723  0.00  0.00     0.018 C 
ENDBRANCH   2  14
TORSDOF 3
ENDMDL
MODEL 2
REMARK VINA RESULT:    -7.454      3.050      7.045
REMARK INTER + INTRA:          -8.902
REMARK INTER:                  -8.349
REMARK INTRA:                  -0.553
REMARK CONF_INDEPENDENT:        0.895
REMARK UNBOUND:                -0.553
REMARK  3 active torsions:
REMARK  status: ('A' for Active; 'I' for Inactive)
REMARK       I    between atoms: C_2  and  N_3 
REMARK    1  A    between atoms: C_12  and  C_2 
REMARK    2  A    between atoms: N_3  and  N_4 
REMARK    3  A    between atoms: N_4  and  C_5 
ROOT
ATOM      1  O   UNL d   1      22.528 -16.045  -0.559  0.00  0.00    -0.271 OA
ATOM      2  C   UNL d   1      22.970 -17.142  -0.903  0.00  0.00     0.240 C 
ATOM      3  N   UNL d   1      22.164 -18.203  -1.290  0.00  0.00    -0.269 N 
ATOM      4  H   UNL d   1      22.527 -19.037  -1.738  0.00  0.00     0.190 HD
ENDROOT
BRANCH   3   5
ATOM      5  N   UNL d   1      20.795 -18.097  -1.161  0.00  0.00    -0.298 N 
ATOM      6  H   UNL d   1      20.318 -17.334  -1.640  0.00  0.00     0.187 HD
BRANCH   5   7
ATOM      7  C   UNL d   1      20.114 -19.012  -0.354  0.00  0.00     0.048 A 
ATOM      8  C   UNL d   1      20.526 -19.336   0.949  0.00  0.00     0.034 A 
ATOM      9  C   UNL d   1      19.831 -20.285   1.709  0.00  0.00     0.044 A 
ATOM     10  C   UNL d   1      18.737 -20.938   1.156  0.00  0.00     0.116 A 
ATOM     11  F   UNL d   1      18.072 -21.847   1.880  0.00  0.00    -0.206 F 
ATOM     12  C   UNL d   1      18.327 -20.658  -0.140  0.00  0.00     0.044 A 
ATOM     13  C   UNL d   1      19.015 -19.698  -0.889  0.00  0.00     0.034 A 
ENDBRANCH   5   7
ENDBRANCH   3   5
BRANCH   2  14
ATOM     14  C   UNL d   1      24.461 -17.482  -0.951  0.00  0.00     0.083 C 
ATOM     15  C   UNL d   1      24.852 -18.146   0.382  0.00  0.00     0.041 C 
ATOM     16  C   UNL d   1      26.323 -18.232   0.621  0.00  0.00    -0.030 C 
ATOM     17  C   UNL d   1      27.214 -17.524  -0.083  0.00  0.00    -0.031 C 
ATOM     18  C   UNL d   1      26.825 -16.558  -1.162  0.00  0.00     0.027 C 
ATOM     19  C   UNL d   1      25.327 -16.236  -1.193  0.00  0.00     0.018 C 
ENDBRANCH   2  14
TORSDOF 3
ENDMDL
MODEL 3
REMARK VINA RESULT:    -6.401      1.630      2.016
REMARK INTER + INTRA:          -7.947
REMARK INTER:                  -7.296
REMARK INTRA:                  -0.651
REMARK CONF_INDEPENDENT:        0.895
REMARK UNBOUND:                -0.651
REMARK  3 active torsions:
REMARK  status: ('A' for Active; 'I' for Inactive)
REMARK       I    between atoms: C_2  and  N_3 
REMARK    1  A    between atoms: C_12  and  C_2 
REMARK    2  A    between atoms: N_3  and  N_4 
REMARK    3  A    between atoms: N_4  and  C_5 
ROOT
ATOM      1  O   UNL d   1      20.489 -19.653  -2.218  0.00  0.00    -0.271 OA
ATOM      2  C   UNL d   1      20.739 -19.277  -1.072  0.00  0.00     0.240 C 
ATOM      3  N   UNL d   1      21.903 -18.607  -0.724  0.00  0.00    -0.269 N 
ATOM      4  H   UNL d   1      22.027 -18.145   0.170  0.00  0.00     0.190 HD
ENDROOT
BRANCH   3   5
ATOM      5  N   UNL d   1      22.907 -18.465  -1.658  0.00  0.00    -0.298 N 
ATOM      6  H   UNL d   1      22.909 -19.080  -2.470  0.00  0.00     0.187 HD
BRANCH   5   7
ATOM      7  C   UNL d   1      23.905 -17.511  -1.444  0.00  0.00     0.048 A 
ATOM      8  C   UNL d   1      23.954 -16.701  -0.297  0.00  0.00     0.034 A 
ATOM      9  C   UNL d   1      24.955 -15.733  -0.142  0.00  0.00     0.044 A 
ATOM     10  C   UNL d   1      25.894 -15.551  -1.148  0.00  0.00     0.116 A 
ATOM     11  F   UNL d   1      26.851 -14.625  -1.002  0.00  0.00    -0.206 F 
ATOM     12  C   UNL d   1      25.851 -16.318  -2.304  0.00  0.00     0.044 A 
ATOM     13  C   UNL d   1      24.859 -17.293  -2.448  0.00  0.00     0.034 A 
ENDBRANCH   5   7
ENDBRANCH   3   5
BRANCH   2  14
ATOM     14  C   UNL d   1      19.802 -19.495   0.118  0.00  0.00     0.083 C 
ATOM     15  C   UNL d   1      20.648 -19.539   1.403  0.00  0.00     0.041 C 
ATOM     16  C   UNL d   1      19.930 -20.072   2.598  0.00  0.00    -0.030 C 
ATOM     17  C   UNL d   1      18.777 -20.747   2.510  0.00  0.00    -0.031 C 
ATOM     18  C   UNL d   1      18.105 -21.055   1.204  0.00  0.00     0.027 C 
ATOM     19  C   UNL d   1      18.987 -20.791  -0.022  0.00  0.00     0.018 C 
ENDBRANCH   2  14
TORSDOF 3
ENDMDL
MODEL 4
REMARK VINA RESULT:    -5.817      3.086      7.279
REMARK INTER + INTRA:          -7.080
REMARK INTER:                  -6.712
REMARK INTRA:                  -0.368
REMARK CONF_INDEPENDENT:        0.895
REMARK UNBOUND:                -0.368
REMARK  3 active torsions:
REMARK  status: ('A' for Active; 'I' for Inactive)
REMARK       I    between atoms: C_2  and  N_3 
REMARK    1  A    between atoms: C_12  and  C_2 
REMARK    2  A    between atoms: N_3  and  N_4 
REMARK    3  A    between atoms: N_4  and  C_5 
ROOT
ATOM      1  O   UNL d   1      23.049 -16.138  -1.214  0.00  0.00    -0.271 OA
ATOM      2  C   UNL d   1      24.085 -16.802  -1.285  0.00  0.00     0.240 C 
ATOM      3  N   UNL d   1      24.335 -17.913  -0.493  0.00  0.00    -0.269 N 
ATOM      4  H   UNL d   1      25.098 -18.557  -0.672  0.00  0.00     0.190 HD
ENDROOT
BRANCH   3   5
ATOM      5  N   UNL d   1      23.462 -18.231   0.526  0.00  0.00    -0.298 N 
ATOM      6  H   UNL d   1      23.793 -18.173   1.488  0.00  0.00     0.187 HD
BRANCH   5   7
ATOM      7  C   UNL d   1      22.169 -18.651   0.207  0.00  0.00     0.048 A 
ATOM      8  C   UNL d   1      21.201 -18.950   1.180  0.00  0.00     0.034 A 
ATOM      9  C   UNL d   1      19.927 -19.401   0.814  0.00  0.00     0.044 A 
ATOM     10  C   UNL d   1      19.625 -19.585  -0.529  0.00  0.00     0.116 A 
ATOM     11  F   UNL d   1      18.407 -20.018  -0.881  0.00  0.00    -0.206 F 
ATOM     12  C   UNL d   1      20.572 -19.325  -1.509  0.00  0.00     0.044 A 
ATOM     13  C   UNL d   1      21.838 -18.860  -1.140  0.00  0.00     0.034 A 
ENDBRANCH   5   7
ENDBRANCH   3   5
BRANCH   2  14
ATOM     14  C   UNL d   1      25.229 -16.492  -2.252  0.00  0.00     0.083 C 
ATOM     15  C   UNL d   1      26.562 -16.670  -1.503  0.00  0.00     0.041 C 
ATOM     16  C   UNL d   1      27.746 -16.089  -2.202  0.00  0.00    -0.030 C 
ATOM     17  C   UNL d   1      27.636 -15.220  -3.215  0.00  0.00    -0.031 C 
ATOM     18  C   UNL d   1      26.317 -14.726  -3.731  0.00  0.00     0.027 C 
ATOM     19  C   UNL d   1      25.130 -15.069  -2.823  0.00  0.00     0.018 C 
ENDBRANCH   2  14
TORSDOF 3
ENDMDL
MODEL 5
REMARK VINA RESULT:    -5.786      4.998      8.272
REMARK INTER + INTRA:          -7.171
REMARK INTER:                  -6.681
REMARK INTRA:                  -0.491
REMARK CONF_INDEPENDENT:        0.895
REMARK UNBOUND:                -0.491
REMARK  3 active torsions:
REMARK  status: ('A' for Active; 'I' for Inactive)
REMARK       I    between atoms: C_2  and  N_3 
REMARK    1  A    between atoms: C_12  and  C_2 
REMARK    2  A    between atoms: N_3  and  N_4 
REMARK    3  A    between atoms: N_4  and  C_5 
ROOT
ATOM      1  O   UNL d   1      27.169 -13.533   1.697  0.00  0.00    -0.271 OA
ATOM      2  C   UNL d   1      27.780 -14.506   2.141  0.00  0.00     0.240 C 
ATOM      3  N   UNL d   1      28.200 -15.569   1.354  0.00  0.00    -0.269 N 
ATOM      4  H   UNL d   1      28.850 -16.275   1.682  0.00  0.00     0.190 HD
ENDROOT
BRANCH   3   5
ATOM      5  N   UNL d   1      27.808 -15.631   0.034  0.00  0.00    -0.298 N 
ATOM      6  H   UNL d   1      28.395 -15.186  -0.671  0.00  0.00     0.187 HD
BRANCH   5   7
ATOM      7  C   UNL d   1      26.608 -16.268  -0.291  0.00  0.00     0.048 A 
ATOM      8  C   UNL d   1      25.607 -15.661  -1.067  0.00  0.00     0.034 A 
ATOM      9  C   UNL d   1      24.405 -16.326  -1.339  0.00  0.00     0.044 A 
ATOM     10  C   UNL d   1      24.186 -17.591  -0.810  0.00  0.00     0.116 A 
ATOM     11  F   UNL d   1      23.037 -18.229  -1.068  0.00  0.00    -0.206 F 
ATOM     12  C   UNL d   1      25.147 -18.202  -0.016  0.00  0.00     0.044 A 
ATOM     13  C   UNL d   1      26.352 -17.540   0.240  0.00  0.00     0.034 A 
ENDBRANCH   5   7
ENDBRANCH   3   5
BRANCH   2  14
ATOM     14  C   UNL d   1      28.157 -14.673   3.615  0.00  0.00     0.083 C 
ATOM     15  C   UNL d   1      27.336 -13.670   4.444  0.00  0.00     0.041 C 
ATOM     16  C   UNL d   1      27.823 -13.477   5.842  0.00  0.00    -0.030 C 
ATOM     17  C   UNL d   1      29.034 -13.879   6.248  0.00  0.00    -0.031 C 
ATOM     18  C   UNL d   1      30.028 -14.538   5.338  0.00  0.00     0.027 C 
ATOM     19  C   UNL d   1      29.659 -14.450   3.853  0.00  0.00     0.018 C 
ENDBRANCH   2  14
TORSDOF 3
ENDMDL
MODEL 6
REMARK VINA RESULT:    -5.745      4.008      8.087
REMARK INTER + INTRA:          -7.097
REMARK INTER:                  -6.640
REMARK INTRA:                  -0.457
REMARK CONF_INDEPENDENT:        0.895
REMARK UNBOUND:                -0.457
REMARK  3 active torsions:
REMARK  status: ('A' for Active; 'I' for Inactive)
REMARK       I    between atoms: C_2  and  N_3 
REMARK    1  A    between atoms: C_12  and  C_2 
REMARK    2  A    between atoms: N_3  and  N_4 
REMARK    3  A    between atoms: N_4  and  C_5 
ROOT
ATOM      1  O   UNL d   1      23.914 -14.450  -3.091  0.00  0.00    -0.271 OA
ATOM      2  C   UNL d   1      25.119 -14.649  -3.252  0.00  0.00     0.240 C 
ATOM      3  N   UNL d   1      25.928 -15.253  -2.301  0.00  0.00    -0.269 N 
ATOM      4  H   UNL d   1      26.869 -15.575  -2.501  0.00  0.00     0.190 HD
ENDROOT
BRANCH   3   5
ATOM      5  N   UNL d   1      25.415 -15.529  -1.052  0.00  0.00    -0.298 N 
ATOM      6  H   UNL d   1      25.754 -14.992  -0.255  0.00  0.00     0.187 HD
BRANCH   5   7
ATOM      7  C   UNL d   1      24.476 -16.554  -0.913  0.00  0.00     0.048 A 
ATOM      8  C   UNL d   1      23.090 -16.323  -0.895  0.00  0.00     0.034 A 
ATOM      9  C   UNL d   1      22.186 -17.378  -0.720  0.00  0.00     0.044 A 
ATOM     10  C   UNL d   1      22.667 -18.668  -0.531  0.00  0.00     0.116 A 
ATOM     11  F   UNL d   1      21.804 -19.678  -0.361  0.00  0.00    -0.206 F 
ATOM     12  C   UNL d   1      24.032 -18.919  -0.515  0.00  0.00     0.044 A 
ATOM     13  C   UNL d   1      24.930 -17.864  -0.706  0.00  0.00     0.034 A 
ENDBRANCH   5   7
ENDBRANCH   3   5
BRANCH   2  14
ATOM     14  C   UNL d   1      25.883 -14.258  -4.519  0.00  0.00     0.083 C 
ATOM     15  C   UNL d   1      27.036 -15.258  -4.720  0.00  0.00     0.041 C 
ATOM     16  C   UNL d   1      28.064 -14.825  -5.713  0.00  0.00    -0.030 C 
ATOM     17  C   UNL d   1      28.161 -13.563  -6.152  0.00  0.00    -0.031 C 
ATOM     18  C   UNL d   1      27.267 -12.458  -5.673  0.00  0.00     0.027 C 
ATOM     19  C   UNL d   1      26.434 -12.826  -4.440  0.00  0.00     0.018 C 
ENDBRANCH   2  14
TORSDOF 3
ENDMDL
MODEL 7
REMARK VINA RESULT:    -5.567      4.457      6.623
REMARK INTER + INTRA:          -7.152
REMARK INTER:                  -6.462
REMARK INTRA:                  -0.690
REMARK CONF_INDEPENDENT:        0.895
REMARK UNBOUND:                -0.690
REMARK  3 active torsions:
REMARK  status: ('A' for Active; 'I' for Inactive)
REMARK       I    between atoms: C_2  and  N_3 
REMARK    1  A    between atoms: C_12  and  C_2 
REMARK    2  A    between atoms: N_3  and  N_4 
REMARK    3  A    between atoms: N_4  and  C_5 
ROOT
ATOM      1  O   UNL d   1      24.335 -14.445  -3.194  0.00  0.00    -0.271 OA
ATOM      2  C   UNL d   1      25.154 -15.244  -2.737  0.00  0.00     0.240 C 
ATOM      3  N   UNL d   1      26.363 -15.534  -3.352  0.00  0.00    -0.269 N 
ATOM      4  H   UNL d   1      27.106 -16.049  -2.892  0.00  0.00     0.190 HD
ENDROOT
BRANCH   3   5
ATOM      5  N   UNL d   1      26.626 -15.022  -4.604  0.00  0.00    -0.298 N 
ATOM      6  H   UNL d   1      25.875 -14.551  -5.107  0.00  0.00     0.187 HD
BRANCH   5   7
ATOM      7  C   UNL d   1      27.898 -15.193  -5.156  0.00  0.00     0.048 A 
ATOM      8  C   UNL d   1      28.904 -15.952  -4.536  0.00  0.00     0.034 A 
ATOM      9  C   UNL d   1      30.176 -16.068  -5.110  0.00  0.00     0.044 A 
ATOM     10  C   UNL d   1      30.457 -15.398  -6.293  0.00  0.00     0.116 A 
ATOM     11  F   UNL d   1      31.674 -15.506  -6.843  0.00  0.00    -0.206 F 
ATOM     12  C   UNL d   1      29.491 -14.617  -6.912  0.00  0.00     0.044 A 
ATOM     13  C   UNL d   1      28.217 -14.517  -6.343  0.00  0.00     0.034 A 
ENDBRANCH   5   7
ENDBRANCH   3   5
BRANCH   2  14
ATOM     14  C   UNL d   1      24.948 -16.021  -1.435  0.00  0.00     0.083 C 
ATOM     15  C   UNL d   1      26.329 -16.408  -0.876  0.00  0.00     0.041 C 
ATOM     16  C   UNL d   1      26.293 -17.443   0.199  0.00  0.00    -0.030 C 
ATOM     17  C   UNL d   1      25.215 -18.201   0.439  0.00  0.00    -0.031 C 
ATOM     18  C   UNL d   1      23.949 -18.103  -0.360  0.00  0.00     0.027 C 
ATOM     19  C   UNL d   1      24.092 -17.280  -1.645  0.00  0.00     0.018 C 
ENDBRANCH   2  14
TORSDOF 3
ENDMDL
MODEL 8
REMARK VINA RESULT:    -5.533      4.887      6.707
REMARK INTER + INTRA:          -7.188
REMARK INTER:                  -6.428
REMARK INTRA:                  -0.760
REMARK CONF_INDEPENDENT:        0.895
REMARK UNBOUND:                -0.760
REMARK  3 active torsions:
REMARK  status: ('A' for Active; 'I' for Inactive)
REMARK       I    between atoms: C_2  and  N_3 
REMARK    1  A    between atoms: C_12  and  C_2 
REMARK    2  A    between atoms: N_3  and  N_4 
REMARK    3  A    between atoms: N_4  and  C_5 
ROOT
ATOM      1  O   UNL d   1      28.538 -17.128  -0.312  0.00  0.00    -0.271 OA
ATOM      2  C   UNL d   1      27.430 -16.695   0.009  0.00  0.00     0.240 C 
ATOM      3  N   UNL d   1      27.245 -15.692   0.949  0.00  0.00    -0.269 N 
ATOM      4  H   UNL d   1      26.359 -15.217   1.082  0.00  0.00     0.190 HD
ENDROOT
BRANCH   3   5
ATOM      5  N   UNL d   1      28.325 -15.235   1.674  0.00  0.00    -0.298 N 
ATOM      6  H   UNL d   1      29.253 -15.582   1.437  0.00  0.00     0.187 HD
BRANCH   5   7
ATOM      7  C   UNL d   1      28.110 -14.342   2.726  0.00  0.00     0.048 A 
ATOM      8  C   UNL d   1      27.923 -12.963   2.532  0.00  0.00     0.034 A 
ATOM      9  C   UNL d   1      27.745 -12.101   3.620  0.00  0.00     0.044 A 
ATOM     10  C   UNL d   1      27.782 -12.610   4.912  0.00  0.00     0.116 A 
ATOM     11  F   UNL d   1      27.613 -11.786   5.955  0.00  0.00    -0.206 F 
ATOM     12  C   UNL d   1      27.994 -13.964   5.133  0.00  0.00     0.044 A 
ATOM     13  C   UNL d   1      28.157 -14.823   4.042  0.00  0.00     0.034 A 
ENDBRANCH   5   7
ENDBRANCH   3   5
BRANCH   2  14
ATOM     14  C   UNL d   1      26.114 -17.204  -0.583  0.00  0.00     0.083 C 
ATOM     15  C   UNL d   1      25.236 -15.989  -0.934  0.00  0.00     0.041 C 
ATOM     16  C   UNL d   1      23.806 -16.319  -1.208  0.00  0.00    -0.030 C 
ATOM     17  C   UNL d   1      23.256 -17.492  -0.873  0.00  0.00    -0.031 C 
ATOM     18  C   UNL d   1      24.011 -18.581  -0.169  0.00  0.00     0.027 C 
ATOM     19  C   UNL d   1      25.367 -18.132   0.388  0.00  0.00     0.018 C 
ENDBRANCH   2  14
TORSDOF 3
ENDMDL
MODEL 9
REMARK VINA RESULT:    -5.485      3.815      5.470
REMARK INTER + INTRA:          -7.064
REMARK INTER:                  -6.380
REMARK INTRA:                  -0.684
REMARK CONF_INDEPENDENT:        0.895
REMARK UNBOUND:                -0.684
REMARK  3 active torsions:
REMARK  status: ('A' for Active; 'I' for Inactive)
REMARK       I    between atoms: C_2  and  N_3 
REMARK    1  A    between atoms: C_12  and  C_2 
REMARK    2  A    between atoms: N_3  and  N_4 
REMARK    3  A    between atoms: N_4  and  C_5 
ROOT
ATOM      1  O   UNL d   1      26.985 -17.806   0.099  0.00  0.00    -0.271 OA
ATOM      2  C   UNL d   1      26.046 -17.308  -0.524  0.00  0.00     0.240 C 
ATOM      3  N   UNL d   1      26.212 -16.507  -1.644  0.00  0.00    -0.269 N 
ATOM      4  H   UNL d   1      25.446 -16.247  -2.255  0.00  0.00     0.190 HD
ENDROOT
BRANCH   3   5
ATOM      5  N   UNL d   1      27.481 -16.121  -2.019  0.00  0.00    -0.298 N 
ATOM      6  H   UNL d   1      28.238 -16.209  -1.342  0.00  0.00     0.187 HD
BRANCH   5   7
ATOM      7  C   UNL d   1      27.683 -15.592  -3.296  0.00  0.00     0.048 A 
ATOM      8  C   UNL d   1      26.713 -14.828  -3.968  0.00  0.00     0.034 A 
ATOM      9  C   UNL d   1      26.947 -14.346  -5.262  0.00  0.00     0.044 A 
ATOM     10  C   UNL d   1      28.140 -14.652  -5.902  0.00  0.00     0.116 A 
ATOM     11  F   UNL d   1      28.364 -14.193  -7.141  0.00  0.00    -0.206 F 
ATOM     12  C   UNL d   1      29.102 -15.429  -5.273  0.00  0.00     0.044 A 
ATOM     13  C   UNL d   1      28.871 -15.895  -3.975  0.00  0.00     0.034 A 
ENDBRANCH   5   7
ENDBRANCH   3   5
BRANCH   2  14
ATOM     14  C   UNL d   1      24.576 -17.506  -0.147  0.00  0.00     0.083 C 
ATOM     15  C   UNL d   1      24.172 -18.947  -0.505  0.00  0.00     0.041 C 
ATOM     16  C   UNL d   1      22.699 -19.193  -0.509  0.00  0.00    -0.030 C 
ATOM     17  C   UNL d   1      21.799 -18.202  -0.520  0.00  0.00    -0.031 C 
ATOM     18  C   UNL d   1      22.178 -16.750  -0.556  0.00  0.00     0.027 C 
ATOM     19  C   UNL d   1      23.659 -16.506  -0.868  0.00  0.00     0.018 C 
ENDBRANCH   2  14
TORSDOF 3
ENDMDL
