MODEL 1
REMARK VINA RESULT:    -7.159      0.000      0.000
REMARK INTER + INTRA:         -11.342
REMARK INTER:                  -9.248
REMARK INTRA:                  -2.094
REMARK CONF_INDEPENDENT:        2.088
REMARK UNBOUND:                -2.094
REMARK  7 active torsions:
REMARK  status: ('A' for Active; 'I' for Inactive)
REMARK    1  A    between atoms: C_2  and  C_3 
REMARK    2  A    between atoms: C_3  and  C_4 
REMARK    3  A    between atoms: C_4  and  N_5 
REMARK    4  A    between atoms: C_11  and  C_12 
REMARK    5  A    between atoms: C_17  and  O_18 
REMARK    6  A    between atoms: C_20  and  C_21 
REMARK    7  A    between atoms: C_25  and  O_26 
ROOT
ATOM      1  N   UNL d   1      26.093 -17.181  -0.544  0.00  0.00    -0.334 N 
ATOM      2  C   UNL d   1      27.121 -17.447   0.370  0.00  0.00     0.273 A 
ATOM      3  O   UNL d   1      27.030 -17.681   1.567  0.00  0.00    -0.266 OA
ATOM      4  C   UNL d   1      28.300 -17.341  -0.400  0.00  0.00     0.129 A 
ATOM      5  N   UNL d   1      29.630 -17.429  -0.237  0.00  0.00    -0.272 N 
ATOM      6  N   UNL d   1      30.293 -17.242  -1.407  0.00  0.00    -0.173 NA
ATOM      7  C   UNL d   1      29.329 -16.939  -2.314  0.00  0.00     0.101 A 
ATOM      8  C   UNL d   1      28.059 -17.003  -1.701  0.00  0.00     0.034 A 
ATOM      9  C   UNL d   1      26.596 -16.865  -1.922  0.00  0.00     0.159 A 
ATOM     10  H   UNL d   1      30.159 -17.618   0.609  0.00  0.00     0.189 HD
ENDROOT
BRANCH   7  11
ATOM     11  C   UNL d   1      29.663 -16.577  -3.692  0.00  0.00     0.028 A 
ATOM     12  C   UNL d   1      29.114 -15.442  -4.304  0.00  0.00     0.017 A 
ATOM     13  C   UNL d   1      29.436 -15.130  -5.632  0.00  0.00     0.001 A 
ATOM     14  C   UNL d   1      30.320 -15.935  -6.355  0.00  0.00     0.003 A 
ATOM     15  C   UNL d   1      30.878 -17.058  -5.757  0.00  0.00     0.037 A 
ATOM     16  C   UNL d   1      30.519 -17.382  -4.452  0.00  0.00     0.078 A 
BRANCH  16  17
ATOM     17  O   UNL d   1      30.937 -18.575  -3.949  0.00  0.00    -0.360 OA
ATOM     18  H   UNL d   1      31.059 -18.510  -2.989  0.00  0.00     0.217 HD
ENDBRANCH  16  17
ENDBRANCH   7  11
BRANCH   9  19
ATOM     19  C   UNL d   1      26.266 -15.452  -2.327  0.00  0.00    -0.028 A 
ATOM     20  C   UNL d   1      27.040 -14.361  -1.885  0.00  0.00     0.010 A 
ATOM     21  C   UNL d   1      26.704 -13.054  -2.228  0.00  0.00     0.003 A 
ATOM     22  C   UNL d   1      25.582 -12.809  -3.018  0.00  0.00     0.036 A 
ATOM     23  C   UNL d   1      24.818 -13.881  -3.471  0.00  0.00     0.066 A 
ATOM     24  C   UNL d   1      25.147 -15.192  -3.133  0.00  0.00     0.046 A 
BRANCH  23  25
ATOM     25  O   UNL d   1      23.728 -13.700  -4.272  0.00  0.00    -0.361 OA
ATOM     26  H   UNL d   1      23.961 -13.104  -5.002  0.00  0.00     0.217 HD
ENDBRANCH  23  25
ENDBRANCH   9  19
BRANCH   1  27
ATOM     27  C   UNL d   1      24.701 -16.995  -0.142  0.00  0.00     0.127 C 
BRANCH  27  28
ATOM     28  C   UNL d   1      23.723 -17.786  -1.020  0.00  0.00     0.020 C 
BRANCH  28  29
ATOM     29  C   UNL d   1      22.845 -18.741  -0.215  0.00  0.00    -0.003 C 
ATOM     30  C   UNL d   1      21.498 -18.928  -0.898  0.00  0.00     0.005 C 
ENDBRANCH  28  29
ENDBRANCH  27  28
ENDBRANCH   1  27
TORSDOF 7
ENDMDL
MODEL 2
REMARK VINA RESULT:    -6.627      1.197      1.496
REMARK INTER + INTRA:         -10.816
REMARK INTER:                  -8.715
REMARK INTRA:                  -2.100
REMARK CONF_INDEPENDENT:        2.088
REMARK UNBOUND:                -2.100
REMARK  7 active torsions:
REMARK  status: ('A' for Active; 'I' for Inactive)
REMARK    1  A    between atoms: C_2  and  C_3 
REMARK    2  A    between atoms: C_3  and  C_4 
REMARK    3  A    between atoms: C_4  and  N_5 
REMARK    4  A    between atoms: C_11  and  C_12 
REMARK    5  A    between atoms: C_17  and  O_18 
REMARK    6  A    between atoms: C_20  and  C_21 
REMARK    7  A    between atoms: C_25  and  O_26 
ROOT
ATOM      1  N   UNL d   1      25.513 -16.800  -1.099  0.00  0.00    -0.334 N 
ATOM      2  C   UNL d   1      26.441 -17.281  -0.165  0.00  0.00     0.273 A 
ATOM      3  O   UNL d   1      26.242 -17.642   0.985  0.00  0.00    -0.266 OA
ATOM      4  C   UNL d   1      27.678 -17.211  -0.846  0.00  0.00     0.129 A 
ATOM      5  N   UNL d   1      28.977 -17.461  -0.617  0.00  0.00    -0.272 N 
ATOM      6  N   UNL d   1      29.737 -17.210  -1.713  0.00  0.00    -0.173 NA
ATOM      7  C   UNL d   1      28.876 -16.700  -2.631  0.00  0.00     0.101 A 
ATOM      8  C   UNL d   1      27.565 -16.700  -2.106  0.00  0.00     0.034 A 
ATOM      9  C   UNL d   1      26.143 -16.381  -2.395  0.00  0.00     0.159 A 
ATOM     10  H   UNL d   1      29.423 -17.803   0.230  0.00  0.00     0.189 HD
ENDROOT
BRANCH   7  11
ATOM     11  C   UNL d   1      29.342 -16.217  -3.931  0.00  0.00     0.028 A 
ATOM     12  C   UNL d   1      28.892 -15.002  -4.463  0.00  0.00     0.017 A 
ATOM     13  C   UNL d   1      29.341 -14.572  -5.721  0.00  0.00     0.001 A 
ATOM     14  C   UNL d   1      30.252 -15.341  -6.448  0.00  0.00     0.003 A 
ATOM     15  C   UNL d   1      30.713 -16.543  -5.927  0.00  0.00     0.037 A 
ATOM     16  C   UNL d   1      30.230 -16.981  -4.697  0.00  0.00     0.078 A 
BRANCH  16  17
ATOM     17  O   UNL d   1      30.556 -18.237  -4.290  0.00  0.00    -0.360 OA
ATOM     18  H   UNL d   1      30.718 -18.247  -3.333  0.00  0.00     0.217 HD
ENDBRANCH  16  17
ENDBRANCH   7  11
BRANCH   9  19
ATOM     19  C   UNL d   1      25.985 -14.902  -2.639  0.00  0.00    -0.028 A 
ATOM     20  C   UNL d   1      25.260 -14.413  -3.743  0.00  0.00     0.010 A 
ATOM     21  C   UNL d   1      25.155 -13.045  -3.986  0.00  0.00     0.003 A 
ATOM     22  C   UNL d   1      25.776 -12.137  -3.130  0.00  0.00     0.036 A 
ATOM     23  C   UNL d   1      26.482 -12.610  -2.028  0.00  0.00     0.066 A 
ATOM     24  C   UNL d   1      26.594 -13.976  -1.777  0.00  0.00     0.046 A 
BRANCH  23  25
ATOM     25  O   UNL d   1      27.084 -11.764  -1.142  0.00  0.00    -0.361 OA
ATOM     26  H   UNL d   1      27.889 -11.399  -1.542  0.00  0.00     0.217 HD
ENDBRANCH  23  25
ENDBRANCH   9  19
BRANCH   1  27
ATOM     27  C   UNL d   1      24.122 -16.514  -0.759  0.00  0.00     0.127 C 
BRANCH  27  28
ATOM     28  C   UNL d   1      23.417 -17.711  -0.108  0.00  0.00     0.020 C 
BRANCH  28  29
ATOM     29  C   UNL d   1      22.809 -18.668  -1.131  0.00  0.00    -0.003 C 
ATOM     30  C   UNL d   1      21.312 -18.818  -0.895  0.00  0.00     0.005 C 
ENDBRANCH  28  29
ENDBRANCH  27  28
ENDBRANCH   1  27
TORSDOF 7
ENDMDL
MODEL 3
REMARK VINA RESULT:    -6.451      2.438      6.842
REMARK INTER + INTRA:         -10.770
REMARK INTER:                  -8.539
REMARK INTRA:                  -2.230
REMARK CONF_INDEPENDENT:        2.088
REMARK UNBOUND:                -2.230
REMARK  7 active torsions:
REMARK  status: ('A' for Active; 'I' for Inactive)
REMARK    1  A    between atoms: C_2  and  C_3 
REMARK    2  A    between atoms: C_3  and  C_4 
REMARK    3  A    between atoms: C_4  and  N_5 
REMARK    4  A    between atoms: C_11  and  C_12 
REMARK    5  A    between atoms: C_17  and  O_18 
REMARK    6  A    between atoms: C_20  and  C_21 
REMARK    7  A    between atoms: C_25  and  O_26 
ROOT
ATOM      1  N   UNL d   1      27.946 -14.614  -4.793  0.00  0.00    -0.334 N 
ATOM      2  C   UNL d   1      27.049 -13.572  -5.068  0.00  0.00     0.273 A 
ATOM      3  O   UNL d   1      27.207 -12.612  -5.807  0.00  0.00    -0.266 OA
ATOM      4  C   UNL d   1      25.928 -13.863  -4.259  0.00  0.00     0.129 A 
ATOM      5  N   UNL d   1      24.727 -13.341  -3.963  0.00  0.00    -0.272 N 
ATOM      6  N   UNL d   1      24.043 -14.119  -3.086  0.00  0.00    -0.173 NA
ATOM      7  C   UNL d   1      24.900 -15.121  -2.761  0.00  0.00     0.101 A 
ATOM      8  C   UNL d   1      26.096 -14.984  -3.498  0.00  0.00     0.034 A 
ATOM      9  C   UNL d   1      27.429 -15.583  -3.771  0.00  0.00     0.159 A 
ATOM     10  H   UNL d   1      24.299 -12.487  -4.310  0.00  0.00     0.189 HD
ENDROOT
BRANCH   7  11
ATOM     11  C   UNL d   1      24.554 -16.127  -1.757  0.00  0.00     0.028 A 
ATOM     12  C   UNL d   1      25.464 -17.120  -1.372  0.00  0.00     0.017 A 
ATOM     13  C   UNL d   1      25.098 -18.083  -0.420  0.00  0.00     0.001 A 
ATOM     14  C   UNL d   1      23.831 -18.054   0.166  0.00  0.00     0.003 A 
ATOM     15  C   UNL d   1      22.922 -17.070  -0.200  0.00  0.00     0.037 A 
ATOM     16  C   UNL d   1      23.280 -16.143  -1.175  0.00  0.00     0.078 A 
BRANCH  16  17
ATOM     17  O   UNL d   1      22.319 -15.302  -1.644  0.00  0.00    -0.360 OA
ATOM     18  H   UNL d   1      22.714 -14.635  -2.228  0.00  0.00     0.217 HD
ENDBRANCH  16  17
ENDBRANCH   7  11
BRANCH   9  19
ATOM     19  C   UNL d   1      28.266 -15.572  -2.518  0.00  0.00    -0.028 A 
ATOM     20  C   UNL d   1      28.494 -14.384  -1.797  0.00  0.00     0.010 A 
ATOM     21  C   UNL d   1      29.305 -14.375  -0.663  0.00  0.00     0.003 A 
ATOM     22  C   UNL d   1      29.907 -15.555  -0.229  0.00  0.00     0.036 A 
ATOM     23  C   UNL d   1      29.675 -16.737  -0.927  0.00  0.00     0.066 A 
ATOM     24  C   UNL d   1      28.867 -16.756  -2.061  0.00  0.00     0.046 A 
BRANCH  23  25
ATOM     25  O   UNL d   1      30.215 -17.925  -0.528  0.00  0.00    -0.361 OA
ATOM     26  H   UNL d   1      30.294 -17.933   0.440  0.00  0.00     0.217 HD
ENDBRANCH  23  25
ENDBRANCH   9  19
BRANCH   1  27
ATOM     27  C   UNL d   1      29.327 -14.617  -5.268  0.00  0.00     0.127 C 
BRANCH  27  28
ATOM     28  C   UNL d   1      29.717 -15.945  -5.931  0.00  0.00     0.020 C 
BRANCH  28  29
ATOM     29  C   UNL d   1      30.620 -16.804  -5.048  0.00  0.00    -0.003 C 
ATOM     30  C   UNL d   1      30.400 -18.281  -5.342  0.00  0.00     0.005 C 
ENDBRANCH  28  29
ENDBRANCH  27  28
ENDBRANCH   1  27
TORSDOF 7
ENDMDL
MODEL 4
REMARK VINA RESULT:    -6.257      2.555      5.593
REMARK INTER + INTRA:         -10.568
REMARK INTER:                  -8.345
REMARK INTRA:                  -2.223
REMARK CONF_INDEPENDENT:        2.088
REMARK UNBOUND:                -2.223
REMARK  7 active torsions:
REMARK  status: ('A' for Active; 'I' for Inactive)
REMARK    1  A    between atoms: C_2  and  C_3 
REMARK    2  A    between atoms: C_3  and  C_4 
REMARK    3  A    between atoms: C_4  and  N_5 
REMARK    4  A    between atoms: C_11  and  C_12 
REMARK    5  A    between atoms: C_17  and  O_18 
REMARK    6  A    between atoms: C_20  and  C_21 
REMARK    7  A    between atoms: C_25  and  O_26 
ROOT
ATOM      1  N   UNL d   1      28.299 -12.779  -0.659  0.00  0.00    -0.334 N 
ATOM      2  C   UNL d   1      29.257 -13.505   0.062  0.00  0.00     0.273 A 
ATOM      3  O   UNL d   1      30.399 -13.177   0.349  0.00  0.00    -0.266 OA
ATOM      4  C   UNL d   1      28.615 -14.731   0.347  0.00  0.00     0.129 A 
ATOM      5  N   UNL d   1      28.881 -15.899   0.952  0.00  0.00    -0.272 N 
ATOM      6  N   UNL d   1      27.809 -16.732   0.929  0.00  0.00    -0.173 NA
ATOM      7  C   UNL d   1      26.870 -16.078   0.200  0.00  0.00     0.101 A 
ATOM      8  C   UNL d   1      27.354 -14.806  -0.173  0.00  0.00     0.034 A 
ATOM      9  C   UNL d   1      27.025 -13.541  -0.880  0.00  0.00     0.159 A 
ATOM     10  H   UNL d   1      29.739 -16.204   1.404  0.00  0.00     0.189 HD
ENDROOT
BRANCH   7  11
ATOM     11  C   UNL d   1      25.587 -16.701  -0.129  0.00  0.00     0.028 A 
ATOM     12  C   UNL d   1      24.519 -15.951  -0.638  0.00  0.00     0.017 A 
ATOM     13  C   UNL d   1      23.294 -16.571  -0.926  0.00  0.00     0.001 A 
ATOM     14  C   UNL d   1      23.131 -17.943  -0.725  0.00  0.00     0.003 A 
ATOM     15  C   UNL d   1      24.185 -18.700  -0.230  0.00  0.00     0.037 A 
ATOM     16  C   UNL d   1      25.383 -18.068   0.092  0.00  0.00     0.078 A 
BRANCH  16  17
ATOM     17  O   UNL d   1      26.336 -18.792   0.738  0.00  0.00    -0.360 OA
ATOM     18  H   UNL d   1      27.161 -18.284   0.794  0.00  0.00     0.217 HD
ENDBRANCH  16  17
ENDBRANCH   7  11
BRANCH   9  19
ATOM     19  C   UNL d   1      26.785 -13.814  -2.342  0.00  0.00    -0.028 A 
ATOM     20  C   UNL d   1      27.853 -14.045  -3.232  0.00  0.00     0.010 A 
ATOM     21  C   UNL d   1      27.625 -14.254  -4.590  0.00  0.00     0.003 A 
ATOM     22  C   UNL d   1      26.324 -14.234  -5.088  0.00  0.00     0.036 A 
ATOM     23  C   UNL d   1      25.260 -14.021  -4.215  0.00  0.00     0.066 A 
ATOM     24  C   UNL d   1      25.478 -13.810  -2.855  0.00  0.00     0.046 A 
BRANCH  23  25
ATOM     25  O   UNL d   1      23.966 -14.021  -4.645  0.00  0.00    -0.361 OA
ATOM     26  H   UNL d   1      23.842 -13.309  -5.293  0.00  0.00     0.217 HD
ENDBRANCH  23  25
ENDBRANCH   9  19
BRANCH   1  27
ATOM     27  C   UNL d   1      28.599 -11.515  -1.327  0.00  0.00     0.127 C 
BRANCH  27  28
ATOM     28  C   UNL d   1      27.334 -10.731  -1.698  0.00  0.00     0.020 C 
BRANCH  28  29
ATOM     29  C   UNL d   1      27.142 -10.595  -3.206  0.00  0.00    -0.003 C 
ATOM     30  C   UNL d   1      25.710 -10.191  -3.526  0.00  0.00     0.005 C 
ENDBRANCH  28  29
ENDBRANCH  27  28
ENDBRANCH   1  27
TORSDOF 7
ENDMDL
MODEL 5
REMARK VINA RESULT:    -6.188      2.695      6.580
REMARK INTER + INTRA:          -9.947
REMARK INTER:                  -8.276
REMARK INTRA:                  -1.671
REMARK CONF_INDEPENDENT:        2.088
REMARK UNBOUND:                -1.671
REMARK  7 active torsions:
REMARK  status: ('A' for Active; 'I' for Inactive)
REMARK    1  A    between atoms: C_2  and  C_3 
REMARK    2  A    between atoms: C_3  and  C_4 
REMARK    3  A    between atoms: C_4  and  N_5 
REMARK    4  A    between atoms: C_11  and  C_12 
REMARK    5  A    between atoms: C_17  and  O_18 
REMARK    6  A    between atoms: C_20  and  C_21 
REMARK    7  A    between atoms: C_25  and  O_26 
ROOT
ATOM      1  N   UNL d   1      28.212 -13.596  -3.006  0.00  0.00    -0.334 N 
ATOM      2  C   UNL d   1      27.287 -12.921  -3.814  0.00  0.00     0.273 A 
ATOM      3  O   UNL d   1      27.480 -11.966  -4.552  0.00  0.00    -0.266 OA
ATOM      4  C   UNL d   1      26.061 -13.572  -3.549  0.00  0.00     0.129 A 
ATOM      5  N   UNL d   1      24.769 -13.487  -3.905  0.00  0.00    -0.272 N 
ATOM      6  N   UNL d   1      24.020 -14.448  -3.308  0.00  0.00    -0.173 NA
ATOM      7  C   UNL d   1      24.875 -15.100  -2.480  0.00  0.00     0.101 A 
ATOM      8  C   UNL d   1      26.175 -14.568  -2.622  0.00  0.00     0.034 A 
ATOM      9  C   UNL d   1      27.588 -14.681  -2.176  0.00  0.00     0.159 A 
ATOM     10  H   UNL d   1      24.323 -12.830  -4.539  0.00  0.00     0.189 HD
ENDROOT
BRANCH   7  11
ATOM     11  C   UNL d   1      24.414 -16.160  -1.584  0.00  0.00     0.028 A 
ATOM     12  C   UNL d   1      23.112 -16.166  -1.066  0.00  0.00     0.017 A 
ATOM     13  C   UNL d   1      22.703 -17.185  -0.193  0.00  0.00     0.001 A 
ATOM     14  C   UNL d   1      23.581 -18.213   0.155  0.00  0.00     0.003 A 
ATOM     15  C   UNL d   1      24.871 -18.225  -0.359  0.00  0.00     0.037 A 
ATOM     16  C   UNL d   1      25.281 -17.187  -1.191  0.00  0.00     0.078 A 
BRANCH  16  17
ATOM     17  O   UNL d   1      26.594 -17.124  -1.539  0.00  0.00    -0.360 OA
ATOM     18  H   UNL d   1      27.118 -17.718  -0.979  0.00  0.00     0.217 HD
ENDBRANCH  16  17
ENDBRANCH   7  11
BRANCH   9  19
ATOM     19  C   UNL d   1      27.690 -14.383  -0.702  0.00  0.00    -0.028 A 
ATOM     20  C   UNL d   1      26.655 -13.722  -0.013  0.00  0.00     0.010 A 
ATOM     21  C   UNL d   1      26.774 -13.412   1.340  0.00  0.00     0.003 A 
ATOM     22  C   UNL d   1      27.935 -13.756   2.032  0.00  0.00     0.036 A 
ATOM     23  C   UNL d   1      28.958 -14.423   1.363  0.00  0.00     0.066 A 
ATOM     24  C   UNL d   1      28.847 -14.736   0.010  0.00  0.00     0.046 A 
BRANCH  23  25
ATOM     25  O   UNL d   1      30.101 -14.808   2.000  0.00  0.00    -0.361 OA
ATOM     26  H   UNL d   1      29.912 -15.575   2.564  0.00  0.00     0.217 HD
ENDBRANCH  23  25
ENDBRANCH   9  19
BRANCH   1  27
ATOM     27  C   UNL d   1      29.583 -13.133  -2.813  0.00  0.00     0.127 C 
BRANCH  27  28
ATOM     28  C   UNL d   1      30.621 -14.146  -3.313  0.00  0.00     0.020 C 
BRANCH  28  29
ATOM     29  C   UNL d   1      30.109 -14.995  -4.474  0.00  0.00    -0.003 C 
ATOM     30  C   UNL d   1      29.813 -16.413  -4.007  0.00  0.00     0.005 C 
ENDBRANCH  28  29
ENDBRANCH  27  28
ENDBRANCH   1  27
TORSDOF 7
ENDMDL
MODEL 6
REMARK VINA RESULT:    -5.778      3.295      6.261
REMARK INTER + INTRA:         -10.082
REMARK INTER:                  -7.867
REMARK INTRA:                  -2.216
REMARK CONF_INDEPENDENT:        2.088
REMARK UNBOUND:                -2.216
REMARK  7 active torsions:
REMARK  status: ('A' for Active; 'I' for Inactive)
REMARK    1  A    between atoms: C_2  and  C_3 
REMARK    2  A    between atoms: C_3  and  C_4 
REMARK    3  A    between atoms: C_4  and  N_5 
REMARK    4  A    between atoms: C_11  and  C_12 
REMARK    5  A    between atoms: C_17  and  O_18 
REMARK    6  A    between atoms: C_20  and  C_21 
REMARK    7  A    between atoms: C_25  and  O_26 
ROOT
ATOM      1  N   UNL d   1      25.624 -15.287  -2.891  0.00  0.00    -0.334 N 
ATOM      2  C   UNL d   1      25.772 -15.106  -4.273  0.00  0.00     0.273 A 
ATOM      3  O   UNL d   1      25.742 -15.950  -5.156  0.00  0.00    -0.266 OA
ATOM      4  C   UNL d   1      26.009 -13.720  -4.412  0.00  0.00     0.129 A 
ATOM      5  N   UNL d   1      26.262 -12.827  -5.382  0.00  0.00    -0.272 N 
ATOM      6  N   UNL d   1      26.385 -11.569  -4.886  0.00  0.00    -0.173 NA
ATOM      7  C   UNL d   1      26.290 -11.709  -3.540  0.00  0.00     0.101 A 
ATOM      8  C   UNL d   1      26.043 -13.061  -3.217  0.00  0.00     0.034 A 
ATOM      9  C   UNL d   1      25.797 -14.019  -2.108  0.00  0.00     0.159 A 
ATOM     10  H   UNL d   1      26.355 -12.979  -6.383  0.00  0.00     0.189 HD
ENDROOT
BRANCH   7  11
ATOM     11  C   UNL d   1      26.466 -10.571  -2.638  0.00  0.00     0.028 A 
ATOM     12  C   UNL d   1      27.294 -10.652  -1.511  0.00  0.00     0.017 A 
ATOM     13  C   UNL d   1      27.430  -9.552  -0.652  0.00  0.00     0.001 A 
ATOM     14  C   UNL d   1      26.756  -8.358  -0.920  0.00  0.00     0.003 A 
ATOM     15  C   UNL d   1      25.940  -8.260  -2.040  0.00  0.00     0.037 A 
ATOM     16  C   UNL d   1      25.779  -9.372  -2.862  0.00  0.00     0.078 A 
BRANCH  16  17
ATOM     17  O   UNL d   1      24.843  -9.311  -3.848  0.00  0.00    -0.360 OA
ATOM     18  H   UNL d   1      24.785 -10.163  -4.308  0.00  0.00     0.217 HD
ENDBRANCH  16  17
ENDBRANCH   7  11
BRANCH   9  19
ATOM     19  C   UNL d   1      27.000 -14.081  -1.202  0.00  0.00    -0.028 A 
ATOM     20  C   UNL d   1      28.285 -13.740  -1.664  0.00  0.00     0.010 A 
ATOM     21  C   UNL d   1      29.399 -13.841  -0.833  0.00  0.00     0.003 A 
ATOM     22  C   UNL d   1      29.250 -14.290   0.478  0.00  0.00     0.036 A 
ATOM     23  C   UNL d   1      27.981 -14.616   0.948  0.00  0.00     0.066 A 
ATOM     24  C   UNL d   1      26.862 -14.519   0.125  0.00  0.00     0.046 A 
BRANCH  23  25
ATOM     25  O   UNL d   1      27.775 -15.032   2.231  0.00  0.00    -0.361 OA
ATOM     26  H   UNL d   1      28.528 -15.573   2.519  0.00  0.00     0.217 HD
ENDBRANCH  23  25
ENDBRANCH   9  19
BRANCH   1  27
ATOM     27  C   UNL d   1      25.553 -16.606  -2.267  0.00  0.00     0.127 C 
BRANCH  27  28
ATOM     28  C   UNL d   1      24.282 -16.792  -1.428  0.00  0.00     0.020 C 
BRANCH  28  29
ATOM     29  C   UNL d   1      24.462 -17.802  -0.297  0.00  0.00    -0.003 C 
ATOM     30  C   UNL d   1      25.933 -17.935   0.068  0.00  0.00     0.005 C 
ENDBRANCH  28  29
ENDBRANCH  27  28
ENDBRANCH   1  27
TORSDOF 7
ENDMDL
MODEL 7
REMARK VINA RESULT:    -5.696      3.135      5.090
REMARK INTER + INTRA:         -10.151
REMARK INTER:                  -7.785
REMARK INTRA:                  -2.366
REMARK CONF_INDEPENDENT:        2.088
REMARK UNBOUND:                -2.366
REMARK  7 active torsions:
REMARK  status: ('A' for Active; 'I' for Inactive)
REMARK    1  A    between atoms: C_2  and  C_3 
REMARK    2  A    between atoms: C_3  and  C_4 
REMARK    3  A    between atoms: C_4  and  N_5 
REMARK    4  A    between atoms: C_11  and  C_12 
REMARK    5  A    between atoms: C_17  and  O_18 
REMARK    6  A    between atoms: C_20  and  C_21 
REMARK    7  A    between atoms: C_25  and  O_26 
ROOT
ATOM      1  N   UNL d   1      26.646 -14.923  -2.490  0.00  0.00    -0.334 N 
ATOM      2  C   UNL d   1      25.442 -14.486  -3.059  0.00  0.00     0.273 A 
ATOM      3  O   UNL d   1      24.302 -14.818  -2.770  0.00  0.00    -0.266 OA
ATOM      4  C   UNL d   1      25.849 -13.601  -4.083  0.00  0.00     0.129 A 
ATOM      5  N   UNL d   1      25.300 -12.839  -5.042  0.00  0.00    -0.272 N 
ATOM      6  N   UNL d   1      26.243 -12.157  -5.742  0.00  0.00    -0.173 NA
ATOM      7  C   UNL d   1      27.431 -12.587  -5.245  0.00  0.00     0.101 A 
ATOM      8  C   UNL d   1      27.206 -13.495  -4.188  0.00  0.00     0.034 A 
ATOM      9  C   UNL d   1      27.858 -14.347  -3.160  0.00  0.00     0.159 A 
ATOM     10  H   UNL d   1      24.320 -12.718  -5.280  0.00  0.00     0.189 HD
ENDROOT
BRANCH   7  11
ATOM     11  C   UNL d   1      28.703 -12.142  -5.814  0.00  0.00     0.028 A 
ATOM     12  C   UNL d   1      29.405 -11.055  -5.276  0.00  0.00     0.017 A 
ATOM     13  C   UNL d   1      30.613 -10.638  -5.854  0.00  0.00     0.001 A 
ATOM     14  C   UNL d   1      31.138 -11.311  -6.959  0.00  0.00     0.003 A 
ATOM     15  C   UNL d   1      30.457 -12.396  -7.497  0.00  0.00     0.037 A 
ATOM     16  C   UNL d   1      29.238 -12.775  -6.942  0.00  0.00     0.078 A 
BRANCH  16  17
ATOM     17  O   UNL d   1      28.506 -13.722  -7.589  0.00  0.00    -0.360 OA
ATOM     18  H   UNL d   1      29.093 -14.362  -8.020  0.00  0.00     0.217 HD
ENDBRANCH  16  17
ENDBRANCH   7  11
BRANCH   9  19
ATOM     19  C   UNL d   1      28.687 -15.415  -3.826  0.00  0.00    -0.028 A 
ATOM     20  C   UNL d   1      29.257 -16.470  -3.087  0.00  0.00     0.010 A 
ATOM     21  C   UNL d   1      30.058 -17.430  -3.703  0.00  0.00     0.003 A 
ATOM     22  C   UNL d   1      30.309 -17.351  -5.072  0.00  0.00     0.036 A 
ATOM     23  C   UNL d   1      29.738 -16.320  -5.814  0.00  0.00     0.066 A 
ATOM     24  C   UNL d   1      28.937 -15.356  -5.207  0.00  0.00     0.046 A 
BRANCH  23  25
ATOM     25  O   UNL d   1      29.927 -16.214  -7.161  0.00  0.00    -0.361 OA
ATOM     26  H   UNL d   1      29.288 -15.580  -7.526  0.00  0.00     0.217 HD
ENDBRANCH  23  25
ENDBRANCH   9  19
BRANCH   1  27
ATOM     27  C   UNL d   1      26.714 -16.005  -1.511  0.00  0.00     0.127 C 
BRANCH  27  28
ATOM     28  C   UNL d   1      25.572 -17.017  -1.673  0.00  0.00     0.020 C 
BRANCH  28  29
ATOM     29  C   UNL d   1      24.967 -17.445  -0.338  0.00  0.00    -0.003 C 
ATOM     30  C   UNL d   1      23.528 -17.902  -0.528  0.00  0.00     0.005 C 
ENDBRANCH  28  29
ENDBRANCH  27  28
ENDBRANCH   1  27
TORSDOF 7
ENDMDL
MODEL 8
REMARK VINA RESULT:    -5.552      2.991      7.045
REMARK INTER + INTRA:          -9.916
REMARK INTER:                  -7.640
REMARK INTRA:                  -2.277
REMARK CONF_INDEPENDENT:        2.088
REMARK UNBOUND:                -2.277
REMARK  7 active torsions:
REMARK  status: ('A' for Active; 'I' for Inactive)
REMARK    1  A    between atoms: C_2  and  C_3 
REMARK    2  A    between atoms: C_3  and  C_4 
REMARK    3  A    between atoms: C_4  and  N_5 
REMARK    4  A    between atoms: C_11  and  C_12 
REMARK    5  A    between atoms: C_17  and  O_18 
REMARK    6  A    between atoms: C_20  and  C_21 
REMARK    7  A    between atoms: C_25  and  O_26 
ROOT
ATOM      1  N   UNL d   1      31.087 -17.673  -5.556  0.00  0.00    -0.334 N 
ATOM      2  C   UNL d   1      30.863 -16.828  -6.651  0.00  0.00     0.273 A 
ATOM      3  O   UNL d   1      31.521 -16.724  -7.676  0.00  0.00    -0.266 OA
ATOM      4  C   UNL d   1      29.719 -16.085  -6.282  0.00  0.00     0.129 A 
ATOM      5  N   UNL d   1      28.944 -15.104  -6.772  0.00  0.00    -0.272 N 
ATOM      6  N   UNL d   1      27.923 -14.803  -5.930  0.00  0.00    -0.173 NA
ATOM      7  C   UNL d   1      28.131 -15.575  -4.833  0.00  0.00     0.101 A 
ATOM      8  C   UNL d   1      29.257 -16.401  -5.036  0.00  0.00     0.034 A 
ATOM      9  C   UNL d   1      30.105 -17.467  -4.440  0.00  0.00     0.159 A 
ATOM     10  H   UNL d   1      29.029 -14.602  -7.651  0.00  0.00     0.189 HD
ENDROOT
BRANCH   7  11
ATOM     11  C   UNL d   1      27.277 -15.467  -3.649  0.00  0.00     0.028 A 
ATOM     12  C   UNL d   1      27.791 -15.647  -2.358  0.00  0.00     0.017 A 
ATOM     13  C   UNL d   1      26.945 -15.557  -1.243  0.00  0.00     0.001 A 
ATOM     14  C   UNL d   1      25.588 -15.271  -1.404  0.00  0.00     0.003 A 
ATOM     15  C   UNL d   1      25.068 -15.081  -2.678  0.00  0.00     0.037 A 
ATOM     16  C   UNL d   1      25.907 -15.214  -3.781  0.00  0.00     0.078 A 
BRANCH  16  17
ATOM     17  O   UNL d   1      25.345 -15.200  -5.020  0.00  0.00    -0.360 OA
ATOM     18  H   UNL d   1      25.896 -14.687  -5.632  0.00  0.00     0.217 HD
ENDBRANCH  16  17
ENDBRANCH   7  11
BRANCH   9  19
ATOM     19  C   UNL d   1      30.777 -16.955  -3.193  0.00  0.00    -0.028 A 
ATOM     20  C   UNL d   1      31.373 -15.679  -3.150  0.00  0.00     0.010 A 
ATOM     21  C   UNL d   1      32.029 -15.230  -2.006  0.00  0.00     0.003 A 
ATOM     22  C   UNL d   1      32.107 -16.050  -0.881  0.00  0.00     0.036 A 
ATOM     23  C   UNL d   1      31.509 -17.307  -0.909  0.00  0.00     0.066 A 
ATOM     24  C   UNL d   1      30.850 -17.765  -2.048  0.00  0.00     0.046 A 
BRANCH  23  25
ATOM     25  O   UNL d   1      31.529 -18.137   0.174  0.00  0.00    -0.361 OA
ATOM     26  H   UNL d   1      30.641 -18.179   0.563  0.00  0.00     0.217 HD
ENDBRANCH  23  25
ENDBRANCH   9  19
BRANCH   1  27
ATOM     27  C   UNL d   1      32.289 -18.491  -5.419  0.00  0.00     0.127 C 
BRANCH  27  28
ATOM     28  C   UNL d   1      32.003 -19.990  -5.582  0.00  0.00     0.020 C 
BRANCH  28  29
ATOM     29  C   UNL d   1      30.663 -20.265  -6.260  0.00  0.00    -0.003 C 
ATOM     30  C   UNL d   1      30.780 -20.077  -7.765  0.00  0.00     0.005 C 
ENDBRANCH  28  29
ENDBRANCH  27  28
ENDBRANCH   1  27
TORSDOF 7
ENDMDL
MODEL 9
REMARK VINA RESULT:    -5.468      3.590      6.743
REMARK INTER + INTRA:         -10.306
REMARK INTER:                  -7.557
REMARK INTRA:                  -2.749
REMARK CONF_INDEPENDENT:        2.088
REMARK UNBOUND:                -2.749
REMARK  7 active torsions:
REMARK  status: ('A' for Active; 'I' for Inactive)
REMARK    1  A    between atoms: C_2  and  C_3 
REMARK    2  A    between atoms: C_3  and  C_4 
REMARK    3  A    between atoms: C_4  and  N_5 
REMARK    4  A    between atoms: C_11  and  C_12 
REMARK    5  A    between atoms: C_17  and  O_18 
REMARK    6  A    between atoms: C_20  and  C_21 
REMARK    7  A    between atoms: C_25  and  O_26 
ROOT
ATOM      1  N   UNL d   1      26.173 -13.404  -1.895  0.00  0.00    -0.334 N 
ATOM      2  C   UNL d   1      27.086 -12.395  -2.231  0.00  0.00     0.273 A 
ATOM      3  O   UNL d   1      27.274 -11.875  -3.320  0.00  0.00    -0.266 OA
ATOM      4  C   UNL d   1      27.777 -12.143  -1.024  0.00  0.00     0.129 A 
ATOM      5  N   UNL d   1      28.772 -11.366  -0.568  0.00  0.00    -0.272 N 
ATOM      6  N   UNL d   1      28.992 -11.559   0.758  0.00  0.00    -0.173 NA
ATOM      7  C   UNL d   1      28.151 -12.564   1.113  0.00  0.00     0.101 A 
ATOM      8  C   UNL d   1      27.366 -12.944   0.003  0.00  0.00     0.034 A 
ATOM      9  C   UNL d   1      26.281 -13.845  -0.464  0.00  0.00     0.159 A 
ATOM     10  H   UNL d   1      29.335 -10.687  -1.072  0.00  0.00     0.189 HD
ENDROOT
BRANCH   7  11
ATOM     11  C   UNL d   1      28.159 -13.126   2.464  0.00  0.00     0.028 A 
ATOM     12  C   UNL d   1      27.409 -12.554   3.499  0.00  0.00     0.017 A 
ATOM     13  C   UNL d   1      27.450 -13.102   4.789  0.00  0.00     0.001 A 
ATOM     14  C   UNL d   1      28.225 -14.234   5.052  0.00  0.00     0.003 A 
ATOM     15  C   UNL d   1      28.967 -14.817   4.033  0.00  0.00     0.037 A 
ATOM     16  C   UNL d   1      28.952 -14.240   2.766  0.00  0.00     0.078 A 
BRANCH  16  17
ATOM     17  O   UNL d   1      29.817 -14.719   1.832  0.00  0.00    -0.360 OA
ATOM     18  H   UNL d   1      29.754 -15.685   1.781  0.00  0.00     0.217 HD
ENDBRANCH  16  17
ENDBRANCH   7  11
BRANCH   9  19
ATOM     19  C   UNL d   1      26.721 -15.282  -0.356  0.00  0.00    -0.028 A 
ATOM     20  C   UNL d   1      25.793 -16.341  -0.411  0.00  0.00     0.010 A 
ATOM     21  C   UNL d   1      26.202 -17.665  -0.267  0.00  0.00     0.003 A 
ATOM     22  C   UNL d   1      27.550 -17.957  -0.060  0.00  0.00     0.036 A 
ATOM     23  C   UNL d   1      28.476 -16.919  -0.018  0.00  0.00     0.066 A 
ATOM     24  C   UNL d   1      28.076 -15.592  -0.160  0.00  0.00     0.046 A 
BRANCH  23  25
ATOM     25  O   UNL d   1      29.810 -17.152   0.152  0.00  0.00    -0.361 OA
ATOM     26  H   UNL d   1      30.103 -16.747   0.985  0.00  0.00     0.217 HD
ENDBRANCH  23  25
ENDBRANCH   9  19
BRANCH   1  27
ATOM     27  C   UNL d   1      25.373 -14.113  -2.890  0.00  0.00     0.127 C 
BRANCH  27  28
ATOM     28  C   UNL d   1      26.140 -15.269  -3.545  0.00  0.00     0.020 C 
BRANCH  28  29
ATOM     29  C   UNL d   1      26.356 -15.063  -5.043  0.00  0.00    -0.003 C 
ATOM     30  C   UNL d   1      27.830 -14.825  -5.340  0.00  0.00     0.005 C 
ENDBRANCH  28  29
ENDBRANCH  27  28
ENDBRANCH   1  27
TORSDOF 7
ENDMDL
