MODEL 1
REMARK VINA RESULT:    -7.401      0.000      0.000
REMARK INTER + INTRA:         -11.055
REMARK INTER:                  -8.893
REMARK INTRA:                  -2.163
REMARK CONF_INDEPENDENT:        1.492
REMARK UNBOUND:                -2.163
REMARK  5 active torsions:
REMARK  status: ('A' for Active; 'I' for Inactive)
REMARK       I    between atoms: C_2  and  N_4 
REMARK    1  A    between atoms: N_4  and  N_5 
REMARK    2  A    between atoms: N_5  and  C_6 
REMARK    3  A    between atoms: C_6  and  C_7 
REMARK    4  A    between atoms: C_6  and  C_18 
REMARK    5  A    between atoms: C_7  and  C_9 
ROOT
ATOM      1  C   UNL d   1      26.188 -13.074  -3.265  0.00  0.00     0.184 C 
ENDROOT
BRANCH   1   2
ATOM      2  N   UNL d   1      25.467 -11.887  -3.816  0.00  0.00    -0.221 NA
ATOM      3  H   UNL d   1      24.768 -12.202  -4.495  0.00  0.00     0.147 HD
BRANCH   2   4
ATOM      4  N   UNL d   1      26.251 -10.914  -4.533  0.00  0.00    -0.291 N 
ATOM      5  C   UNL d   1      25.908 -10.707  -5.879  0.00  0.00     0.227 C 
ATOM      6  C   UNL d   1      26.455  -9.428  -6.479  0.00  0.00     0.118 C 
ATOM      7  O   UNL d   1      25.155 -11.450  -6.520  0.00  0.00    -0.273 OA
ATOM      8  H   UNL d   1      26.527 -10.070  -4.032  0.00  0.00     0.183 HD
ENDBRANCH   2   4
ENDBRANCH   1   2
BRANCH   1   9
ATOM      9  C   UNL d   1      25.222 -14.301  -2.948  0.00  0.00     0.185 C 
ATOM     10  O   UNL d   1      24.096 -14.410  -3.474  0.00  0.00    -0.290 OA
BRANCH   9  11
ATOM     11  C   UNL d   1      25.694 -15.446  -2.169  0.00  0.00     0.040 C 
ATOM     12  C   UNL d   1      26.972 -15.981  -2.192  0.00  0.00     0.104 C 
ATOM     13  N   UNL d   1      27.034 -16.992  -1.264  0.00  0.00    -0.364 N 
ATOM     14  C   UNL d   1      25.783 -17.222  -0.742  0.00  0.00     0.043 C 
ATOM     15  H   UNL d   1      27.846 -17.566  -1.076  0.00  0.00     0.165 HD
ATOM     16  C   UNL d   1      25.339 -18.117   0.240  0.00  0.00     0.030 C 
ATOM     17  C   UNL d   1      24.913 -16.382  -1.434  0.00  0.00     0.006 C 
ATOM     18  C   UNL d   1      23.957 -18.200   0.456  0.00  0.00     0.002 C 
ATOM     19  C   UNL d   1      23.060 -17.467  -0.322  0.00  0.00     0.001 C 
ATOM     20  C   UNL d   1      23.532 -16.560  -1.270  0.00  0.00     0.014 C 
ENDBRANCH   9  11
ENDBRANCH   1   9
BRANCH   1  21
ATOM     21  C   UNL d   1      27.321 -13.539  -4.218  0.00  0.00    -0.031 A 
ATOM     22  C   UNL d   1      28.617 -12.992  -4.203  0.00  0.00     0.009 A 
ATOM     23  C   UNL d   1      29.550 -13.311  -5.194  0.00  0.00     0.001 A 
ATOM     24  C   UNL d   1      29.232 -14.234  -6.183  0.00  0.00     0.000 A 
ATOM     25  C   UNL d   1      27.973 -14.825  -6.197  0.00  0.00     0.001 A 
ATOM     26  C   UNL d   1      27.032 -14.491  -5.218  0.00  0.00     0.009 A 
ENDBRANCH   1  21
TORSDOF 5
ENDMDL
MODEL 2
REMARK VINA RESULT:    -7.256      3.990      6.228
REMARK INTER + INTRA:         -11.055
REMARK INTER:                  -8.747
REMARK INTRA:                  -2.308
REMARK CONF_INDEPENDENT:        1.492
REMARK UNBOUND:                -2.308
REMARK  5 active torsions:
REMARK  status: ('A' for Active; 'I' for Inactive)
REMARK       I    between atoms: C_2  and  N_4 
REMARK    1  A    between atoms: N_4  and  N_5 
REMARK    2  A    between atoms: N_5  and  C_6 
REMARK    3  A    between atoms: C_6  and  C_7 
REMARK    4  A    between atoms: C_6  and  C_18 
REMARK    5  A    between atoms: C_7  and  C_9 
ROOT
ATOM      1  C   UNL d   1      24.118 -16.834  -0.837  0.00  0.00     0.184 C 
ENDROOT
BRANCH   1   2
ATOM      2  N   UNL d   1      22.935 -17.637  -1.269  0.00  0.00    -0.221 NA
ATOM      3  H   UNL d   1      22.165 -17.005  -1.503  0.00  0.00     0.147 HD
BRANCH   2   4
ATOM      4  N   UNL d   1      22.371 -18.549  -0.307  0.00  0.00    -0.291 N 
ATOM      5  C   UNL d   1      21.004 -18.839  -0.451  0.00  0.00     0.227 C 
ATOM      6  C   UNL d   1      20.541 -20.075   0.292  0.00  0.00     0.118 C 
ATOM      7  O   UNL d   1      20.238 -18.200  -1.183  0.00  0.00    -0.273 OA
ATOM      8  H   UNL d   1      22.943 -19.342  -0.018  0.00  0.00     0.183 HD
ENDBRANCH   2   4
ENDBRANCH   1   2
BRANCH   1   9
ATOM      9  C   UNL d   1      25.266 -17.719  -0.174  0.00  0.00     0.185 C 
ATOM     10  O   UNL d   1      25.107 -18.931   0.077  0.00  0.00    -0.290 OA
BRANCH   9  11
ATOM     11  C   UNL d   1      26.620 -17.189  -0.004  0.00  0.00     0.040 C 
ATOM     12  C   UNL d   1      27.770 -17.934   0.200  0.00  0.00     0.104 C 
ATOM     13  N   UNL d   1      28.841 -17.075   0.230  0.00  0.00    -0.364 N 
ATOM     14  C   UNL d   1      28.396 -15.774   0.196  0.00  0.00     0.043 C 
ATOM     15  H   UNL d   1      29.805 -17.345   0.378  0.00  0.00     0.165 HD
ATOM     16  C   UNL d   1      29.090 -14.557   0.179  0.00  0.00     0.030 C 
ATOM     17  C   UNL d   1      27.005 -15.840   0.231  0.00  0.00     0.006 C 
ATOM     18  C   UNL d   1      28.330 -13.384   0.279  0.00  0.00     0.002 C 
ATOM     19  C   UNL d   1      26.947 -13.432   0.454  0.00  0.00     0.001 C 
ATOM     20  C   UNL d   1      26.280 -14.657   0.434  0.00  0.00     0.014 C 
ENDBRANCH   9  11
ENDBRANCH   1   9
BRANCH   1  21
ATOM     21  C   UNL d   1      24.709 -16.018  -2.017  0.00  0.00    -0.031 A 
ATOM     22  C   UNL d   1      25.912 -16.354  -2.664  0.00  0.00     0.009 A 
ATOM     23  C   UNL d   1      26.497 -15.494  -3.598  0.00  0.00     0.001 A 
ATOM     24  C   UNL d   1      25.861 -14.312  -3.955  0.00  0.00     0.000 A 
ATOM     25  C   UNL d   1      24.647 -13.975  -3.366  0.00  0.00     0.001 A 
ATOM     26  C   UNL d   1      24.070 -14.825  -2.416  0.00  0.00     0.009 A 
ENDBRANCH   1  21
TORSDOF 5
ENDMDL
MODEL 3
REMARK VINA RESULT:    -7.126      2.027      3.196
REMARK INTER + INTRA:         -10.543
REMARK INTER:                  -8.618
REMARK INTRA:                  -1.925
REMARK CONF_INDEPENDENT:        1.492
REMARK UNBOUND:                -1.925
REMARK  5 active torsions:
REMARK  status: ('A' for Active; 'I' for Inactive)
REMARK       I    between atoms: C_2  and  N_4 
REMARK    1  A    between atoms: N_4  and  N_5 
REMARK    2  A    between atoms: N_5  and  C_6 
REMARK    3  A    between atoms: C_6  and  C_7 
REMARK    4  A    between atoms: C_6  and  C_18 
REMARK    5  A    between atoms: C_7  and  C_9 
ROOT
ATOM      1  C   UNL d   1      25.933 -14.286  -4.926  0.00  0.00     0.184 C 
ENDROOT
BRANCH   1   2
ATOM      2  N   UNL d   1      26.830 -15.362  -5.445  0.00  0.00    -0.221 NA
ATOM      3  H   UNL d   1      27.179 -15.918  -4.659  0.00  0.00     0.147 HD
BRANCH   2   4
ATOM      4  N   UNL d   1      28.018 -14.947  -6.147  0.00  0.00    -0.291 N 
ATOM      5  C   UNL d   1      29.216 -15.574  -5.768  0.00  0.00     0.227 C 
ATOM      6  C   UNL d   1      30.346 -15.428  -6.766  0.00  0.00     0.118 C 
ATOM      7  O   UNL d   1      29.340 -16.263  -4.748  0.00  0.00    -0.273 OA
ATOM      8  H   UNL d   1      27.934 -14.763  -7.146  0.00  0.00     0.183 HD
ENDBRANCH   2   4
ENDBRANCH   1   2
BRANCH   1   9
ATOM      9  C   UNL d   1      25.227 -14.670  -3.549  0.00  0.00     0.185 C 
ATOM     10  O   UNL d   1      24.030 -14.404  -3.323  0.00  0.00    -0.290 OA
BRANCH   9  11
ATOM     11  C   UNL d   1      25.906 -15.516  -2.568  0.00  0.00     0.040 C 
ATOM     12  C   UNL d   1      27.275 -15.690  -2.444  0.00  0.00     0.104 C 
ATOM     13  N   UNL d   1      27.513 -16.494  -1.357  0.00  0.00    -0.364 N 
ATOM     14  C   UNL d   1      26.321 -16.966  -0.859  0.00  0.00     0.043 C 
ATOM     15  H   UNL d   1      28.425 -16.797  -1.040  0.00  0.00     0.165 HD
ATOM     16  C   UNL d   1      26.037 -17.787   0.241  0.00  0.00     0.030 C 
ATOM     17  C   UNL d   1      25.329 -16.502  -1.720  0.00  0.00     0.006 C 
ATOM     18  C   UNL d   1      24.708 -18.200   0.407  0.00  0.00     0.002 C 
ATOM     19  C   UNL d   1      23.725 -17.859  -0.522  0.00  0.00     0.001 C 
ATOM     20  C   UNL d   1      24.030 -17.014  -1.588  0.00  0.00     0.014 C 
ENDBRANCH   9  11
ENDBRANCH   1   9
BRANCH   1  21
ATOM     21  C   UNL d   1      26.695 -12.944  -4.762  0.00  0.00    -0.031 A 
ATOM     22  C   UNL d   1      27.805 -12.785  -3.912  0.00  0.00     0.009 A 
ATOM     23  C   UNL d   1      28.348 -11.522  -3.658  0.00  0.00     0.001 A 
ATOM     24  C   UNL d   1      27.836 -10.399  -4.297  0.00  0.00     0.000 A 
ATOM     25  C   UNL d   1      26.768 -10.533  -5.178  0.00  0.00     0.001 A 
ATOM     26  C   UNL d   1      26.211 -11.793  -5.418  0.00  0.00     0.009 A 
ENDBRANCH   1  21
TORSDOF 5
ENDMDL
MODEL 4
REMARK VINA RESULT:    -7.100      1.930      6.805
REMARK INTER + INTRA:         -10.568
REMARK INTER:                  -8.591
REMARK INTRA:                  -1.977
REMARK CONF_INDEPENDENT:        1.492
REMARK UNBOUND:                -1.977
REMARK  5 active torsions:
REMARK  status: ('A' for Active; 'I' for Inactive)
REMARK       I    between atoms: C_2  and  N_4 
REMARK    1  A    between atoms: N_4  and  N_5 
REMARK    2  A    between atoms: N_5  and  C_6 
REMARK    3  A    between atoms: C_6  and  C_7 
REMARK    4  A    between atoms: C_6  and  C_18 
REMARK    5  A    between atoms: C_7  and  C_9 
ROOT
ATOM      1  C   UNL d   1      25.146 -15.557  -1.225  0.00  0.00     0.184 C 
ENDROOT
BRANCH   1   2
ATOM      2  N   UNL d   1      26.427 -15.515  -0.457  0.00  0.00    -0.221 NA
ATOM      3  H   UNL d   1      26.939 -14.662  -0.699  0.00  0.00     0.147 HD
BRANCH   2   4
ATOM      4  N   UNL d   1      27.370 -16.578  -0.693  0.00  0.00    -0.291 N 
ATOM      5  C   UNL d   1      28.494 -16.253  -1.471  0.00  0.00     0.227 C 
ATOM      6  C   UNL d   1      29.640 -17.239  -1.365  0.00  0.00     0.118 C 
ATOM      7  O   UNL d   1      28.596 -15.213  -2.132  0.00  0.00    -0.273 OA
ATOM      8  H   UNL d   1      27.560 -17.218   0.077  0.00  0.00     0.183 HD
ENDBRANCH   2   4
ENDBRANCH   1   2
BRANCH   1   9
ATOM      9  C   UNL d   1      25.364 -15.648  -2.801  0.00  0.00     0.185 C 
ATOM     10  O   UNL d   1      25.155 -16.700  -3.438  0.00  0.00    -0.290 OA
BRANCH   9  11
ATOM     11  C   UNL d   1      25.640 -14.448  -3.592  0.00  0.00     0.040 C 
ATOM     12  C   UNL d   1      24.865 -13.300  -3.634  0.00  0.00     0.104 C 
ATOM     13  N   UNL d   1      25.502 -12.377  -4.427  0.00  0.00    -0.364 N 
ATOM     14  C   UNL d   1      26.600 -12.954  -5.020  0.00  0.00     0.043 C 
ATOM     15  H   UNL d   1      25.155 -11.452  -4.645  0.00  0.00     0.165 HD
ATOM     16  C   UNL d   1      27.572 -12.426  -5.881  0.00  0.00     0.030 C 
ATOM     17  C   UNL d   1      26.587 -14.294  -4.642  0.00  0.00     0.006 C 
ATOM     18  C   UNL d   1      28.503 -13.322  -6.424  0.00  0.00     0.002 C 
ATOM     19  C   UNL d   1      28.423 -14.691  -6.166  0.00  0.00     0.001 C 
ATOM     20  C   UNL d   1      27.465 -15.183  -5.280  0.00  0.00     0.014 C 
ENDBRANCH   9  11
ENDBRANCH   1   9
BRANCH   1  21
ATOM     21  C   UNL d   1      24.245 -16.730  -0.757  0.00  0.00    -0.031 A 
ATOM     22  C   UNL d   1      24.748 -17.991  -0.385  0.00  0.00     0.009 A 
ATOM     23  C   UNL d   1      23.892 -19.069  -0.145  0.00  0.00     0.001 A 
ATOM     24  C   UNL d   1      22.515 -18.898  -0.206  0.00  0.00     0.000 A 
ATOM     25  C   UNL d   1      21.988 -17.651  -0.527  0.00  0.00     0.001 A 
ATOM     26  C   UNL d   1      22.843 -16.575  -0.787  0.00  0.00     0.009 A 
ENDBRANCH   1  21
TORSDOF 5
ENDMDL
MODEL 5
REMARK VINA RESULT:    -7.089      3.478      5.594
REMARK INTER + INTRA:         -10.782
REMARK INTER:                  -8.581
REMARK INTRA:                  -2.201
REMARK CONF_INDEPENDENT:        1.492
REMARK UNBOUND:                -2.201
REMARK  5 active torsions:
REMARK  status: ('A' for Active; 'I' for Inactive)
REMARK       I    between atoms: C_2  and  N_4 
REMARK    1  A    between atoms: N_4  and  N_5 
REMARK    2  A    between atoms: N_5  and  C_6 
REMARK    3  A    between atoms: C_6  and  C_7 
REMARK    4  A    between atoms: C_6  and  C_18 
REMARK    5  A    between atoms: C_7  and  C_9 
ROOT
ATOM      1  C   UNL d   1      26.298 -15.758  -1.792  0.00  0.00     0.184 C 
ENDROOT
BRANCH   1   2
ATOM      2  N   UNL d   1      26.037 -15.513  -3.242  0.00  0.00    -0.221 NA
ATOM      3  H   UNL d   1      26.487 -16.247  -3.795  0.00  0.00     0.147 HD
BRANCH   2   4
ATOM      4  N   UNL d   1      26.536 -14.284  -3.803  0.00  0.00    -0.291 N 
ATOM      5  C   UNL d   1      26.955 -14.335  -5.143  0.00  0.00     0.227 C 
ATOM      6  C   UNL d   1      27.086 -12.983  -5.814  0.00  0.00     0.118 C 
ATOM      7  O   UNL d   1      27.129 -15.387  -5.770  0.00  0.00    -0.273 OA
ATOM      8  H   UNL d   1      26.064 -13.420  -3.541  0.00  0.00     0.183 HD
ENDBRANCH   2   4
ENDBRANCH   1   2
BRANCH   1   9
ATOM      9  C   UNL d   1      26.548 -14.418  -0.966  0.00  0.00     0.185 C 
ATOM     10  O   UNL d   1      26.129 -13.310  -1.359  0.00  0.00    -0.290 OA
BRANCH   9  11
ATOM     11  C   UNL d   1      27.120 -14.460   0.380  0.00  0.00     0.040 C 
ATOM     12  C   UNL d   1      27.594 -15.588   1.032  0.00  0.00     0.104 C 
ATOM     13  N   UNL d   1      28.120 -15.199   2.239  0.00  0.00    -0.364 N 
ATOM     14  C   UNL d   1      27.866 -13.864   2.450  0.00  0.00     0.043 C 
ATOM     15  H   UNL d   1      28.526 -15.818   2.929  0.00  0.00     0.165 HD
ATOM     16  C   UNL d   1      28.215 -13.008   3.503  0.00  0.00     0.030 C 
ATOM     17  C   UNL d   1      27.087 -13.443   1.374  0.00  0.00     0.006 C 
ATOM     18  C   UNL d   1      27.682 -11.713   3.482  0.00  0.00     0.002 C 
ATOM     19  C   UNL d   1      26.790 -11.316   2.485  0.00  0.00     0.001 C 
ATOM     20  C   UNL d   1      26.486 -12.178   1.432  0.00  0.00     0.014 C 
ENDBRANCH   9  11
ENDBRANCH   1   9
BRANCH   1  21
ATOM     21  C   UNL d   1      25.142 -16.561  -1.138  0.00  0.00    -0.031 A 
ATOM     22  C   UNL d   1      25.330 -17.796  -0.490  0.00  0.00     0.009 A 
ATOM     23  C   UNL d   1      24.241 -18.569  -0.075  0.00  0.00     0.001 A 
ATOM     24  C   UNL d   1      22.945 -18.096  -0.239  0.00  0.00     0.000 A 
ATOM     25  C   UNL d   1      22.731 -16.858  -0.835  0.00  0.00     0.001 A 
ATOM     26  C   UNL d   1      23.818 -16.093  -1.269  0.00  0.00     0.009 A 
ENDBRANCH   1  21
TORSDOF 5
ENDMDL
MODEL 6
REMARK VINA RESULT:    -7.015      2.581      5.782
REMARK INTER + INTRA:         -10.444
REMARK INTER:                  -8.507
REMARK INTRA:                  -1.937
REMARK CONF_INDEPENDENT:        1.492
REMARK UNBOUND:                -1.937
REMARK  5 active torsions:
REMARK  status: ('A' for Active; 'I' for Inactive)
REMARK       I    between atoms: C_2  and  N_4 
REMARK    1  A    between atoms: N_4  and  N_5 
REMARK    2  A    between atoms: N_5  and  C_6 
REMARK    3  A    between atoms: C_6  and  C_7 
REMARK    4  A    between atoms: C_6  and  C_18 
REMARK    5  A    between atoms: C_7  and  C_9 
ROOT
ATOM      1  C   UNL d   1      25.639 -16.469  -2.247  0.00  0.00     0.184 C 
ENDROOT
BRANCH   1   2
ATOM      2  N   UNL d   1      25.155 -15.517  -3.292  0.00  0.00    -0.221 NA
ATOM      3  H   UNL d   1      25.001 -16.026  -4.167  0.00  0.00     0.147 HD
BRANCH   2   4
ATOM      4  N   UNL d   1      26.034 -14.436  -3.656  0.00  0.00    -0.291 N 
ATOM      5  C   UNL d   1      26.650 -14.529  -4.914  0.00  0.00     0.227 C 
ATOM      6  C   UNL d   1      27.227 -13.228  -5.432  0.00  0.00     0.118 C 
ATOM      7  O   UNL d   1      26.661 -15.559  -5.600  0.00  0.00    -0.273 OA
ATOM      8  H   UNL d   1      25.754 -13.492  -3.391  0.00  0.00     0.183 HD
ENDBRANCH   2   4
ENDBRANCH   1   2
BRANCH   1   9
ATOM      9  C   UNL d   1      26.732 -15.832  -1.279  0.00  0.00     0.185 C 
ATOM     10  O   UNL d   1      26.470 -14.873  -0.524  0.00  0.00    -0.290 OA
BRANCH   9  11
ATOM     11  C   UNL d   1      28.038 -16.466  -1.099  0.00  0.00     0.040 C 
ATOM     12  C   UNL d   1      28.643 -16.766   0.111  0.00  0.00     0.104 C 
ATOM     13  N   UNL d   1      29.819 -17.426  -0.145  0.00  0.00    -0.364 N 
ATOM     14  C   UNL d   1      30.064 -17.433  -1.499  0.00  0.00     0.043 C 
ATOM     15  H   UNL d   1      30.473 -17.752   0.555  0.00  0.00     0.165 HD
ATOM     16  C   UNL d   1      31.104 -17.996  -2.250  0.00  0.00     0.030 C 
ATOM     17  C   UNL d   1      29.046 -16.680  -2.080  0.00  0.00     0.006 C 
ATOM     18  C   UNL d   1      31.134 -17.709  -3.621  0.00  0.00     0.002 C 
ATOM     19  C   UNL d   1      30.203 -16.845  -4.198  0.00  0.00     0.001 C 
ATOM     20  C   UNL d   1      29.160 -16.325  -3.432  0.00  0.00     0.014 C 
ENDBRANCH   9  11
ENDBRANCH   1   9
BRANCH   1  21
ATOM     21  C   UNL d   1      24.462 -17.029  -1.404  0.00  0.00    -0.031 A 
ATOM     22  C   UNL d   1      24.443 -18.330  -0.872  0.00  0.00     0.009 A 
ATOM     23  C   UNL d   1      23.291 -18.852  -0.275  0.00  0.00     0.001 A 
ATOM     24  C   UNL d   1      22.155 -18.064  -0.138  0.00  0.00     0.000 A 
ATOM     25  C   UNL d   1      22.160 -16.757  -0.615  0.00  0.00     0.001 A 
ATOM     26  C   UNL d   1      23.305 -16.240  -1.230  0.00  0.00     0.009 A 
ENDBRANCH   1  21
TORSDOF 5
ENDMDL
MODEL 7
REMARK VINA RESULT:    -6.794      2.067      3.312
REMARK INTER + INTRA:         -10.446
REMARK INTER:                  -8.285
REMARK INTRA:                  -2.161
REMARK CONF_INDEPENDENT:        1.492
REMARK UNBOUND:                -2.161
REMARK  5 active torsions:
REMARK  status: ('A' for Active; 'I' for Inactive)
REMARK       I    between atoms: C_2  and  N_4 
REMARK    1  A    between atoms: N_4  and  N_5 
REMARK    2  A    between atoms: N_5  and  C_6 
REMARK    3  A    between atoms: C_6  and  C_7 
REMARK    4  A    between atoms: C_6  and  C_18 
REMARK    5  A    between atoms: C_7  and  C_9 
ROOT
ATOM      1  C   UNL d   1      26.337 -12.963  -3.217  0.00  0.00     0.184 C 
ENDROOT
BRANCH   1   2
ATOM      2  N   UNL d   1      27.150 -12.938  -4.470  0.00  0.00    -0.221 NA
ATOM      3  H   UNL d   1      26.552 -13.178  -5.265  0.00  0.00     0.147 HD
BRANCH   2   4
ATOM      4  N   UNL d   1      28.251 -13.862  -4.558  0.00  0.00    -0.291 N 
ATOM      5  C   UNL d   1      28.115 -14.907  -5.487  0.00  0.00     0.227 C 
ATOM      6  C   UNL d   1      29.411 -15.604  -5.846  0.00  0.00     0.118 C 
ATOM      7  O   UNL d   1      27.049 -15.200  -6.041  0.00  0.00    -0.273 OA
ATOM      8  H   UNL d   1      29.194 -13.481  -4.487  0.00  0.00     0.183 HD
ENDBRANCH   2   4
ENDBRANCH   1   2
BRANCH   1   9
ATOM      9  C   UNL d   1      25.451 -14.280  -3.071  0.00  0.00     0.185 C 
ATOM     10  O   UNL d   1      24.405 -14.450  -3.729  0.00  0.00    -0.290 OA
BRANCH   9  11
ATOM     11  C   UNL d   1      25.930 -15.425  -2.297  0.00  0.00     0.040 C 
ATOM     12  C   UNL d   1      27.212 -15.952  -2.323  0.00  0.00     0.104 C 
ATOM     13  N   UNL d   1      27.281 -16.966  -1.399  0.00  0.00    -0.364 N 
ATOM     14  C   UNL d   1      26.031 -17.206  -0.878  0.00  0.00     0.043 C 
ATOM     15  H   UNL d   1      28.096 -17.537  -1.214  0.00  0.00     0.165 HD
ATOM     16  C   UNL d   1      25.593 -18.108   0.102  0.00  0.00     0.030 C 
ATOM     17  C   UNL d   1      25.156 -16.369  -1.565  0.00  0.00     0.006 C 
ATOM     18  C   UNL d   1      24.212 -18.200   0.318  0.00  0.00     0.002 C 
ATOM     19  C   UNL d   1      23.310 -17.469  -0.457  0.00  0.00     0.001 C 
ATOM     20  C   UNL d   1      23.776 -16.556  -1.402  0.00  0.00     0.014 C 
ENDBRANCH   9  11
ENDBRANCH   1   9
BRANCH   1  21
ATOM     21  C   UNL d   1      27.231 -12.798  -1.959  0.00  0.00    -0.031 A 
ATOM     22  C   UNL d   1      28.621 -12.590  -2.021  0.00  0.00     0.009 A 
ATOM     23  C   UNL d   1      29.411 -12.627  -0.868  0.00  0.00     0.001 A 
ATOM     24  C   UNL d   1      28.823 -12.806   0.378  0.00  0.00     0.000 A 
ATOM     25  C   UNL d   1      27.444 -12.968   0.474  0.00  0.00     0.001 A 
ATOM     26  C   UNL d   1      26.655 -12.951  -0.680  0.00  0.00     0.009 A 
ENDBRANCH   1  21
TORSDOF 5
ENDMDL
MODEL 8
REMARK VINA RESULT:    -6.370      3.593      5.963
REMARK INTER + INTRA:         -10.483
REMARK INTER:                  -7.861
REMARK INTRA:                  -2.622
REMARK CONF_INDEPENDENT:        1.492
REMARK UNBOUND:                -2.622
REMARK  5 active torsions:
REMARK  status: ('A' for Active; 'I' for Inactive)
REMARK       I    between atoms: C_2  and  N_4 
REMARK    1  A    between atoms: N_4  and  N_5 
REMARK    2  A    between atoms: N_5  and  C_6 
REMARK    3  A    between atoms: C_6  and  C_7 
REMARK    4  A    between atoms: C_6  and  C_18 
REMARK    5  A    between atoms: C_7  and  C_9 
ROOT
ATOM      1  C   UNL d   1      24.790 -16.212  -1.052  0.00  0.00     0.184 C 
ENDROOT
BRANCH   1   2
ATOM      2  N   UNL d   1      23.597 -16.973  -1.531  0.00  0.00    -0.221 NA
ATOM      3  H   UNL d   1      22.799 -16.337  -1.607  0.00  0.00     0.147 HD
BRANCH   2   4
ATOM      4  N   UNL d   1      23.123 -18.047  -0.696  0.00  0.00    -0.291 N 
ATOM      5  C   UNL d   1      21.733 -18.251  -0.673  0.00  0.00     0.227 C 
ATOM      6  C   UNL d   1      21.304 -19.599  -0.132  0.00  0.00     0.118 C 
ATOM      7  O   UNL d   1      20.912 -17.446  -1.128  0.00  0.00    -0.273 OA
ATOM      8  H   UNL d   1      23.676 -18.902  -0.669  0.00  0.00     0.183 HD
ENDBRANCH   2   4
ENDBRANCH   1   2
BRANCH   1   9
ATOM      9  C   UNL d   1      25.900 -17.141  -0.387  0.00  0.00     0.185 C 
ATOM     10  O   UNL d   1      25.732 -18.368  -0.235  0.00  0.00    -0.290 OA
BRANCH   9  11
ATOM     11  C   UNL d   1      27.238 -16.624  -0.095  0.00  0.00     0.040 C 
ATOM     12  C   UNL d   1      27.623 -15.952   1.054  0.00  0.00     0.104 C 
ATOM     13  N   UNL d   1      28.971 -15.705   0.979  0.00  0.00    -0.364 N 
ATOM     14  C   UNL d   1      29.443 -16.071  -0.260  0.00  0.00     0.043 C 
ATOM     15  H   UNL d   1      29.518 -15.216   1.676  0.00  0.00     0.165 HD
ATOM     16  C   UNL d   1      30.733 -16.041  -0.806  0.00  0.00     0.030 C 
ATOM     17  C   UNL d   1      28.331 -16.478  -0.994  0.00  0.00     0.006 C 
ATOM     18  C   UNL d   1      30.863 -16.364  -2.164  0.00  0.00     0.002 C 
ATOM     19  C   UNL d   1      29.744 -16.640  -2.950  0.00  0.00     0.001 C 
ATOM     20  C   UNL d   1      28.476 -16.695  -2.372  0.00  0.00     0.014 C 
ENDBRANCH   9  11
ENDBRANCH   1   9
BRANCH   1  21
ATOM     21  C   UNL d   1      25.428 -15.382  -2.199  0.00  0.00    -0.031 A 
ATOM     22  C   UNL d   1      25.836 -14.044  -2.050  0.00  0.00     0.009 A 
ATOM     23  C   UNL d   1      26.237 -13.282  -3.151  0.00  0.00     0.001 A 
ATOM     24  C   UNL d   1      26.302 -13.858  -4.414  0.00  0.00     0.000 A 
ATOM     25  C   UNL d   1      25.947 -15.192  -4.584  0.00  0.00     0.001 A 
ATOM     26  C   UNL d   1      25.527 -15.950  -3.486  0.00  0.00     0.009 A 
ENDBRANCH   1  21
TORSDOF 5
ENDMDL
MODEL 9
REMARK VINA RESULT:    -6.325      2.906      3.503
REMARK INTER + INTRA:         -10.543
REMARK INTER:                  -7.816
REMARK INTRA:                  -2.727
REMARK CONF_INDEPENDENT:        1.492
REMARK UNBOUND:                -2.727
REMARK  5 active torsions:
REMARK  status: ('A' for Active; 'I' for Inactive)
REMARK       I    between atoms: C_2  and  N_4 
REMARK    1  A    between atoms: N_4  and  N_5 
REMARK    2  A    between atoms: N_5  and  C_6 
REMARK    3  A    between atoms: C_6  and  C_7 
REMARK    4  A    between atoms: C_6  and  C_18 
REMARK    5  A    between atoms: C_7  and  C_9 
ROOT
ATOM      1  C   UNL d   1      27.965 -14.580  -1.030  0.00  0.00     0.184 C 
ENDROOT
BRANCH   1   2
ATOM      2  N   UNL d   1      28.605 -13.271  -0.700  0.00  0.00    -0.221 NA
ATOM      3  H   UNL d   1      28.308 -12.976   0.234  0.00  0.00     0.147 HD
BRANCH   2   4
ATOM      4  N   UNL d   1      28.288 -12.151  -1.548  0.00  0.00    -0.291 N 
ATOM      5  C   UNL d   1      27.585 -11.094  -0.947  0.00  0.00     0.227 C 
ATOM      6  C   UNL d   1      27.622  -9.792  -1.720  0.00  0.00     0.118 C 
ATOM      7  O   UNL d   1      27.041 -11.171   0.162  0.00  0.00    -0.273 OA
ATOM      8  H   UNL d   1      28.992 -11.859  -2.225  0.00  0.00     0.183 HD
ENDBRANCH   2   4
ENDBRANCH   1   2
BRANCH   1   9
ATOM      9  C   UNL d   1      27.060 -15.150   0.152  0.00  0.00     0.185 C 
ATOM     10  O   UNL d   1      26.652 -14.425   1.081  0.00  0.00    -0.290 OA
BRANCH   9  11
ATOM     11  C   UNL d   1      26.518 -16.508   0.095  0.00  0.00     0.040 C 
ATOM     12  C   UNL d   1      27.247 -17.684   0.175  0.00  0.00     0.104 C 
ATOM     13  N   UNL d   1      26.367 -18.739   0.164  0.00  0.00    -0.364 N 
ATOM     14  C   UNL d   1      25.092 -18.279  -0.070  0.00  0.00     0.043 C 
ATOM     15  H   UNL d   1      26.624 -19.717   0.198  0.00  0.00     0.165 HD
ATOM     16  C   UNL d   1      23.864 -18.950  -0.146  0.00  0.00     0.030 C 
ATOM     17  C   UNL d   1      25.209 -16.909  -0.291  0.00  0.00     0.006 C 
ATOM     18  C   UNL d   1      22.746 -18.201  -0.536  0.00  0.00     0.002 C 
ATOM     19  C   UNL d   1      22.867 -16.858  -0.895  0.00  0.00     0.001 C 
ATOM     20  C   UNL d   1      24.095 -16.208  -0.778  0.00  0.00     0.014 C 
ENDBRANCH   9  11
ENDBRANCH   1   9
BRANCH   1  21
ATOM     21  C   UNL d   1      27.121 -14.484  -2.329  0.00  0.00    -0.031 A 
ATOM     22  C   UNL d   1      25.860 -13.863  -2.388  0.00  0.00     0.009 A 
ATOM     23  C   UNL d   1      25.058 -13.957  -3.529  0.00  0.00     0.001 A 
ATOM     24  C   UNL d   1      25.525 -14.617  -4.660  0.00  0.00     0.000 A 
ATOM     25  C   UNL d   1      26.787 -15.202  -4.646  0.00  0.00     0.001 A 
ATOM     26  C   UNL d   1      27.582 -15.125  -3.498  0.00  0.00     0.009 A 
ENDBRANCH   1  21
TORSDOF 5
ENDMDL
