MODEL 1
REMARK VINA RESULT:    -7.602      0.000      0.000
REMARK INTER + INTRA:          -9.800
REMARK INTER:                  -8.796
REMARK INTRA:                  -1.005
REMARK CONF_INDEPENDENT:        1.193
REMARK UNBOUND:                -1.005
REMARK  4 active torsions:
REMARK  status: ('A' for Active; 'I' for Inactive)
REMARK    1  A    between atoms: O_2  and  C_3 
REMARK    2  A    between atoms: C_3  and  C_5 
REMARK    3  A    between atoms: C_9  and  N_10 
REMARK       I    between atoms: N_10  and  C_11 
REMARK       I    between atoms: C_11  and  N_13 
REMARK    4  A    between atoms: C_21  and  C_22 
ROOT
ATOM      1  N   UNL d   1      25.458 -15.524  -2.597  0.00  0.00    -0.309 N 
ATOM      2  C   UNL d   1      26.635 -15.478  -3.307  0.00  0.00     0.323 C 
ATOM      3  O   UNL d   1      27.564 -16.259  -3.145  0.00  0.00    -0.247 OA
ATOM      4  N   UNL d   1      26.737 -14.493  -4.291  0.00  0.00    -0.319 N 
ATOM      5  C   UNL d   1      26.408 -13.112  -3.920  0.00  0.00     0.135 C 
ATOM      6  C   UNL d   1      26.721 -11.963  -4.896  0.00  0.00     0.079 C 
ATOM      7  C   UNL d   1      27.430 -12.412  -6.092  0.00  0.00     0.036 A 
ATOM      8  N   UNL d   1      27.888 -11.646  -7.146  0.00  0.00    -0.354 N 
ATOM      9  C   UNL d   1      28.529 -12.407  -8.040  0.00  0.00     0.181 A 
ATOM     10  N   UNL d   1      28.497 -13.655  -7.564  0.00  0.00    -0.352 N 
ATOM     11  C   UNL d   1      27.808 -13.698  -6.355  0.00  0.00     0.061 A 
ATOM     12  C   UNL d   1      27.668 -14.825  -5.400  0.00  0.00     0.177 C 
ATOM     13  H   UNL d   1      24.690 -14.944  -2.896  0.00  0.00     0.170 HD
ATOM     14  H   UNL d   1      27.765 -10.640  -7.240  0.00  0.00     0.166 HD
ATOM     15  H   UNL d   1      28.949 -14.452  -8.013  0.00  0.00     0.166 HD
ENDROOT
BRANCH  12  16
ATOM     16  C   UNL d   1      29.060 -15.211  -4.965  0.00  0.00     0.013 A 
ATOM     17  C   UNL d   1      29.670 -16.410  -5.373  0.00  0.00     0.016 A 
ATOM     18  C   UNL d   1      30.921 -16.745  -4.871  0.00  0.00     0.046 A 
ATOM     19  C   UNL d   1      31.610 -15.833  -4.073  0.00  0.00     0.158 A 
ATOM     20  F   UNL d   1      32.837 -16.150  -3.643  0.00  0.00    -0.203 F 
ATOM     21  C   UNL d   1      31.046 -14.614  -3.725  0.00  0.00     0.193 A 
ATOM     22  F   UNL d   1      31.703 -13.752  -2.939  0.00  0.00    -0.200 F 
ATOM     23  C   UNL d   1      29.769 -14.313  -4.156  0.00  0.00     0.166 A 
ATOM     24  F   UNL d   1      29.203 -13.144  -3.821  0.00  0.00    -0.202 F 
ENDBRANCH  12  16
BRANCH   1  25
ATOM     25  C   UNL d   1      25.155 -16.553  -1.655  0.00  0.00     0.037 A 
ATOM     26  C   UNL d   1      26.079 -16.861  -0.651  0.00  0.00     0.029 A 
ATOM     27  C   UNL d   1      25.761 -17.825   0.320  0.00  0.00     0.003 A 
ATOM     28  C   UNL d   1      24.541 -18.514   0.277  0.00  0.00     0.018 A 
ATOM     29  C   UNL d   1      23.607 -18.200  -0.706  0.00  0.00     0.041 A 
ATOM     30  C   UNL d   1      23.930 -17.239  -1.661  0.00  0.00     0.047 A 
BRANCH  29  31
ATOM     31  C   UNL d   1      22.225 -18.742  -0.653  0.00  0.00     0.293 C 
ATOM     32  O   UNL d   1      21.666 -19.199  -1.645  0.00  0.00    -0.259 OA
BRANCH  31  33
ATOM     33  O   UNL d   1      21.702 -18.677   0.598  0.00  0.00    -0.323 OA
ATOM     34  C   UNL d   1      20.536 -19.490   0.791  0.00  0.00     0.213 C 
ENDBRANCH  31  33
ENDBRANCH  29  31
ENDBRANCH   1  25
TORSDOF 4
ENDMDL
MODEL 2
REMARK VINA RESULT:    -7.394      1.446      1.866
REMARK INTER + INTRA:          -9.594
REMARK INTER:                  -8.587
REMARK INTRA:                  -1.007
REMARK CONF_INDEPENDENT:        1.193
REMARK UNBOUND:                -1.007
REMARK  4 active torsions:
REMARK  status: ('A' for Active; 'I' for Inactive)
REMARK    1  A    between atoms: O_2  and  C_3 
REMARK    2  A    between atoms: C_3  and  C_5 
REMARK    3  A    between atoms: C_9  and  N_10 
REMARK       I    between atoms: N_10  and  C_11 
REMARK       I    between atoms: C_11  and  N_13 
REMARK    4  A    between atoms: C_21  and  C_22 
ROOT
ATOM      1  N   UNL d   1      25.116 -14.838  -2.023  0.00  0.00    -0.309 N 
ATOM      2  C   UNL d   1      25.997 -14.575  -3.046  0.00  0.00     0.323 C 
ATOM      3  O   UNL d   1      26.815 -15.382  -3.470  0.00  0.00    -0.247 OA
ATOM      4  N   UNL d   1      25.908 -13.317  -3.644  0.00  0.00    -0.319 N 
ATOM      5  C   UNL d   1      25.905 -12.138  -2.771  0.00  0.00     0.135 C 
ATOM      6  C   UNL d   1      26.039 -10.731  -3.384  0.00  0.00     0.079 C 
ATOM      7  C   UNL d   1      26.259 -10.761  -4.827  0.00  0.00     0.036 A 
ATOM      8  N   UNL d   1      26.452  -9.691  -5.679  0.00  0.00    -0.354 N 
ATOM      9  C   UNL d   1      26.664 -10.116  -6.930  0.00  0.00     0.181 A 
ATOM     10  N   UNL d   1      26.618 -11.450  -6.888  0.00  0.00    -0.352 N 
ATOM     11  C   UNL d   1      26.356 -11.888  -5.593  0.00  0.00     0.061 A 
ATOM     12  C   UNL d   1      26.380 -13.270  -5.052  0.00  0.00     0.177 C 
ATOM     13  H   UNL d   1      24.377 -14.177  -1.839  0.00  0.00     0.170 HD
ATOM     14  H   UNL d   1      26.441  -8.711  -5.405  0.00  0.00     0.166 HD
ATOM     15  H   UNL d   1      26.791 -12.056  -7.691  0.00  0.00     0.166 HD
ENDROOT
BRANCH  12  16
ATOM     16  C   UNL d   1      27.773 -13.806  -5.272  0.00  0.00     0.013 A 
ATOM     17  C   UNL d   1      28.049 -14.825  -6.201  0.00  0.00     0.016 A 
ATOM     18  C   UNL d   1      29.339 -15.331  -6.296  0.00  0.00     0.046 A 
ATOM     19  C   UNL d   1      30.367 -14.738  -5.566  0.00  0.00     0.158 A 
ATOM     20  F   UNL d   1      31.613 -15.204  -5.713  0.00  0.00    -0.203 F 
ATOM     21  C   UNL d   1      30.118 -13.682  -4.701  0.00  0.00     0.193 A 
ATOM     22  F   UNL d   1      31.106 -13.132  -3.986  0.00  0.00    -0.200 F 
ATOM     23  C   UNL d   1      28.822 -13.231  -4.543  0.00  0.00     0.166 A 
ATOM     24  F   UNL d   1      28.560 -12.217  -3.704  0.00  0.00    -0.202 F 
ENDBRANCH  12  16
BRANCH   1  25
ATOM     25  C   UNL d   1      24.997 -16.120  -1.406  0.00  0.00     0.037 A 
ATOM     26  C   UNL d   1      26.132 -16.733  -0.867  0.00  0.00     0.029 A 
ATOM     27  C   UNL d   1      26.013 -17.963  -0.199  0.00  0.00     0.003 A 
ATOM     28  C   UNL d   1      24.773 -18.607  -0.097  0.00  0.00     0.018 A 
ATOM     29  C   UNL d   1      23.633 -17.996  -0.612  0.00  0.00     0.041 A 
ATOM     30  C   UNL d   1      23.762 -16.774  -1.268  0.00  0.00     0.047 A 
BRANCH  29  31
ATOM     31  C   UNL d   1      22.278 -18.534  -0.330  0.00  0.00     0.293 C 
ATOM     32  O   UNL d   1      21.812 -18.565   0.805  0.00  0.00    -0.259 OA
BRANCH  31  33
ATOM     33  O   UNL d   1      21.652 -18.950  -1.460  0.00  0.00    -0.323 OA
ATOM     34  C   UNL d   1      20.280 -19.325  -1.270  0.00  0.00     0.213 C 
ENDBRANCH  31  33
ENDBRANCH  29  31
ENDBRANCH   1  25
TORSDOF 4
ENDMDL
MODEL 3
REMARK VINA RESULT:    -6.761      5.551      6.850
REMARK INTER + INTRA:          -8.923
REMARK INTER:                  -7.955
REMARK INTRA:                  -0.969
REMARK CONF_INDEPENDENT:        1.193
REMARK UNBOUND:                -0.969
REMARK  4 active torsions:
REMARK  status: ('A' for Active; 'I' for Inactive)
REMARK    1  A    between atoms: O_2  and  C_3 
REMARK    2  A    between atoms: C_3  and  C_5 
REMARK    3  A    between atoms: C_9  and  N_10 
REMARK       I    between atoms: N_10  and  C_11 
REMARK       I    between atoms: C_11  and  N_13 
REMARK    4  A    between atoms: C_21  and  C_22 
ROOT
ATOM      1  N   UNL d   1      26.414 -14.865  -0.039  0.00  0.00    -0.309 N 
ATOM      2  C   UNL d   1      27.251 -14.508   0.992  0.00  0.00     0.323 C 
ATOM      3  O   UNL d   1      27.500 -15.224   1.953  0.00  0.00    -0.247 OA
ATOM      4  N   UNL d   1      27.871 -13.261   0.893  0.00  0.00    -0.319 N 
ATOM      5  C   UNL d   1      27.030 -12.094   0.603  0.00  0.00     0.135 C 
ATOM      6  C   UNL d   1      27.624 -10.677   0.710  0.00  0.00     0.079 C 
ATOM      7  C   UNL d   1      28.998 -10.674   1.206  0.00  0.00     0.036 A 
ATOM      8  N   UNL d   1      29.810  -9.585   1.451  0.00  0.00    -0.354 N 
ATOM      9  C   UNL d   1      30.992  -9.977   1.941  0.00  0.00     0.181 A 
ATOM     10  N   UNL d   1      30.942 -11.309   2.023  0.00  0.00    -0.352 N 
ATOM     11  C   UNL d   1      29.716 -11.780   1.562  0.00  0.00     0.061 A 
ATOM     12  C   UNL d   1      29.163 -13.156   1.620  0.00  0.00     0.177 C 
ATOM     13  H   UNL d   1      26.384 -14.283  -0.862  0.00  0.00     0.170 HD
ATOM     14  H   UNL d   1      29.556  -8.612   1.289  0.00  0.00     0.166 HD
ATOM     15  H   UNL d   1      31.689 -11.889   2.407  0.00  0.00     0.166 HD
ENDROOT
BRANCH  12  16
ATOM     16  C   UNL d   1      29.105 -13.547   3.076  0.00  0.00     0.013 A 
ATOM     17  C   UNL d   1      30.024 -14.441   3.653  0.00  0.00     0.016 A 
ATOM     18  C   UNL d   1      29.865 -14.824   4.978  0.00  0.00     0.046 A 
ATOM     19  C   UNL d   1      28.878 -14.221   5.755  0.00  0.00     0.158 A 
ATOM     20  F   UNL d   1      28.775 -14.562   7.045  0.00  0.00    -0.203 F 
ATOM     21  C   UNL d   1      28.011 -13.282   5.214  0.00  0.00     0.193 A 
ATOM     22  F   UNL d   1      27.050 -12.724   5.960  0.00  0.00    -0.200 F 
ATOM     23  C   UNL d   1      28.115 -12.960   3.876  0.00  0.00     0.166 A 
ATOM     24  F   UNL d   1      27.279 -12.062   3.332  0.00  0.00    -0.202 F 
ENDBRANCH  12  16
BRANCH   1  25
ATOM     25  C   UNL d   1      25.815 -16.156  -0.145  0.00  0.00     0.037 A 
ATOM     26  C   UNL d   1      26.541 -17.287   0.242  0.00  0.00     0.029 A 
ATOM     27  C   UNL d   1      25.936 -18.554   0.204  0.00  0.00     0.003 A 
ATOM     28  C   UNL d   1      24.621 -18.709  -0.254  0.00  0.00     0.018 A 
ATOM     29  C   UNL d   1      23.883 -17.588  -0.622  0.00  0.00     0.041 A 
ATOM     30  C   UNL d   1      24.490 -16.336  -0.577  0.00  0.00     0.047 A 
BRANCH  29  31
ATOM     31  C   UNL d   1      22.427 -17.684  -0.898  0.00  0.00     0.293 C 
ATOM     32  O   UNL d   1      21.693 -16.701  -0.877  0.00  0.00    -0.259 OA
BRANCH  31  33
ATOM     33  O   UNL d   1      22.047 -18.956  -1.181  0.00  0.00    -0.323 OA
ATOM     34  C   UNL d   1      20.662 -19.230  -0.921  0.00  0.00     0.213 C 
ENDBRANCH  31  33
ENDBRANCH  29  31
ENDBRANCH   1  25
TORSDOF 4
ENDMDL
MODEL 4
REMARK VINA RESULT:    -6.696      5.488      7.958
REMARK INTER + INTRA:          -8.989
REMARK INTER:                  -7.889
REMARK INTRA:                  -1.100
REMARK CONF_INDEPENDENT:        1.193
REMARK UNBOUND:                -1.100
REMARK  4 active torsions:
REMARK  status: ('A' for Active; 'I' for Inactive)
REMARK    1  A    between atoms: O_2  and  C_3 
REMARK    2  A    between atoms: C_3  and  C_5 
REMARK    3  A    between atoms: C_9  and  N_10 
REMARK       I    between atoms: N_10  and  C_11 
REMARK       I    between atoms: C_11  and  N_13 
REMARK    4  A    between atoms: C_21  and  C_22 
ROOT
ATOM      1  N   UNL d   1      27.602 -15.578   0.576  0.00  0.00    -0.309 N 
ATOM      2  C   UNL d   1      27.596 -14.298   1.080  0.00  0.00     0.323 C 
ATOM      3  O   UNL d   1      26.878 -13.400   0.661  0.00  0.00    -0.247 OA
ATOM      4  N   UNL d   1      28.444 -14.045   2.160  0.00  0.00    -0.319 N 
ATOM      5  C   UNL d   1      29.849 -14.450   2.042  0.00  0.00     0.135 C 
ATOM      6  C   UNL d   1      30.869 -13.992   3.102  0.00  0.00     0.079 C 
ATOM      7  C   UNL d   1      30.291 -13.085   4.090  0.00  0.00     0.036 A 
ATOM      8  N   UNL d   1      30.926 -12.465   5.149  0.00  0.00    -0.354 N 
ATOM      9  C   UNL d   1      30.076 -11.671   5.810  0.00  0.00     0.181 A 
ATOM     10  N   UNL d   1      28.902 -11.767   5.179  0.00  0.00    -0.352 N 
ATOM     11  C   UNL d   1      28.996 -12.650   4.107  0.00  0.00     0.061 A 
ATOM     12  C   UNL d   1      28.002 -12.935   3.043  0.00  0.00     0.177 C 
ATOM     13  H   UNL d   1      28.109 -16.292   1.076  0.00  0.00     0.170 HD
ATOM     14  H   UNL d   1      31.905 -12.584   5.399  0.00  0.00     0.166 HD
ATOM     15  H   UNL d   1      28.069 -11.235   5.433  0.00  0.00     0.166 HD
ENDROOT
BRANCH  12  16
ATOM     16  C   UNL d   1      27.728 -11.631   2.334  0.00  0.00     0.013 A 
ATOM     17  C   UNL d   1      26.516 -10.935   2.481  0.00  0.00     0.016 A 
ATOM     18  C   UNL d   1      26.295  -9.783   1.736  0.00  0.00     0.046 A 
ATOM     19  C   UNL d   1      27.323  -9.262   0.953  0.00  0.00     0.158 A 
ATOM     20  F   UNL d   1      27.110  -8.122   0.286  0.00  0.00    -0.203 F 
ATOM     21  C   UNL d   1      28.550  -9.903   0.859  0.00  0.00     0.193 A 
ATOM     22  F   UNL d   1      29.525  -9.410   0.086  0.00  0.00    -0.200 F 
ATOM     23  C   UNL d   1      28.744 -11.092   1.534  0.00  0.00     0.166 A 
ATOM     24  F   UNL d   1      29.921 -11.732   1.447  0.00  0.00    -0.202 F 
ENDBRANCH  12  16
BRANCH   1  25
ATOM     25  C   UNL d   1      26.698 -16.022  -0.435  0.00  0.00     0.037 A 
ATOM     26  C   UNL d   1      25.648 -16.879  -0.092  0.00  0.00     0.029 A 
ATOM     27  C   UNL d   1      24.714 -17.267  -1.067  0.00  0.00     0.003 A 
ATOM     28  C   UNL d   1      24.842 -16.838  -2.395  0.00  0.00     0.018 A 
ATOM     29  C   UNL d   1      25.871 -15.968  -2.742  0.00  0.00     0.041 A 
ATOM     30  C   UNL d   1      26.789 -15.585  -1.767  0.00  0.00     0.047 A 
BRANCH  29  31
ATOM     31  C   UNL d   1      25.910 -15.316  -4.076  0.00  0.00     0.293 C 
ATOM     32  O   UNL d   1      26.778 -15.575  -4.904  0.00  0.00    -0.259 OA
BRANCH  31  33
ATOM     33  O   UNL d   1      24.880 -14.447  -4.246  0.00  0.00    -0.323 OA
ATOM     34  C   UNL d   1      25.154 -13.114  -3.791  0.00  0.00     0.213 C 
ENDBRANCH  31  33
ENDBRANCH  29  31
ENDBRANCH   1  25
TORSDOF 4
ENDMDL
MODEL 5
REMARK VINA RESULT:    -6.481      3.955      5.051
REMARK INTER + INTRA:          -8.699
REMARK INTER:                  -7.675
REMARK INTRA:                  -1.024
REMARK CONF_INDEPENDENT:        1.193
REMARK UNBOUND:                -1.024
REMARK  4 active torsions:
REMARK  status: ('A' for Active; 'I' for Inactive)
REMARK    1  A    between atoms: O_2  and  C_3 
REMARK    2  A    between atoms: C_3  and  C_5 
REMARK    3  A    between atoms: C_9  and  N_10 
REMARK       I    between atoms: N_10  and  C_11 
REMARK       I    between atoms: C_11  and  N_13 
REMARK    4  A    between atoms: C_21  and  C_22 
ROOT
ATOM      1  N   UNL d   1      25.417 -15.393  -1.656  0.00  0.00    -0.309 N 
ATOM      2  C   UNL d   1      26.204 -14.571  -0.884  0.00  0.00     0.323 C 
ATOM      3  O   UNL d   1      26.403 -14.738   0.313  0.00  0.00    -0.247 OA
ATOM      4  N   UNL d   1      26.833 -13.509  -1.537  0.00  0.00    -0.319 N 
ATOM      5  C   UNL d   1      26.011 -12.639  -2.385  0.00  0.00     0.135 C 
ATOM      6  C   UNL d   1      26.604 -11.330  -2.941  0.00  0.00     0.079 C 
ATOM      7  C   UNL d   1      27.952 -11.064  -2.445  0.00  0.00     0.036 A 
ATOM      8  N   UNL d   1      28.756  -9.973  -2.714  0.00  0.00    -0.354 N 
ATOM      9  C   UNL d   1      29.911 -10.061  -2.044  0.00  0.00     0.181 A 
ATOM     10  N   UNL d   1      29.852 -11.194  -1.339  0.00  0.00    -0.352 N 
ATOM     11  C   UNL d   1      28.648 -11.852  -1.574  0.00  0.00     0.061 A 
ATOM     12  C   UNL d   1      28.087 -13.045  -0.891  0.00  0.00     0.177 C 
ATOM     13  H   UNL d   1      25.429 -15.274  -2.657  0.00  0.00     0.170 HD
ATOM     14  H   UNL d   1      28.513  -9.201  -3.331  0.00  0.00     0.166 HD
ATOM     15  H   UNL d   1      30.577 -11.505  -0.692  0.00  0.00     0.166 HD
ENDROOT
BRANCH  12  16
ATOM     16  C   UNL d   1      27.957 -12.696   0.571  0.00  0.00     0.013 A 
ATOM     17  C   UNL d   1      27.022 -11.758   1.041  0.00  0.00     0.016 A 
ATOM     18  C   UNL d   1      27.009 -11.421   2.388  0.00  0.00     0.046 A 
ATOM     19  C   UNL d   1      27.834 -12.108   3.277  0.00  0.00     0.158 A 
ATOM     20  F   UNL d   1      27.769 -11.808   4.579  0.00  0.00    -0.203 F 
ATOM     21  C   UNL d   1      28.710 -13.089   2.833  0.00  0.00     0.193 A 
ATOM     22  F   UNL d   1      29.516 -13.728   3.689  0.00  0.00    -0.200 F 
ATOM     23  C   UNL d   1      28.782 -13.368   1.483  0.00  0.00     0.166 A 
ATOM     24  F   UNL d   1      29.630 -14.306   1.033  0.00  0.00    -0.202 F 
ENDBRANCH  12  16
BRANCH   1  25
ATOM     25  C   UNL d   1      24.819 -16.591  -1.160  0.00  0.00     0.037 A 
ATOM     26  C   UNL d   1      25.555 -17.430  -0.316  0.00  0.00     0.029 A 
ATOM     27  C   UNL d   1      24.952 -18.575   0.230  0.00  0.00     0.003 A 
ATOM     28  C   UNL d   1      23.630 -18.913  -0.089  0.00  0.00     0.018 A 
ATOM     29  C   UNL d   1      22.883 -18.074  -0.911  0.00  0.00     0.041 A 
ATOM     30  C   UNL d   1      23.488 -16.938  -1.444  0.00  0.00     0.047 A 
BRANCH  29  31
ATOM     31  C   UNL d   1      21.423 -18.276  -1.091  0.00  0.00     0.293 C 
ATOM     32  O   UNL d   1      20.652 -17.338  -1.270  0.00  0.00    -0.259 OA
BRANCH  31  33
ATOM     33  O   UNL d   1      21.084 -19.590  -1.050  0.00  0.00    -0.323 OA
ATOM     34  C   UNL d   1      19.873 -19.863  -0.329  0.00  0.00     0.213 C 
ENDBRANCH  31  33
ENDBRANCH  29  31
ENDBRANCH   1  25
TORSDOF 4
ENDMDL
MODEL 6
REMARK VINA RESULT:    -6.399      4.413      5.514
REMARK INTER + INTRA:          -8.611
REMARK INTER:                  -7.593
REMARK INTRA:                  -1.018
REMARK CONF_INDEPENDENT:        1.193
REMARK UNBOUND:                -1.018
REMARK  4 active torsions:
REMARK  status: ('A' for Active; 'I' for Inactive)
REMARK    1  A    between atoms: O_2  and  C_3 
REMARK    2  A    between atoms: C_3  and  C_5 
REMARK    3  A    between atoms: C_9  and  N_10 
REMARK       I    between atoms: N_10  and  C_11 
REMARK       I    between atoms: C_11  and  N_13 
REMARK    4  A    between atoms: C_21  and  C_22 
ROOT
ATOM      1  N   UNL d   1      26.138 -15.265  -1.395  0.00  0.00    -0.309 N 
ATOM      2  C   UNL d   1      26.830 -14.458  -0.522  0.00  0.00     0.323 C 
ATOM      3  O   UNL d   1      26.883 -14.642   0.687  0.00  0.00    -0.247 OA
ATOM      4  N   UNL d   1      27.538 -13.392  -1.080  0.00  0.00    -0.319 N 
ATOM      5  C   UNL d   1      26.828 -12.506  -2.009  0.00  0.00     0.135 C 
ATOM      6  C   UNL d   1      27.490 -11.193  -2.471  0.00  0.00     0.079 C 
ATOM      7  C   UNL d   1      28.770 -10.943  -1.813  0.00  0.00     0.036 A 
ATOM      8  N   UNL d   1      29.605  -9.853  -1.968  0.00  0.00    -0.354 N 
ATOM      9  C   UNL d   1      30.670  -9.957  -1.165  0.00  0.00     0.181 A 
ATOM     10  N   UNL d   1      30.522 -11.099  -0.488  0.00  0.00    -0.352 N 
ATOM     11  C   UNL d   1      29.352 -11.746  -0.875  0.00  0.00     0.061 A 
ATOM     12  C   UNL d   1      28.708 -12.944  -0.281  0.00  0.00     0.177 C 
ATOM     13  H   UNL d   1      26.271 -15.133  -2.385  0.00  0.00     0.170 HD
ATOM     14  H   UNL d   1      29.442  -9.071  -2.599  0.00  0.00     0.166 HD
ATOM     15  H   UNL d   1      31.162 -11.424   0.237  0.00  0.00     0.166 HD
ENDROOT
BRANCH  12  16
ATOM     16  C   UNL d   1      28.404 -12.614   1.159  0.00  0.00     0.013 A 
ATOM     17  C   UNL d   1      29.045 -13.259   2.230  0.00  0.00     0.016 A 
ATOM     18  C   UNL d   1      28.661 -12.968   3.533  0.00  0.00     0.046 A 
ATOM     19  C   UNL d   1      27.737 -11.950   3.766  0.00  0.00     0.158 A 
ATOM     20  F   UNL d   1      27.419 -11.646   5.030  0.00  0.00    -0.203 F 
ATOM     21  C   UNL d   1      27.152 -11.256   2.716  0.00  0.00     0.193 A 
ATOM     22  F   UNL d   1      26.249 -10.296   2.947  0.00  0.00    -0.200 F 
ATOM     23  C   UNL d   1      27.472 -11.600   1.418  0.00  0.00     0.166 A 
ATOM     24  F   UNL d   1      26.909 -10.947   0.390  0.00  0.00    -0.202 F 
ENDBRANCH  12  16
BRANCH   1  25
ATOM     25  C   UNL d   1      25.479 -16.465  -0.991  0.00  0.00     0.037 A 
ATOM     26  C   UNL d   1      26.177 -17.415  -0.238  0.00  0.00     0.029 A 
ATOM     27  C   UNL d   1      25.517 -18.567   0.220  0.00  0.00     0.003 A 
ATOM     28  C   UNL d   1      24.173 -18.800  -0.099  0.00  0.00     0.018 A 
ATOM     29  C   UNL d   1      23.464 -17.852  -0.830  0.00  0.00     0.041 A 
ATOM     30  C   UNL d   1      24.125 -16.711  -1.275  0.00  0.00     0.047 A 
BRANCH  29  31
ATOM     31  C   UNL d   1      21.991 -17.954  -0.996  0.00  0.00     0.293 C 
ATOM     32  O   UNL d   1      21.254 -16.978  -0.896  0.00  0.00    -0.259 OA
BRANCH  31  33
ATOM     33  O   UNL d   1      21.600 -19.222  -1.280  0.00  0.00    -0.323 OA
ATOM     34  C   UNL d   1      20.437 -19.655  -0.559  0.00  0.00     0.213 C 
ENDBRANCH  31  33
ENDBRANCH  29  31
ENDBRANCH   1  25
TORSDOF 4
ENDMDL
MODEL 7
REMARK VINA RESULT:    -6.324      1.806      2.076
REMARK INTER + INTRA:          -8.398
REMARK INTER:                  -7.517
REMARK INTRA:                  -0.881
REMARK CONF_INDEPENDENT:        1.193
REMARK UNBOUND:                -0.881
REMARK  4 active torsions:
REMARK  status: ('A' for Active; 'I' for Inactive)
REMARK    1  A    between atoms: O_2  and  C_3 
REMARK    2  A    between atoms: C_3  and  C_5 
REMARK    3  A    between atoms: C_9  and  N_10 
REMARK       I    between atoms: N_10  and  C_11 
REMARK       I    between atoms: C_11  and  N_13 
REMARK    4  A    between atoms: C_21  and  C_22 
ROOT
ATOM      1  N   UNL d   1      25.600 -16.304  -2.490  0.00  0.00    -0.309 N 
ATOM      2  C   UNL d   1      26.972 -16.225  -2.566  0.00  0.00     0.323 C 
ATOM      3  O   UNL d   1      27.734 -16.754  -1.767  0.00  0.00    -0.247 OA
ATOM      4  N   UNL d   1      27.501 -15.524  -3.651  0.00  0.00    -0.319 N 
ATOM      5  C   UNL d   1      26.981 -14.179  -3.922  0.00  0.00     0.135 C 
ATOM      6  C   UNL d   1      27.685 -13.281  -4.957  0.00  0.00     0.079 C 
ATOM      7  C   UNL d   1      28.902 -13.883  -5.495  0.00  0.00     0.036 A 
ATOM      8  N   UNL d   1      29.785 -13.341  -6.409  0.00  0.00    -0.354 N 
ATOM      9  C   UNL d   1      30.808 -14.175  -6.628  0.00  0.00     0.181 A 
ATOM     10  N   UNL d   1      30.596 -15.243  -5.854  0.00  0.00    -0.352 N 
ATOM     11  C   UNL d   1      29.409 -15.101  -5.141  0.00  0.00     0.061 A 
ATOM     12  C   UNL d   1      28.866 -15.951  -4.053  0.00  0.00     0.177 C 
ATOM     13  H   UNL d   1      25.053 -15.972  -3.269  0.00  0.00     0.170 HD
ATOM     14  H   UNL d   1      29.684 -12.433  -6.858  0.00  0.00     0.166 HD
ATOM     15  H   UNL d   1      31.240 -16.031  -5.775  0.00  0.00     0.166 HD
ENDROOT
BRANCH  12  16
ATOM     16  C   UNL d   1      29.885 -15.950  -2.941  0.00  0.00     0.013 A 
ATOM     17  C   UNL d   1      30.621 -17.096  -2.594  0.00  0.00     0.016 A 
ATOM     18  C   UNL d   1      31.484 -17.050  -1.506  0.00  0.00     0.046 A 
ATOM     19  C   UNL d   1      31.705 -15.839  -0.853  0.00  0.00     0.158 A 
ATOM     20  F   UNL d   1      32.580 -15.802   0.158  0.00  0.00    -0.203 F 
ATOM     21  C   UNL d   1      31.036 -14.684  -1.236  0.00  0.00     0.193 A 
ATOM     22  F   UNL d   1      31.236 -13.529  -0.590  0.00  0.00    -0.200 F 
ATOM     23  C   UNL d   1      30.118 -14.745  -2.264  0.00  0.00     0.166 A 
ATOM     24  F   UNL d   1      29.455 -13.641  -2.642  0.00  0.00    -0.202 F 
ENDBRANCH  12  16
BRANCH   1  25
ATOM     25  C   UNL d   1      24.918 -17.095  -1.518  0.00  0.00     0.037 A 
ATOM     26  C   UNL d   1      25.575 -17.455  -0.337  0.00  0.00     0.029 A 
ATOM     27  C   UNL d   1      24.889 -18.175   0.654  0.00  0.00     0.003 A 
ATOM     28  C   UNL d   1      23.560 -18.574   0.462  0.00  0.00     0.018 A 
ATOM     29  C   UNL d   1      22.890 -18.204  -0.700  0.00  0.00     0.041 A 
ATOM     30  C   UNL d   1      23.577 -17.485  -1.675  0.00  0.00     0.047 A 
BRANCH  29  31
ATOM     31  C   UNL d   1      21.427 -18.412  -0.843  0.00  0.00     0.293 C 
ATOM     32  O   UNL d   1      20.658 -17.490  -1.097  0.00  0.00    -0.259 OA
BRANCH  31  33
ATOM     33  O   UNL d   1      21.081 -19.714  -0.677  0.00  0.00    -0.323 OA
ATOM     34  C   UNL d   1      20.238 -19.960   0.458  0.00  0.00     0.213 C 
ENDBRANCH  31  33
ENDBRANCH  29  31
ENDBRANCH   1  25
TORSDOF 4
ENDMDL
MODEL 8
REMARK VINA RESULT:    -6.244      2.950      3.643
REMARK INTER + INTRA:          -8.378
REMARK INTER:                  -7.438
REMARK INTRA:                  -0.940
REMARK CONF_INDEPENDENT:        1.193
REMARK UNBOUND:                -0.940
REMARK  4 active torsions:
REMARK  status: ('A' for Active; 'I' for Inactive)
REMARK    1  A    between atoms: O_2  and  C_3 
REMARK    2  A    between atoms: C_3  and  C_5 
REMARK    3  A    between atoms: C_9  and  N_10 
REMARK       I    between atoms: N_10  and  C_11 
REMARK       I    between atoms: C_11  and  N_13 
REMARK    4  A    between atoms: C_21  and  C_22 
ROOT
ATOM      1  N   UNL d   1      25.426 -15.597  -2.718  0.00  0.00    -0.309 N 
ATOM      2  C   UNL d   1      26.290 -14.548  -2.507  0.00  0.00     0.323 C 
ATOM      3  O   UNL d   1      26.874 -14.343  -1.450  0.00  0.00    -0.247 OA
ATOM      4  N   UNL d   1      26.527 -13.701  -3.591  0.00  0.00    -0.319 N 
ATOM      5  C   UNL d   1      25.368 -13.160  -4.309  0.00  0.00     0.135 C 
ATOM      6  C   UNL d   1      25.567 -12.050  -5.358  0.00  0.00     0.079 C 
ATOM      7  C   UNL d   1      26.951 -11.589  -5.439  0.00  0.00     0.036 A 
ATOM      8  N   UNL d   1      27.468 -10.592  -6.243  0.00  0.00    -0.354 N 
ATOM      9  C   UNL d   1      28.774 -10.425  -6.007  0.00  0.00     0.181 A 
ATOM     10  N   UNL d   1      29.098 -11.298  -5.050  0.00  0.00    -0.352 N 
ATOM     11  C   UNL d   1      27.988 -12.050  -4.679  0.00  0.00     0.061 A 
ATOM     12  C   UNL d   1      27.842 -13.010  -3.557  0.00  0.00     0.177 C 
ATOM     13  H   UNL d   1      25.109 -15.780  -3.657  0.00  0.00     0.170 HD
ATOM     14  H   UNL d   1      26.938 -10.050  -6.922  0.00  0.00     0.166 HD
ATOM     15  H   UNL d   1      30.026 -11.371  -4.630  0.00  0.00     0.166 HD
ENDROOT
BRANCH  12  16
ATOM     16  C   UNL d   1      28.126 -12.249  -2.285  0.00  0.00     0.013 A 
ATOM     17  C   UNL d   1      29.222 -12.548  -1.458  0.00  0.00     0.016 A 
ATOM     18  C   UNL d   1      29.380 -11.864  -0.259  0.00  0.00     0.046 A 
ATOM     19  C   UNL d   1      28.527 -10.805   0.047  0.00  0.00     0.158 A 
ATOM     20  F   UNL d   1      28.727 -10.123   1.180  0.00  0.00    -0.203 F 
ATOM     21  C   UNL d   1      27.485 -10.454  -0.800  0.00  0.00     0.193 A 
ATOM     22  F   UNL d   1      26.656  -9.451  -0.489  0.00  0.00    -0.200 F 
ATOM     23  C   UNL d   1      27.277 -11.185  -1.953  0.00  0.00     0.166 A 
ATOM     24  F   UNL d   1      26.268 -10.867  -2.780  0.00  0.00    -0.202 F 
ENDBRANCH  12  16
BRANCH   1  25
ATOM     25  C   UNL d   1      25.188 -16.618  -1.750  0.00  0.00     0.037 A 
ATOM     26  C   UNL d   1      26.228 -17.024  -0.907  0.00  0.00     0.029 A 
ATOM     27  C   UNL d   1      25.985 -17.981   0.093  0.00  0.00     0.003 A 
ATOM     28  C   UNL d   1      24.720 -18.566   0.235  0.00  0.00     0.018 A 
ATOM     29  C   UNL d   1      23.674 -18.154  -0.586  0.00  0.00     0.041 A 
ATOM     30  C   UNL d   1      23.923 -17.202  -1.570  0.00  0.00     0.047 A 
BRANCH  29  31
ATOM     31  C   UNL d   1      22.276 -18.583  -0.322  0.00  0.00     0.293 C 
ATOM     32  O   UNL d   1      21.793 -18.574   0.806  0.00  0.00    -0.259 OA
BRANCH  31  33
ATOM     33  O   UNL d   1      21.635 -18.950  -1.461  0.00  0.00    -0.323 OA
ATOM     34  C   UNL d   1      20.263 -19.326  -1.270  0.00  0.00     0.213 C 
ENDBRANCH  31  33
ENDBRANCH  29  31
ENDBRANCH   1  25
TORSDOF 4
ENDMDL
MODEL 9
REMARK VINA RESULT:    -6.210      5.823      7.977
REMARK INTER + INTRA:          -8.414
REMARK INTER:                  -7.403
REMARK INTRA:                  -1.010
REMARK CONF_INDEPENDENT:        1.193
REMARK UNBOUND:                -1.010
REMARK  4 active torsions:
REMARK  status: ('A' for Active; 'I' for Inactive)
REMARK    1  A    between atoms: O_2  and  C_3 
REMARK    2  A    between atoms: C_3  and  C_5 
REMARK    3  A    between atoms: C_9  and  N_10 
REMARK       I    between atoms: N_10  and  C_11 
REMARK       I    between atoms: C_11  and  N_13 
REMARK    4  A    between atoms: C_21  and  C_22 
ROOT
ATOM      1  N   UNL d   1      27.303 -15.344   1.266  0.00  0.00    -0.309 N 
ATOM      2  C   UNL d   1      27.307 -14.033   1.684  0.00  0.00     0.323 C 
ATOM      3  O   UNL d   1      26.780 -13.116   1.067  0.00  0.00    -0.247 OA
ATOM      4  N   UNL d   1      27.923 -13.766   2.907  0.00  0.00    -0.319 N 
ATOM      5  C   UNL d   1      29.278 -14.287   3.124  0.00  0.00     0.135 C 
ATOM      6  C   UNL d   1      30.086 -13.831   4.354  0.00  0.00     0.079 C 
ATOM      7  C   UNL d   1      29.395 -12.810   5.138  0.00  0.00     0.036 A 
ATOM      8  N   UNL d   1      29.844 -12.164   6.273  0.00  0.00    -0.354 N 
ATOM      9  C   UNL d   1      28.949 -11.260   6.687  0.00  0.00     0.181 A 
ATOM     10  N   UNL d   1      27.934 -11.311   5.821  0.00  0.00    -0.352 N 
ATOM     11  C   UNL d   1      28.172 -12.276   4.847  0.00  0.00     0.061 A 
ATOM     12  C   UNL d   1      27.407 -12.562   3.607  0.00  0.00     0.177 C 
ATOM     13  H   UNL d   1      27.623 -16.056   1.904  0.00  0.00     0.170 HD
ATOM     14  H   UNL d   1      30.732 -12.340   6.739  0.00  0.00     0.166 HD
ATOM     15  H   UNL d   1      27.118 -10.699   5.855  0.00  0.00     0.166 HD
ENDROOT
BRANCH  12  16
ATOM     16  C   UNL d   1      27.412 -11.298   2.784  0.00  0.00     0.013 A 
ATOM     17  C   UNL d   1      26.280 -10.472   2.666  0.00  0.00     0.016 A 
ATOM     18  C   UNL d   1      26.325  -9.367   1.826  0.00  0.00     0.046 A 
ATOM     19  C   UNL d   1      27.527  -9.018   1.213  0.00  0.00     0.158 A 
ATOM     20  F   UNL d   1      27.566  -7.919   0.450  0.00  0.00    -0.203 F 
ATOM     21  C   UNL d   1      28.671  -9.786   1.382  0.00  0.00     0.193 A 
ATOM     22  F   UNL d   1      29.815  -9.457   0.771  0.00  0.00    -0.200 F 
ATOM     23  C   UNL d   1      28.607 -10.931   2.151  0.00  0.00     0.166 A 
ATOM     24  F   UNL d   1      29.699 -11.692   2.318  0.00  0.00    -0.202 F 
ENDBRANCH  12  16
BRANCH   1  25
ATOM     25  C   UNL d   1      26.598 -15.791   0.108  0.00  0.00     0.037 A 
ATOM     26  C   UNL d   1      27.066 -15.437  -1.162  0.00  0.00     0.029 A 
ATOM     27  C   UNL d   1      26.418 -15.928  -2.307  0.00  0.00     0.003 A 
ATOM     28  C   UNL d   1      25.282 -16.740  -2.198  0.00  0.00     0.018 A 
ATOM     29  C   UNL d   1      24.821 -17.115  -0.939  0.00  0.00     0.041 A 
ATOM     30  C   UNL d   1      25.473 -16.627   0.190  0.00  0.00     0.047 A 
BRANCH  29  31
ATOM     31  C   UNL d   1      23.765 -18.147  -0.784  0.00  0.00     0.293 C 
ATOM     32  O   UNL d   1      24.029 -19.317  -0.525  0.00  0.00    -0.259 OA
BRANCH  31  33
ATOM     33  O   UNL d   1      22.521 -17.628  -0.945  0.00  0.00    -0.323 OA
ATOM     34  C   UNL d   1      21.466 -18.600  -0.894  0.00  0.00     0.213 C 
ENDBRANCH  31  33
ENDBRANCH  29  31
ENDBRANCH   1  25
TORSDOF 4
ENDMDL
