MODEL 1
REMARK VINA RESULT:    -8.341      0.000      0.000
REMARK INTER + INTRA:         -12.435
REMARK INTER:                 -10.430
REMARK INTRA:                  -2.006
REMARK CONF_INDEPENDENT:        2.088
REMARK UNBOUND:                -2.006
REMARK  7 active torsions:
REMARK  status: ('A' for Active; 'I' for Inactive)
REMARK    1  A    between atoms: C_2  and  C_4 
REMARK    2  A    between atoms: C_2  and  O_3 
REMARK    3  A    between atoms: C_4  and  N_5 
REMARK       I    between atoms: N_5  and  C_6 
REMARK    4  A    between atoms: C_6  and  C_8 
REMARK       I    between atoms: C_8  and  N_10 
REMARK    5  A    between atoms: N_10  and  C_11 
REMARK    6  A    between atoms: C_15  and  C_16 
REMARK       I    between atoms: C_16  and  N_18 
REMARK    7  A    between atoms: N_18  and  C_19 
ROOT
ATOM      1  C   UNL d   1      25.224 -16.900  -1.624  0.00  0.00     0.036 A 
ATOM      2  C   UNL d   1      26.041 -17.492  -0.657  0.00  0.00     0.029 A 
ATOM      3  C   UNL d   1      25.477 -18.288   0.349  0.00  0.00     0.003 A 
ATOM      4  C   UNL d   1      24.096 -18.482   0.397  0.00  0.00     0.017 A 
ATOM      5  C   UNL d   1      23.273 -17.915  -0.585  0.00  0.00     0.034 A 
ATOM      6  C   UNL d   1      23.846 -17.120  -1.578  0.00  0.00     0.046 A 
ENDROOT
BRANCH   1   7
ATOM      7  N   UNL d   1      25.771 -16.136  -2.680  0.00  0.00    -0.319 N 
ATOM      8  C   UNL d   1      25.188 -14.966  -3.160  0.00  0.00     0.313 C 
ATOM      9  O   UNL d   1      24.206 -14.393  -2.696  0.00  0.00    -0.262 OA
ATOM     10  H   UNL d   1      26.666 -16.414  -3.077  0.00  0.00     0.169 HD
BRANCH   8  11
ATOM     11  C   UNL d   1      25.893 -14.317  -4.376  0.00  0.00     0.309 C 
ATOM     12  N   UNL d   1      25.596 -12.977  -4.551  0.00  0.00    -0.350 N 
ATOM     13  H   UNL d   1      24.974 -12.555  -3.864  0.00  0.00     0.162 HD
ATOM     14  O   UNL d   1      26.631 -14.985  -5.091  0.00  0.00    -0.262 OA
BRANCH  12  15
ATOM     15  C   UNL d   1      26.135 -12.188  -5.647  0.00  0.00     0.154 C 
BRANCH  15  16
ATOM     16  C   UNL d   1      26.069 -10.665  -5.430  0.00  0.00     0.132 C 
ATOM     17  C   UNL d   1      27.458 -10.043  -5.348  0.00  0.00     0.041 C 
BRANCH  16  18
ATOM     18  O   UNL d   1      25.360 -10.364  -4.226  0.00  0.00    -0.394 OA
ATOM     19  H   UNL d   1      24.404 -10.418  -4.406  0.00  0.00     0.210 HD
ENDBRANCH  16  18
ENDBRANCH  15  16
ENDBRANCH  12  15
ENDBRANCH   8  11
ENDBRANCH   1   7
BRANCH   5  20
ATOM     20  C   UNL d   1      21.820 -18.231  -0.561  0.00  0.00     0.252 C 
ATOM     21  O   UNL d   1      21.058 -17.502  -1.193  0.00  0.00    -0.268 OA
ATOM     22  N   UNL d   1      21.392 -19.317   0.189  0.00  0.00    -0.349 N 
ATOM     23  H   UNL d   1      22.053 -19.892   0.687  0.00  0.00     0.163 HD
BRANCH  22  24
ATOM     24  C   UNL d   1      19.982 -19.711   0.286  0.00  0.00     0.022 C 
ATOM     25  C   UNL d   1      19.393 -19.238   1.624  0.00  0.00     0.037 C 
ATOM     26  C   UNL d   1      19.195 -19.130  -0.896  0.00  0.00     0.037 C 
ATOM     27  C   UNL d   1      19.861 -21.247   0.231  0.00  0.00     0.037 C 
ENDBRANCH  22  24
ENDBRANCH   5  20
TORSDOF 7
ENDMDL
MODEL 2
REMARK VINA RESULT:    -8.178      1.434      2.150
REMARK INTER + INTRA:         -12.515
REMARK INTER:                 -10.266
REMARK INTRA:                  -2.249
REMARK CONF_INDEPENDENT:        2.088
REMARK UNBOUND:                -2.249
REMARK  7 active torsions:
REMARK  status: ('A' for Active; 'I' for Inactive)
REMARK    1  A    between atoms: C_2  and  C_4 
REMARK    2  A    between atoms: C_2  and  O_3 
REMARK    3  A    between atoms: C_4  and  N_5 
REMARK       I    between atoms: N_5  and  C_6 
REMARK    4  A    between atoms: C_6  and  C_8 
REMARK       I    between atoms: C_8  and  N_10 
REMARK    5  A    between atoms: N_10  and  C_11 
REMARK    6  A    between atoms: C_15  and  C_16 
REMARK       I    between atoms: C_16  and  N_18 
REMARK    7  A    between atoms: N_18  and  C_19 
ROOT
ATOM      1  C   UNL d   1      24.951 -16.292  -1.196  0.00  0.00     0.036 A 
ATOM      2  C   UNL d   1      25.865 -17.134  -0.556  0.00  0.00     0.029 A 
ATOM      3  C   UNL d   1      25.416 -18.280   0.116  0.00  0.00     0.003 A 
ATOM      4  C   UNL d   1      24.053 -18.576   0.161  0.00  0.00     0.017 A 
ATOM      5  C   UNL d   1      23.133 -17.751  -0.500  0.00  0.00     0.034 A 
ATOM      6  C   UNL d   1      23.592 -16.611  -1.161  0.00  0.00     0.046 A 
ENDROOT
BRANCH   1   7
ATOM      7  N   UNL d   1      25.381 -15.161  -1.925  0.00  0.00    -0.319 N 
ATOM      8  C   UNL d   1      25.680 -15.196  -3.285  0.00  0.00     0.313 C 
ATOM      9  O   UNL d   1      25.529 -16.149  -4.045  0.00  0.00    -0.262 OA
ATOM     10  H   UNL d   1      25.421 -14.259  -1.457  0.00  0.00     0.169 HD
BRANCH   8  11
ATOM     11  C   UNL d   1      26.213 -13.873  -3.888  0.00  0.00     0.309 C 
ATOM     12  N   UNL d   1      26.813 -14.018  -5.126  0.00  0.00    -0.350 N 
ATOM     13  H   UNL d   1      26.824 -14.958  -5.519  0.00  0.00     0.162 HD
ATOM     14  O   UNL d   1      26.095 -12.821  -3.269  0.00  0.00    -0.262 OA
BRANCH  12  15
ATOM     15  C   UNL d   1      27.400 -12.903  -5.852  0.00  0.00     0.154 C 
BRANCH  15  16
ATOM     16  C   UNL d   1      28.548 -13.293  -6.801  0.00  0.00     0.132 C 
ATOM     17  C   UNL d   1      28.478 -12.529  -8.118  0.00  0.00     0.041 C 
BRANCH  16  18
ATOM     18  O   UNL d   1      28.508 -14.694  -7.081  0.00  0.00    -0.394 OA
ATOM     19  H   UNL d   1      28.723 -14.830  -8.021  0.00  0.00     0.210 HD
ENDBRANCH  16  18
ENDBRANCH  15  16
ENDBRANCH  12  15
ENDBRANCH   8  11
ENDBRANCH   1   7
BRANCH   5  20
ATOM     20  C   UNL d   1      21.702 -18.157  -0.519  0.00  0.00     0.252 C 
ATOM     21  O   UNL d   1      20.921 -17.495  -1.198  0.00  0.00    -0.268 OA
ATOM     22  N   UNL d   1      21.315 -19.247   0.248  0.00  0.00    -0.349 N 
ATOM     23  H   UNL d   1      21.991 -19.766   0.786  0.00  0.00     0.163 HD
BRANCH  22  24
ATOM     24  C   UNL d   1      19.929 -19.726   0.308  0.00  0.00     0.022 C 
ATOM     25  C   UNL d   1      19.904 -21.234   0.594  0.00  0.00     0.037 C 
ATOM     26  C   UNL d   1      19.155 -18.950   1.381  0.00  0.00     0.037 C 
ATOM     27  C   UNL d   1      19.234 -19.488  -1.048  0.00  0.00     0.037 C 
ENDBRANCH  22  24
ENDBRANCH   5  20
TORSDOF 7
ENDMDL
MODEL 3
REMARK VINA RESULT:    -7.933      1.911      8.683
REMARK INTER + INTRA:         -12.489
REMARK INTER:                 -10.021
REMARK INTRA:                  -2.468
REMARK CONF_INDEPENDENT:        2.088
REMARK UNBOUND:                -2.468
REMARK  7 active torsions:
REMARK  status: ('A' for Active; 'I' for Inactive)
REMARK    1  A    between atoms: C_2  and  C_4 
REMARK    2  A    between atoms: C_2  and  O_3 
REMARK    3  A    between atoms: C_4  and  N_5 
REMARK       I    between atoms: N_5  and  C_6 
REMARK    4  A    between atoms: C_6  and  C_8 
REMARK       I    between atoms: C_8  and  N_10 
REMARK    5  A    between atoms: N_10  and  C_11 
REMARK    6  A    between atoms: C_15  and  C_16 
REMARK       I    between atoms: C_16  and  N_18 
REMARK    7  A    between atoms: N_18  and  C_19 
ROOT
ATOM      1  C   UNL d   1      24.676 -17.748  -0.441  0.00  0.00     0.036 A 
ATOM      2  C   UNL d   1      25.878 -18.035   0.212  0.00  0.00     0.029 A 
ATOM      3  C   UNL d   1      27.079 -17.477  -0.248  0.00  0.00     0.003 A 
ATOM      4  C   UNL d   1      27.081 -16.643  -1.366  0.00  0.00     0.017 A 
ATOM      5  C   UNL d   1      25.877 -16.328  -2.010  0.00  0.00     0.034 A 
ATOM      6  C   UNL d   1      24.689 -16.895  -1.546  0.00  0.00     0.046 A 
ENDROOT
BRANCH   1   7
ATOM      7  N   UNL d   1      23.444 -18.254   0.032  0.00  0.00    -0.319 N 
ATOM      8  C   UNL d   1      22.459 -18.773  -0.803  0.00  0.00     0.313 C 
ATOM      9  O   UNL d   1      22.545 -18.952  -2.016  0.00  0.00    -0.262 OA
ATOM     10  H   UNL d   1      23.284 -18.299   1.036  0.00  0.00     0.169 HD
BRANCH   8  11
ATOM     11  C   UNL d   1      21.146 -19.203  -0.104  0.00  0.00     0.309 C 
ATOM     12  N   UNL d   1      20.164 -19.648  -0.971  0.00  0.00    -0.350 N 
ATOM     13  H   UNL d   1      20.406 -19.669  -1.960  0.00  0.00     0.162 HD
ATOM     14  O   UNL d   1      21.042 -19.124   1.115  0.00  0.00    -0.262 OA
BRANCH  12  15
ATOM     15  C   UNL d   1      18.850 -20.075  -0.520  0.00  0.00     0.154 C 
BRANCH  15  16
ATOM     16  C   UNL d   1      18.779 -20.459   0.970  0.00  0.00     0.132 C 
ATOM     17  C   UNL d   1      17.761 -21.565   1.222  0.00  0.00     0.041 C 
BRANCH  16  18
ATOM     18  O   UNL d   1      18.427 -19.322   1.761  0.00  0.00    -0.394 OA
ATOM     19  H   UNL d   1      19.147 -18.669   1.705  0.00  0.00     0.210 HD
ENDBRANCH  16  18
ENDBRANCH  15  16
ENDBRANCH  12  15
ENDBRANCH   8  11
ENDBRANCH   1   7
BRANCH   5  20
ATOM     20  C   UNL d   1      25.906 -15.353  -3.132  0.00  0.00     0.252 C 
ATOM     21  O   UNL d   1      25.155 -15.544  -4.086  0.00  0.00    -0.268 OA
ATOM     22  N   UNL d   1      26.794 -14.289  -3.060  0.00  0.00    -0.349 N 
ATOM     23  H   UNL d   1      27.388 -14.167  -2.255  0.00  0.00     0.163 HD
BRANCH  22  24
ATOM     24  C   UNL d   1      26.909 -13.276  -4.115  0.00  0.00     0.022 C 
ATOM     25  C   UNL d   1      27.877 -12.166  -3.678  0.00  0.00     0.037 C 
ATOM     26  C   UNL d   1      27.380 -13.932  -5.420  0.00  0.00     0.037 C 
ATOM     27  C   UNL d   1      25.533 -12.630  -4.374  0.00  0.00     0.037 C 
ENDBRANCH  22  24
ENDBRANCH   5  20
TORSDOF 7
ENDMDL
MODEL 4
REMARK VINA RESULT:    -7.823      2.146      9.055
REMARK INTER + INTRA:         -12.145
REMARK INTER:                  -9.911
REMARK INTRA:                  -2.234
REMARK CONF_INDEPENDENT:        2.088
REMARK UNBOUND:                -2.234
REMARK  7 active torsions:
REMARK  status: ('A' for Active; 'I' for Inactive)
REMARK    1  A    between atoms: C_2  and  C_4 
REMARK    2  A    between atoms: C_2  and  O_3 
REMARK    3  A    between atoms: C_4  and  N_5 
REMARK       I    between atoms: N_5  and  C_6 
REMARK    4  A    between atoms: C_6  and  C_8 
REMARK       I    between atoms: C_8  and  N_10 
REMARK    5  A    between atoms: N_10  and  C_11 
REMARK    6  A    between atoms: C_15  and  C_16 
REMARK       I    between atoms: C_16  and  N_18 
REMARK    7  A    between atoms: N_18  and  C_19 
ROOT
ATOM      1  C   UNL d   1      24.750 -16.576  -1.465  0.00  0.00     0.036 A 
ATOM      2  C   UNL d   1      25.650 -16.528  -0.396  0.00  0.00     0.029 A 
ATOM      3  C   UNL d   1      26.959 -16.068  -0.598  0.00  0.00     0.003 A 
ATOM      4  C   UNL d   1      27.373 -15.670  -1.869  0.00  0.00     0.017 A 
ATOM      5  C   UNL d   1      26.470 -15.689  -2.940  0.00  0.00     0.034 A 
ATOM      6  C   UNL d   1      25.171 -16.153  -2.728  0.00  0.00     0.046 A 
ENDROOT
BRANCH   1   7
ATOM      7  N   UNL d   1      23.410 -16.984  -1.280  0.00  0.00    -0.319 N 
ATOM      8  C   UNL d   1      23.053 -18.174  -0.652  0.00  0.00     0.313 C 
ATOM      9  O   UNL d   1      23.812 -18.969  -0.102  0.00  0.00    -0.262 OA
ATOM     10  H   UNL d   1      22.661 -16.357  -1.562  0.00  0.00     0.169 HD
BRANCH   8  11
ATOM     11  C   UNL d   1      21.537 -18.485  -0.617  0.00  0.00     0.309 C 
ATOM     12  N   UNL d   1      21.204 -19.593   0.141  0.00  0.00    -0.350 N 
ATOM     13  H   UNL d   1      21.973 -20.072   0.608  0.00  0.00     0.162 HD
ATOM     14  O   UNL d   1      20.748 -17.779  -1.236  0.00  0.00    -0.262 OA
BRANCH  12  15
ATOM     15  C   UNL d   1      19.838 -20.069   0.284  0.00  0.00     0.154 C 
BRANCH  15  16
ATOM     16  C   UNL d   1      19.470 -20.536   1.704  0.00  0.00     0.132 C 
ATOM     17  C   UNL d   1      18.072 -20.080   2.106  0.00  0.00     0.041 C 
BRANCH  16  18
ATOM     18  O   UNL d   1      20.409 -20.029   2.654  0.00  0.00    -0.394 OA
ATOM     19  H   UNL d   1      21.024 -20.744   2.897  0.00  0.00     0.210 HD
ENDBRANCH  16  18
ENDBRANCH  15  16
ENDBRANCH  12  15
ENDBRANCH   8  11
ENDBRANCH   1   7
BRANCH   5  20
ATOM     20  C   UNL d   1      26.917 -15.157  -4.255  0.00  0.00     0.252 C 
ATOM     21  O   UNL d   1      26.361 -15.574  -5.268  0.00  0.00    -0.268 OA
ATOM     22  N   UNL d   1      27.955 -14.236  -4.277  0.00  0.00    -0.349 N 
ATOM     23  H   UNL d   1      28.379 -13.917  -3.420  0.00  0.00     0.163 HD
BRANCH  22  24
ATOM     24  C   UNL d   1      28.478 -13.655  -5.518  0.00  0.00     0.022 C 
ATOM     25  C   UNL d   1      28.928 -14.771  -6.474  0.00  0.00     0.037 C 
ATOM     26  C   UNL d   1      27.408 -12.771  -6.172  0.00  0.00     0.037 C 
ATOM     27  C   UNL d   1      29.704 -12.772  -5.209  0.00  0.00     0.037 C 
ENDBRANCH  22  24
ENDBRANCH   5  20
TORSDOF 7
ENDMDL
MODEL 5
REMARK VINA RESULT:    -7.447      3.917      8.614
REMARK INTER + INTRA:         -11.916
REMARK INTER:                  -9.535
REMARK INTRA:                  -2.381
REMARK CONF_INDEPENDENT:        2.088
REMARK UNBOUND:                -2.381
REMARK  7 active torsions:
REMARK  status: ('A' for Active; 'I' for Inactive)
REMARK    1  A    between atoms: C_2  and  C_4 
REMARK    2  A    between atoms: C_2  and  O_3 
REMARK    3  A    between atoms: C_4  and  N_5 
REMARK       I    between atoms: N_5  and  C_6 
REMARK    4  A    between atoms: C_6  and  C_8 
REMARK       I    between atoms: C_8  and  N_10 
REMARK    5  A    between atoms: N_10  and  C_11 
REMARK    6  A    between atoms: C_15  and  C_16 
REMARK       I    between atoms: C_16  and  N_18 
REMARK    7  A    between atoms: N_18  and  C_19 
ROOT
ATOM      1  C   UNL d   1      26.005 -16.769  -0.891  0.00  0.00     0.036 A 
ATOM      2  C   UNL d   1      27.169 -17.074  -1.603  0.00  0.00     0.029 A 
ATOM      3  C   UNL d   1      28.388 -16.484  -1.244  0.00  0.00     0.003 A 
ATOM      4  C   UNL d   1      28.443 -15.580  -0.182  0.00  0.00     0.017 A 
ATOM      5  C   UNL d   1      27.287 -15.290   0.554  0.00  0.00     0.034 A 
ATOM      6  C   UNL d   1      26.078 -15.880   0.183  0.00  0.00     0.046 A 
ENDROOT
BRANCH   1   7
ATOM      7  N   UNL d   1      24.773 -17.389  -1.198  0.00  0.00    -0.319 N 
ATOM      8  C   UNL d   1      24.023 -18.103  -0.266  0.00  0.00     0.313 C 
ATOM      9  O   UNL d   1      24.259 -18.215   0.934  0.00  0.00    -0.262 OA
ATOM     10  H   UNL d   1      24.377 -17.265  -2.126  0.00  0.00     0.169 HD
BRANCH   8  11
ATOM     11  C   UNL d   1      22.742 -18.778  -0.813  0.00  0.00     0.309 C 
ATOM     12  N   UNL d   1      21.837 -19.150   0.164  0.00  0.00    -0.350 N 
ATOM     13  H   UNL d   1      22.089 -18.927   1.126  0.00  0.00     0.162 HD
ATOM     14  O   UNL d   1      22.602 -18.951  -2.019  0.00  0.00    -0.262 OA
BRANCH  12  15
ATOM     15  C   UNL d   1      20.582 -19.820  -0.137  0.00  0.00     0.154 C 
BRANCH  15  16
ATOM     16  C   UNL d   1      19.920 -20.509   1.071  0.00  0.00     0.132 C 
ATOM     17  C   UNL d   1      18.401 -20.533   0.946  0.00  0.00     0.041 C 
BRANCH  16  18
ATOM     18  O   UNL d   1      20.271 -19.836   2.282  0.00  0.00    -0.394 OA
ATOM     19  H   UNL d   1      21.091 -20.228   2.630  0.00  0.00     0.210 HD
ENDBRANCH  16  18
ENDBRANCH  15  16
ENDBRANCH  12  15
ENDBRANCH   8  11
ENDBRANCH   1   7
BRANCH   5  20
ATOM     20  C   UNL d   1      27.406 -14.404   1.743  0.00  0.00     0.252 C 
ATOM     21  O   UNL d   1      26.696 -13.403   1.793  0.00  0.00    -0.268 OA
ATOM     22  N   UNL d   1      28.327 -14.738   2.726  0.00  0.00    -0.349 N 
ATOM     23  H   UNL d   1      28.885 -15.574   2.646  0.00  0.00     0.163 HD
BRANCH  22  24
ATOM     24  C   UNL d   1      28.530 -13.931   3.933  0.00  0.00     0.022 C 
ATOM     25  C   UNL d   1      28.860 -12.481   3.549  0.00  0.00     0.037 C 
ATOM     26  C   UNL d   1      27.279 -13.993   4.819  0.00  0.00     0.037 C 
ATOM     27  C   UNL d   1      29.718 -14.488   4.744  0.00  0.00     0.037 C 
ENDBRANCH  22  24
ENDBRANCH   5  20
TORSDOF 7
ENDMDL
MODEL 6
REMARK VINA RESULT:    -7.101      2.509      9.084
REMARK INTER + INTRA:         -11.188
REMARK INTER:                  -9.189
REMARK INTRA:                  -1.999
REMARK CONF_INDEPENDENT:        2.088
REMARK UNBOUND:                -1.999
REMARK  7 active torsions:
REMARK  status: ('A' for Active; 'I' for Inactive)
REMARK    1  A    between atoms: C_2  and  C_4 
REMARK    2  A    between atoms: C_2  and  O_3 
REMARK    3  A    between atoms: C_4  and  N_5 
REMARK       I    between atoms: N_5  and  C_6 
REMARK    4  A    between atoms: C_6  and  C_8 
REMARK       I    between atoms: C_8  and  N_10 
REMARK    5  A    between atoms: N_10  and  C_11 
REMARK    6  A    between atoms: C_15  and  C_16 
REMARK       I    between atoms: C_16  and  N_18 
REMARK    7  A    between atoms: N_18  and  C_19 
ROOT
ATOM      1  C   UNL d   1      25.835 -15.940  -1.735  0.00  0.00     0.036 A 
ATOM      2  C   UNL d   1      25.904 -14.780  -0.957  0.00  0.00     0.029 A 
ATOM      3  C   UNL d   1      26.571 -13.647  -1.442  0.00  0.00     0.003 A 
ATOM      4  C   UNL d   1      27.182 -13.676  -2.696  0.00  0.00     0.017 A 
ATOM      5  C   UNL d   1      27.095 -14.825  -3.493  0.00  0.00     0.034 A 
ATOM      6  C   UNL d   1      26.432 -15.949  -2.997  0.00  0.00     0.046 A 
ENDROOT
BRANCH   1   7
ATOM      7  N   UNL d   1      25.124 -17.079  -1.294  0.00  0.00    -0.319 N 
ATOM      8  C   UNL d   1      23.773 -17.053  -0.957  0.00  0.00     0.313 C 
ATOM      9  O   UNL d   1      23.005 -16.102  -1.077  0.00  0.00    -0.262 OA
ATOM     10  H   UNL d   1      25.597 -17.979  -1.276  0.00  0.00     0.169 HD
BRANCH   8  11
ATOM     11  C   UNL d   1      23.192 -18.383  -0.418  0.00  0.00     0.309 C 
ATOM     12  N   UNL d   1      21.814 -18.391  -0.298  0.00  0.00    -0.350 N 
ATOM     13  H   UNL d   1      21.328 -17.545  -0.592  0.00  0.00     0.162 HD
ATOM     14  O   UNL d   1      23.940 -19.311  -0.129  0.00  0.00    -0.262 OA
BRANCH  12  15
ATOM     15  C   UNL d   1      21.074 -19.533   0.210  0.00  0.00     0.154 C 
BRANCH  15  16
ATOM     16  C   UNL d   1      19.597 -19.583  -0.225  0.00  0.00     0.132 C 
ATOM     17  C   UNL d   1      18.858 -20.753   0.414  0.00  0.00     0.041 C 
BRANCH  16  18
ATOM     18  O   UNL d   1      19.501 -19.700  -1.646  0.00  0.00    -0.394 OA
ATOM     19  H   UNL d   1      18.572 -19.571  -1.906  0.00  0.00     0.210 HD
ENDBRANCH  16  18
ENDBRANCH  15  16
ENDBRANCH  12  15
ENDBRANCH   8  11
ENDBRANCH   1   7
BRANCH   5  20
ATOM     20  C   UNL d   1      27.667 -14.782  -4.865  0.00  0.00     0.252 C 
ATOM     21  O   UNL d   1      27.054 -15.349  -5.766  0.00  0.00    -0.268 OA
ATOM     22  N   UNL d   1      28.874 -14.125  -5.057  0.00  0.00    -0.349 N 
ATOM     23  H   UNL d   1      29.340 -13.667  -4.289  0.00  0.00     0.163 HD
BRANCH  22  24
ATOM     24  C   UNL d   1      29.529 -14.030  -6.366  0.00  0.00     0.022 C 
ATOM     25  C   UNL d   1      30.806 -13.183  -6.258  0.00  0.00     0.037 C 
ATOM     26  C   UNL d   1      29.845 -15.435  -6.895  0.00  0.00     0.037 C 
ATOM     27  C   UNL d   1      28.587 -13.341  -7.375  0.00  0.00     0.037 C 
ENDBRANCH  22  24
ENDBRANCH   5  20
TORSDOF 7
ENDMDL
MODEL 7
REMARK VINA RESULT:    -6.571      3.428      8.482
REMARK INTER + INTRA:         -11.041
REMARK INTER:                  -8.659
REMARK INTRA:                  -2.382
REMARK CONF_INDEPENDENT:        2.088
REMARK UNBOUND:                -2.382
REMARK  7 active torsions:
REMARK  status: ('A' for Active; 'I' for Inactive)
REMARK    1  A    between atoms: C_2  and  C_4 
REMARK    2  A    between atoms: C_2  and  O_3 
REMARK    3  A    between atoms: C_4  and  N_5 
REMARK       I    between atoms: N_5  and  C_6 
REMARK    4  A    between atoms: C_6  and  C_8 
REMARK       I    between atoms: C_8  and  N_10 
REMARK    5  A    between atoms: N_10  and  C_11 
REMARK    6  A    between atoms: C_15  and  C_16 
REMARK       I    between atoms: C_16  and  N_18 
REMARK    7  A    between atoms: N_18  and  C_19 
ROOT
ATOM      1  C   UNL d   1      24.960 -15.975  -1.470  0.00  0.00     0.036 A 
ATOM      2  C   UNL d   1      25.444 -16.054  -2.779  0.00  0.00     0.029 A 
ATOM      3  C   UNL d   1      26.741 -15.613  -3.077  0.00  0.00     0.003 A 
ATOM      4  C   UNL d   1      27.549 -15.082  -2.071  0.00  0.00     0.017 A 
ATOM      5  C   UNL d   1      27.082 -15.025  -0.752  0.00  0.00     0.034 A 
ATOM      6  C   UNL d   1      25.787 -15.462  -0.469  0.00  0.00     0.046 A 
ENDROOT
BRANCH   1   7
ATOM      7  N   UNL d   1      23.677 -16.461  -1.131  0.00  0.00    -0.319 N 
ATOM      8  C   UNL d   1      23.456 -17.726  -0.593  0.00  0.00     0.313 C 
ATOM      9  O   UNL d   1      24.312 -18.540  -0.256  0.00  0.00    -0.262 OA
ATOM     10  H   UNL d   1      22.876 -15.842  -1.226  0.00  0.00     0.169 HD
BRANCH   8  11
ATOM     11  C   UNL d   1      21.973 -18.107  -0.365  0.00  0.00     0.309 C 
ATOM     12  N   UNL d   1      21.791 -19.211   0.448  0.00  0.00    -0.350 N 
ATOM     13  H   UNL d   1      22.634 -19.642   0.825  0.00  0.00     0.162 HD
ATOM     14  O   UNL d   1      21.080 -17.455  -0.894  0.00  0.00    -0.262 OA
BRANCH  12  15
ATOM     15  C   UNL d   1      20.478 -19.747   0.768  0.00  0.00     0.154 C 
BRANCH  15  16
ATOM     16  C   UNL d   1      19.457 -19.665  -0.382  0.00  0.00     0.132 C 
ATOM     17  C   UNL d   1      18.319 -20.662  -0.200  0.00  0.00     0.041 C 
BRANCH  16  18
ATOM     18  O   UNL d   1      20.096 -19.921  -1.634  0.00  0.00    -0.394 OA
ATOM     19  H   UNL d   1      20.262 -19.071  -2.079  0.00  0.00     0.210 HD
ENDBRANCH  16  18
ENDBRANCH  15  16
ENDBRANCH  12  15
ENDBRANCH   8  11
ENDBRANCH   1   7
BRANCH   5  20
ATOM     20  C   UNL d   1      28.009 -14.551   0.310  0.00  0.00     0.252 C 
ATOM     21  O   UNL d   1      29.216 -14.584   0.081  0.00  0.00    -0.268 OA
ATOM     22  N   UNL d   1      27.470 -14.117   1.513  0.00  0.00    -0.349 N 
ATOM     23  H   UNL d   1      26.473 -14.101   1.655  0.00  0.00     0.163 HD
BRANCH  22  24
ATOM     24  C   UNL d   1      28.295 -13.638   2.627  0.00  0.00     0.022 C 
ATOM     25  C   UNL d   1      29.596 -14.450   2.708  0.00  0.00     0.037 C 
ATOM     26  C   UNL d   1      28.592 -12.143   2.452  0.00  0.00     0.037 C 
ATOM     27  C   UNL d   1      27.538 -13.821   3.958  0.00  0.00     0.037 C 
ENDBRANCH  22  24
ENDBRANCH   5  20
TORSDOF 7
ENDMDL
MODEL 8
REMARK VINA RESULT:    -6.564      3.856      8.961
REMARK INTER + INTRA:         -11.034
REMARK INTER:                  -8.652
REMARK INTRA:                  -2.382
REMARK CONF_INDEPENDENT:        2.088
REMARK UNBOUND:                -2.382
REMARK  7 active torsions:
REMARK  status: ('A' for Active; 'I' for Inactive)
REMARK    1  A    between atoms: C_2  and  C_4 
REMARK    2  A    between atoms: C_2  and  O_3 
REMARK    3  A    between atoms: C_4  and  N_5 
REMARK       I    between atoms: N_5  and  C_6 
REMARK    4  A    between atoms: C_6  and  C_8 
REMARK       I    between atoms: C_8  and  N_10 
REMARK    5  A    between atoms: N_10  and  C_11 
REMARK    6  A    between atoms: C_15  and  C_16 
REMARK       I    between atoms: C_16  and  N_18 
REMARK    7  A    between atoms: N_18  and  C_19 
ROOT
ATOM      1  C   UNL d   1      25.826 -16.746  -0.815  0.00  0.00     0.036 A 
ATOM      2  C   UNL d   1      25.840 -15.531  -0.124  0.00  0.00     0.029 A 
ATOM      3  C   UNL d   1      27.057 -14.889   0.145  0.00  0.00     0.003 A 
ATOM      4  C   UNL d   1      28.259 -15.467  -0.262  0.00  0.00     0.017 A 
ATOM      5  C   UNL d   1      28.252 -16.672  -0.979  0.00  0.00     0.034 A 
ATOM      6  C   UNL d   1      27.034 -17.304  -1.236  0.00  0.00     0.046 A 
ENDROOT
BRANCH   1   7
ATOM      7  N   UNL d   1      24.611 -17.388  -1.147  0.00  0.00    -0.319 N 
ATOM      8  C   UNL d   1      23.848 -18.103  -0.228  0.00  0.00     0.313 C 
ATOM      9  O   UNL d   1      24.055 -18.200   0.980  0.00  0.00    -0.262 OA
ATOM     10  H   UNL d   1      24.237 -17.279  -2.086  0.00  0.00     0.169 HD
BRANCH   8  11
ATOM     11  C   UNL d   1      22.592 -18.803  -0.800  0.00  0.00     0.309 C 
ATOM     12  N   UNL d   1      21.699 -19.238   0.162  0.00  0.00    -0.350 N 
ATOM     13  H   UNL d   1      21.942 -19.038   1.131  0.00  0.00     0.162 HD
ATOM     14  O   UNL d   1      22.460 -18.941  -2.012  0.00  0.00    -0.262 OA
BRANCH  12  15
ATOM     15  C   UNL d   1      20.468 -19.940  -0.164  0.00  0.00     0.154 C 
BRANCH  15  16
ATOM     16  C   UNL d   1      19.892 -20.788   0.984  0.00  0.00     0.132 C 
ATOM     17  C   UNL d   1      18.371 -20.872   0.919  0.00  0.00     0.041 C 
BRANCH  16  18
ATOM     18  O   UNL d   1      20.267 -20.234   2.248  0.00  0.00    -0.394 OA
ATOM     19  H   UNL d   1      21.026 -20.735   2.594  0.00  0.00     0.210 HD
ENDBRANCH  16  18
ENDBRANCH  15  16
ENDBRANCH  12  15
ENDBRANCH   8  11
ENDBRANCH   1   7
BRANCH   5  20
ATOM     20  C   UNL d   1      29.545 -17.202  -1.488  0.00  0.00     0.252 C 
ATOM     21  O   UNL d   1      30.030 -16.682  -2.490  0.00  0.00    -0.268 OA
ATOM     22  N   UNL d   1      30.128 -18.271  -0.822  0.00  0.00    -0.349 N 
ATOM     23  H   UNL d   1      29.698 -18.663   0.001  0.00  0.00     0.163 HD
BRANCH  22  24
ATOM     24  C   UNL d   1      31.397 -18.874  -1.245  0.00  0.00     0.022 C 
ATOM     25  C   UNL d   1      32.544 -17.868  -1.072  0.00  0.00     0.037 C 
ATOM     26  C   UNL d   1      31.661 -20.152  -0.438  0.00  0.00     0.037 C 
ATOM     27  C   UNL d   1      31.324 -19.259  -2.736  0.00  0.00     0.037 C 
ENDBRANCH  22  24
ENDBRANCH   5  20
TORSDOF 7
ENDMDL
MODEL 9
REMARK VINA RESULT:    -6.004      3.017      8.681
REMARK INTER + INTRA:         -10.617
REMARK INTER:                  -8.092
REMARK INTRA:                  -2.525
REMARK CONF_INDEPENDENT:        2.088
REMARK UNBOUND:                -2.525
REMARK  7 active torsions:
REMARK  status: ('A' for Active; 'I' for Inactive)
REMARK    1  A    between atoms: C_2  and  C_4 
REMARK    2  A    between atoms: C_2  and  O_3 
REMARK    3  A    between atoms: C_4  and  N_5 
REMARK       I    between atoms: N_5  and  C_6 
REMARK    4  A    between atoms: C_6  and  C_8 
REMARK       I    between atoms: C_8  and  N_10 
REMARK    5  A    between atoms: N_10  and  C_11 
REMARK    6  A    between atoms: C_15  and  C_16 
REMARK       I    between atoms: C_16  and  N_18 
REMARK    7  A    between atoms: N_18  and  C_19 
ROOT
ATOM      1  C   UNL d   1      24.804 -15.552  -2.127  0.00  0.00     0.036 A 
ATOM      2  C   UNL d   1      24.775 -14.566  -3.118  0.00  0.00     0.029 A 
ATOM      3  C   UNL d   1      25.972 -14.071  -3.654  0.00  0.00     0.003 A 
ATOM      4  C   UNL d   1      27.198 -14.550  -3.190  0.00  0.00     0.017 A 
ATOM      5  C   UNL d   1      27.236 -15.557  -2.216  0.00  0.00     0.034 A 
ATOM      6  C   UNL d   1      26.037 -16.038  -1.687  0.00  0.00     0.046 A 
ENDROOT
BRANCH   1   7
ATOM      7  N   UNL d   1      23.613 -16.106  -1.608  0.00  0.00    -0.319 N 
ATOM      8  C   UNL d   1      23.541 -17.382  -1.054  0.00  0.00     0.313 C 
ATOM      9  O   UNL d   1      24.480 -18.148  -0.853  0.00  0.00    -0.262 OA
ATOM     10  H   UNL d   1      22.774 -15.532  -1.579  0.00  0.00     0.169 HD
BRANCH   8  11
ATOM     11  C   UNL d   1      22.130 -17.843  -0.614  0.00  0.00     0.309 C 
ATOM     12  N   UNL d   1      22.118 -19.036   0.085  0.00  0.00    -0.350 N 
ATOM     13  H   UNL d   1      23.022 -19.472   0.256  0.00  0.00     0.162 HD
ATOM     14  O   UNL d   1      21.145 -17.171  -0.899  0.00  0.00    -0.262 OA
BRANCH  12  15
ATOM     15  C   UNL d   1      20.893 -19.654   0.567  0.00  0.00     0.154 C 
BRANCH  15  16
ATOM     16  C   UNL d   1      19.690 -19.516  -0.384  0.00  0.00     0.132 C 
ATOM     17  C   UNL d   1      18.596 -20.528  -0.064  0.00  0.00     0.041 C 
BRANCH  16  18
ATOM     18  O   UNL d   1      20.105 -19.701  -1.740  0.00  0.00    -0.394 OA
ATOM     19  H   UNL d   1      20.422 -18.849  -2.087  0.00  0.00     0.210 HD
ENDBRANCH  16  18
ENDBRANCH  15  16
ENDBRANCH  12  15
ENDBRANCH   8  11
ENDBRANCH   1   7
BRANCH   5  20
ATOM     20  C   UNL d   1      28.557 -16.116  -1.824  0.00  0.00     0.252 C 
ATOM     21  O   UNL d   1      28.774 -17.304  -2.049  0.00  0.00    -0.268 OA
ATOM     22  N   UNL d   1      29.472 -15.276  -1.204  0.00  0.00    -0.349 N 
ATOM     23  H   UNL d   1      29.254 -14.305  -1.044  0.00  0.00     0.163 HD
BRANCH  22  24
ATOM     24  C   UNL d   1      30.798 -15.727  -0.770  0.00  0.00     0.022 C 
ATOM     25  C   UNL d   1      30.662 -16.891   0.223  0.00  0.00     0.037 C 
ATOM     26  C   UNL d   1      31.634 -16.140  -1.989  0.00  0.00     0.037 C 
ATOM     27  C   UNL d   1      31.535 -14.577  -0.053  0.00  0.00     0.037 C 
ENDBRANCH  22  24
ENDBRANCH   5  20
TORSDOF 7
ENDMDL
