MODEL 1
REMARK VINA RESULT:    -8.672      0.000      0.000
REMARK INTER + INTRA:         -12.745
REMARK INTER:                 -11.953
REMARK INTRA:                  -0.792
REMARK CONF_INDEPENDENT:        3.281
REMARK UNBOUND:                -0.792
REMARK  11 active torsions:
REMARK  status: ('A' for Active; 'I' for Inactive)
REMARK    1  A    between atoms: C_2  and  C_3 
REMARK    2  A    between atoms: C_2  and  N_11 
REMARK    3  A    between atoms: C_3  and  C_4 
REMARK    4  A    between atoms: C_4  and  C_5 
REMARK       I    between atoms: N_11  and  C_12 
REMARK       I    between atoms: C_12  and  N_14 
REMARK    5  A    between atoms: N_14  and  C_15 
REMARK    6  A    between atoms: C_15  and  C_16 
REMARK    7  A    between atoms: C_16  and  O_17 
REMARK    8  A    between atoms: C_16  and  C_18 
REMARK    9  A    between atoms: C_18  and  O_19 
REMARK   10  A    between atoms: O_19  and  C_20 
REMARK   11  A    between atoms: C_23  and  N_24 
ROOT
ATOM      1  N   UNL d   1      24.926 -17.967  -0.283  0.00  0.00    -0.339 N 
ATOM      2  C   UNL d   1      25.801 -16.908  -0.349  0.00  0.00     0.316 C 
ATOM      3  O   UNL d   1      25.454 -15.732  -0.227  0.00  0.00    -0.247 OA
ATOM      4  N   UNL d   1      27.116 -17.253  -0.523  0.00  0.00    -0.341 N 
ATOM      5  H   UNL d   1      25.276 -18.903  -0.421  0.00  0.00     0.164 HD
ATOM      6  H   UNL d   1      27.372 -18.198  -0.775  0.00  0.00     0.164 HD
ENDROOT
BRANCH   4   7
ATOM      7  C   UNL d   1      28.138 -16.204  -0.612  0.00  0.00     0.158 C 
BRANCH   7   8
ATOM      8  C   UNL d   1      28.496 -15.556   0.739  0.00  0.00     0.160 C 
BRANCH   8   9
ATOM      9  O   UNL d   1      29.907 -15.291   0.761  0.00  0.00    -0.392 OA
ATOM     10  H   UNL d   1      30.270 -15.687   1.572  0.00  0.00     0.210 HD
ENDBRANCH   8   9
BRANCH   8  11
ATOM     11  C   UNL d   1      27.689 -14.255   0.977  0.00  0.00     0.209 C 
BRANCH  11  12
ATOM     12  O   UNL d   1      28.531 -13.272   1.605  0.00  0.00    -0.349 OA
BRANCH  12  13
ATOM     13  C   UNL d   1      28.034 -11.999   1.699  0.00  0.00     0.069 A 
ATOM     14  C   UNL d   1      27.050 -11.791   2.674  0.00  0.00     0.039 A 
ATOM     15  C   UNL d   1      26.381 -10.564   2.768  0.00  0.00     0.039 A 
ATOM     16  C   UNL d   1      26.750  -9.515   1.920  0.00  0.00     0.103 A 
ATOM     17  C   UNL d   1      27.726  -9.715   0.936  0.00  0.00     0.039 A 
ATOM     18  C   UNL d   1      28.358 -10.961   0.824  0.00  0.00     0.039 A 
BRANCH  16  19
ATOM     19  N   UNL d   1      26.156  -8.182   2.098  0.00  0.00    -0.116 N 
ATOM     20  O   UNL d   1      25.168  -7.893   1.408  0.00  0.00    -0.532 OA
ATOM     21  O   UNL d   1      26.663  -7.435   2.948  0.00  0.00    -0.532 OA
ENDBRANCH  16  19
ENDBRANCH  12  13
ENDBRANCH  11  12
ENDBRANCH   8  11
ENDBRANCH   7   8
ENDBRANCH   4   7
BRANCH   1  22
ATOM     22  C   UNL d   1      23.483 -17.774  -0.030  0.00  0.00     0.082 C 
ATOM     23  C   UNL d   1      22.946 -16.494  -0.684  0.00  0.00     0.032 C 
BRANCH  22  24
ATOM     24  C   UNL d   1      22.693 -18.965  -0.571  0.00  0.00     0.029 C 
BRANCH  24  25
ATOM     25  C   UNL d   1      21.221 -18.682  -0.894  0.00  0.00     0.040 C 
BRANCH  25  26
ATOM     26  C   UNL d   1      20.282 -19.479  -0.020  0.00  0.00    -0.058 A 
ATOM     27  C   UNL d   1      19.157 -20.087  -0.588  0.00  0.00     0.007 A 
ATOM     28  C   UNL d   1      18.230 -20.731   0.229  0.00  0.00     0.001 A 
ATOM     29  C   UNL d   1      18.460 -20.852   1.600  0.00  0.00     0.000 A 
ATOM     30  C   UNL d   1      19.601 -20.299   2.165  0.00  0.00     0.001 A 
ATOM     31  C   UNL d   1      20.501 -19.620   1.359  0.00  0.00     0.007 A 
ENDBRANCH  25  26
ENDBRANCH  24  25
ENDBRANCH  22  24
ENDBRANCH   1  22
TORSDOF 11
ENDMDL
MODEL 2
REMARK VINA RESULT:    -8.389      4.208      9.900
REMARK INTER + INTRA:         -13.940
REMARK INTER:                 -11.671
REMARK INTRA:                  -2.270
REMARK CONF_INDEPENDENT:        3.281
REMARK UNBOUND:                -2.270
REMARK  11 active torsions:
REMARK  status: ('A' for Active; 'I' for Inactive)
REMARK    1  A    between atoms: C_2  and  C_3 
REMARK    2  A    between atoms: C_2  and  N_11 
REMARK    3  A    between atoms: C_3  and  C_4 
REMARK    4  A    between atoms: C_4  and  C_5 
REMARK       I    between atoms: N_11  and  C_12 
REMARK       I    between atoms: C_12  and  N_14 
REMARK    5  A    between atoms: N_14  and  C_15 
REMARK    6  A    between atoms: C_15  and  C_16 
REMARK    7  A    between atoms: C_16  and  O_17 
REMARK    8  A    between atoms: C_16  and  C_18 
REMARK    9  A    between atoms: C_18  and  O_19 
REMARK   10  A    between atoms: O_19  and  C_20 
REMARK   11  A    between atoms: C_23  and  N_24 
ROOT
ATOM      1  N   UNL d   1      28.765 -14.552   3.321  0.00  0.00    -0.339 N 
ATOM      2  C   UNL d   1      28.318 -14.312   2.043  0.00  0.00     0.316 C 
ATOM      3  O   UNL d   1      27.600 -13.357   1.742  0.00  0.00    -0.247 OA
ATOM      4  N   UNL d   1      28.763 -15.198   1.097  0.00  0.00    -0.341 N 
ATOM      5  H   UNL d   1      29.326 -15.371   3.500  0.00  0.00     0.164 HD
ATOM      6  H   UNL d   1      29.220 -16.058   1.371  0.00  0.00     0.164 HD
ENDROOT
BRANCH   4   7
ATOM      7  C   UNL d   1      28.346 -15.042  -0.301  0.00  0.00     0.158 C 
BRANCH   7   8
ATOM      8  C   UNL d   1      27.981 -16.365  -1.002  0.00  0.00     0.160 C 
BRANCH   8   9
ATOM      9  O   UNL d   1      28.408 -17.456  -0.171  0.00  0.00    -0.392 OA
ATOM     10  H   UNL d   1      27.681 -17.663   0.442  0.00  0.00     0.210 HD
ENDBRANCH   8   9
BRANCH   8  11
ATOM     11  C   UNL d   1      26.461 -16.455  -1.289  0.00  0.00     0.209 C 
BRANCH  11  12
ATOM     12  O   UNL d   1      25.809 -17.166  -0.222  0.00  0.00    -0.349 OA
BRANCH  12  13
ATOM     13  C   UNL d   1      24.537 -17.614  -0.462  0.00  0.00     0.069 A 
ATOM     14  C   UNL d   1      23.568 -16.626  -0.686  0.00  0.00     0.039 A 
ATOM     15  C   UNL d   1      22.214 -16.966  -0.812  0.00  0.00     0.039 A 
ATOM     16  C   UNL d   1      21.839 -18.312  -0.779  0.00  0.00     0.103 A 
ATOM     17  C   UNL d   1      22.798 -19.305  -0.546  0.00  0.00     0.039 A 
ATOM     18  C   UNL d   1      24.144 -18.950  -0.379  0.00  0.00     0.039 A 
BRANCH  16  19
ATOM     19  N   UNL d   1      20.445 -18.693  -1.047  0.00  0.00    -0.116 N 
ATOM     20  O   UNL d   1      19.570 -17.829  -0.895  0.00  0.00    -0.532 OA
ATOM     21  O   UNL d   1      20.229 -19.851  -1.435  0.00  0.00    -0.532 OA
ENDBRANCH  16  19
ENDBRANCH  12  13
ENDBRANCH  11  12
ENDBRANCH   8  11
ENDBRANCH   7   8
ENDBRANCH   4   7
BRANCH   1  22
ATOM     22  C   UNL d   1      28.434 -13.652   4.446  0.00  0.00     0.082 C 
ATOM     23  C   UNL d   1      27.405 -14.272   5.401  0.00  0.00     0.032 C 
BRANCH  22  24
ATOM     24  C   UNL d   1      29.698 -13.322   5.241  0.00  0.00     0.029 C 
BRANCH  24  25
ATOM     25  C   UNL d   1      29.922 -14.175   6.495  0.00  0.00     0.040 C 
BRANCH  25  26
ATOM     26  C   UNL d   1      29.279 -13.568   7.720  0.00  0.00    -0.058 A 
ATOM     27  C   UNL d   1      29.021 -12.193   7.756  0.00  0.00     0.007 A 
ATOM     28  C   UNL d   1      28.529 -11.610   8.923  0.00  0.00     0.001 A 
ATOM     29  C   UNL d   1      28.208 -12.402  10.027  0.00  0.00     0.000 A 
ATOM     30  C   UNL d   1      28.410 -13.774   9.981  0.00  0.00     0.001 A 
ATOM     31  C   UNL d   1      28.941 -14.348   8.837  0.00  0.00     0.007 A 
ENDBRANCH  25  26
ENDBRANCH  24  25
ENDBRANCH  22  24
ENDBRANCH   1  22
TORSDOF 11
ENDMDL
MODEL 3
REMARK VINA RESULT:    -8.087      3.078      9.662
REMARK INTER + INTRA:         -13.012
REMARK INTER:                 -11.368
REMARK INTRA:                  -1.644
REMARK CONF_INDEPENDENT:        3.281
REMARK UNBOUND:                -1.644
REMARK  11 active torsions:
REMARK  status: ('A' for Active; 'I' for Inactive)
REMARK    1  A    between atoms: C_2  and  C_3 
REMARK    2  A    between atoms: C_2  and  N_11 
REMARK    3  A    between atoms: C_3  and  C_4 
REMARK    4  A    between atoms: C_4  and  C_5 
REMARK       I    between atoms: N_11  and  C_12 
REMARK       I    between atoms: C_12  and  N_14 
REMARK    5  A    between atoms: N_14  and  C_15 
REMARK    6  A    between atoms: C_15  and  C_16 
REMARK    7  A    between atoms: C_16  and  O_17 
REMARK    8  A    between atoms: C_16  and  C_18 
REMARK    9  A    between atoms: C_18  and  O_19 
REMARK   10  A    between atoms: O_19  and  C_20 
REMARK   11  A    between atoms: C_23  and  N_24 
ROOT
ATOM      1  N   UNL d   1      28.583 -14.497   3.697  0.00  0.00    -0.339 N 
ATOM      2  C   UNL d   1      27.927 -14.395   2.493  0.00  0.00     0.316 C 
ATOM      3  O   UNL d   1      27.017 -13.592   2.281  0.00  0.00    -0.247 OA
ATOM      4  N   UNL d   1      28.384 -15.234   1.510  0.00  0.00    -0.341 N 
ATOM      5  H   UNL d   1      29.299 -15.200   3.809  0.00  0.00     0.164 HD
ATOM      6  H   UNL d   1      29.019 -15.990   1.732  0.00  0.00     0.164 HD
ENDROOT
BRANCH   4   7
ATOM      7  C   UNL d   1      27.756 -15.215   0.185  0.00  0.00     0.158 C 
BRANCH   7   8
ATOM      8  C   UNL d   1      28.026 -16.475  -0.660  0.00  0.00     0.160 C 
BRANCH   8   9
ATOM      9  O   UNL d   1      29.198 -17.127  -0.148  0.00  0.00    -0.392 OA
ATOM     10  H   UNL d   1      29.174 -17.060   0.822  0.00  0.00     0.210 HD
ENDBRANCH   8   9
BRANCH   8  11
ATOM     11  C   UNL d   1      26.812 -17.439  -0.646  0.00  0.00     0.209 C 
BRANCH  11  12
ATOM     12  O   UNL d   1      25.649 -16.743  -0.165  0.00  0.00    -0.349 OA
BRANCH  12  13
ATOM     13  C   UNL d   1      24.431 -17.312  -0.433  0.00  0.00     0.069 A 
ATOM     14  C   UNL d   1      23.389 -16.425  -0.736  0.00  0.00     0.039 A 
ATOM     15  C   UNL d   1      22.077 -16.889  -0.897  0.00  0.00     0.039 A 
ATOM     16  C   UNL d   1      21.821 -18.262  -0.820  0.00  0.00     0.103 A 
ATOM     17  C   UNL d   1      22.853 -19.155  -0.509  0.00  0.00     0.039 A 
ATOM     18  C   UNL d   1      24.154 -18.674  -0.308  0.00  0.00     0.039 A 
BRANCH  16  19
ATOM     19  N   UNL d   1      20.477 -18.776  -1.123  0.00  0.00    -0.116 N 
ATOM     20  O   UNL d   1      20.383 -19.699  -1.944  0.00  0.00    -0.532 OA
ATOM     21  O   UNL d   1      19.519 -18.273  -0.518  0.00  0.00    -0.532 OA
ENDBRANCH  16  19
ENDBRANCH  12  13
ENDBRANCH  11  12
ENDBRANCH   8  11
ENDBRANCH   7   8
ENDBRANCH   4   7
BRANCH   1  22
ATOM     22  C   UNL d   1      28.260 -13.618   4.840  0.00  0.00     0.082 C 
ATOM     23  C   UNL d   1      28.933 -14.084   6.138  0.00  0.00     0.032 C 
BRANCH  22  24
ATOM     24  C   UNL d   1      28.712 -12.188   4.544  0.00  0.00     0.029 C 
BRANCH  24  25
ATOM     25  C   UNL d   1      27.745 -11.089   5.000  0.00  0.00     0.040 C 
BRANCH  25  26
ATOM     26  C   UNL d   1      27.372 -10.154   3.874  0.00  0.00    -0.058 A 
ATOM     27  C   UNL d   1      27.056 -10.678   2.616  0.00  0.00     0.007 A 
ATOM     28  C   UNL d   1      26.818  -9.816   1.546  0.00  0.00     0.001 A 
ATOM     29  C   UNL d   1      26.804  -8.435   1.741  0.00  0.00     0.000 A 
ATOM     30  C   UNL d   1      27.062  -7.907   2.998  0.00  0.00     0.001 A 
ATOM     31  C   UNL d   1      27.343  -8.762   4.052  0.00  0.00     0.007 A 
ENDBRANCH  25  26
ENDBRANCH  24  25
ENDBRANCH  22  24
ENDBRANCH   1  22
TORSDOF 11
ENDMDL
MODEL 4
REMARK VINA RESULT:    -7.951      2.687      4.359
REMARK INTER + INTRA:         -13.766
REMARK INTER:                 -11.232
REMARK INTRA:                  -2.534
REMARK CONF_INDEPENDENT:        3.281
REMARK UNBOUND:                -2.534
REMARK  11 active torsions:
REMARK  status: ('A' for Active; 'I' for Inactive)
REMARK    1  A    between atoms: C_2  and  C_3 
REMARK    2  A    between atoms: C_2  and  N_11 
REMARK    3  A    between atoms: C_3  and  C_4 
REMARK    4  A    between atoms: C_4  and  C_5 
REMARK       I    between atoms: N_11  and  C_12 
REMARK       I    between atoms: C_12  and  N_14 
REMARK    5  A    between atoms: N_14  and  C_15 
REMARK    6  A    between atoms: C_15  and  C_16 
REMARK    7  A    between atoms: C_16  and  O_17 
REMARK    8  A    between atoms: C_16  and  C_18 
REMARK    9  A    between atoms: C_18  and  O_19 
REMARK   10  A    between atoms: O_19  and  C_20 
REMARK   11  A    between atoms: C_23  and  N_24 
ROOT
ATOM      1  N   UNL d   1      27.806 -15.179   1.570  0.00  0.00    -0.339 N 
ATOM      2  C   UNL d   1      27.565 -14.446   2.708  0.00  0.00     0.316 C 
ATOM      3  O   UNL d   1      26.788 -13.490   2.749  0.00  0.00    -0.247 OA
ATOM      4  N   UNL d   1      28.228 -14.879   3.828  0.00  0.00    -0.341 N 
ATOM      5  H   UNL d   1      28.479 -15.930   1.602  0.00  0.00     0.164 HD
ATOM      6  H   UNL d   1      28.973 -15.558   3.755  0.00  0.00     0.164 HD
ENDROOT
BRANCH   4   7
ATOM      7  C   UNL d   1      28.049 -14.169   5.099  0.00  0.00     0.158 C 
BRANCH   7   8
ATOM      8  C   UNL d   1      29.360 -13.916   5.869  0.00  0.00     0.160 C 
BRANCH   8   9
ATOM      9  O   UNL d   1      30.400 -14.707   5.275  0.00  0.00    -0.392 OA
ATOM     10  H   UNL d   1      31.130 -14.107   5.040  0.00  0.00     0.210 HD
ENDBRANCH   8   9
BRANCH   8  11
ATOM     11  C   UNL d   1      29.740 -12.414   5.865  0.00  0.00     0.209 C 
BRANCH  11  12
ATOM     12  O   UNL d   1      29.980 -11.981   4.514  0.00  0.00    -0.349 OA
BRANCH  12  13
ATOM     13  C   UNL d   1      29.043 -11.152   3.954  0.00  0.00     0.069 A 
ATOM     14  C   UNL d   1      28.108 -10.593   4.836  0.00  0.00     0.039 A 
ATOM     15  C   UNL d   1      27.031  -9.838   4.354  0.00  0.00     0.039 A 
ATOM     16  C   UNL d   1      26.929  -9.587   2.983  0.00  0.00     0.103 A 
ATOM     17  C   UNL d   1      27.852 -10.148   2.093  0.00  0.00     0.039 A 
ATOM     18  C   UNL d   1      28.902 -10.937   2.583  0.00  0.00     0.039 A 
BRANCH  16  19
ATOM     19  N   UNL d   1      25.884  -8.683   2.477  0.00  0.00    -0.116 N 
ATOM     20  O   UNL d   1      24.819  -9.188   2.096  0.00  0.00    -0.532 OA
ATOM     21  O   UNL d   1      26.122  -7.467   2.488  0.00  0.00    -0.532 OA
ENDBRANCH  16  19
ENDBRANCH  12  13
ENDBRANCH  11  12
ENDBRANCH   8  11
ENDBRANCH   7   8
ENDBRANCH   4   7
BRANCH   1  22
ATOM     22  C   UNL d   1      27.120 -14.888   0.293  0.00  0.00     0.082 C 
ATOM     23  C   UNL d   1      27.727 -13.678  -0.428  0.00  0.00     0.032 C 
BRANCH  22  24
ATOM     24  C   UNL d   1      27.206 -16.101  -0.634  0.00  0.00     0.029 C 
BRANCH  24  25
ATOM     25  C   UNL d   1      26.589 -17.391  -0.082  0.00  0.00     0.040 C 
BRANCH  25  26
ATOM     26  C   UNL d   1      25.101 -17.465  -0.335  0.00  0.00    -0.058 A 
ATOM     27  C   UNL d   1      24.414 -16.324  -0.763  0.00  0.00     0.007 A 
ATOM     28  C   UNL d   1      23.027 -16.358  -0.892  0.00  0.00     0.001 A 
ATOM     29  C   UNL d   1      22.327 -17.547  -0.685  0.00  0.00     0.000 A 
ATOM     30  C   UNL d   1      23.006 -18.699  -0.314  0.00  0.00     0.001 A 
ATOM     31  C   UNL d   1      24.380 -18.654  -0.142  0.00  0.00     0.007 A 
ENDBRANCH  25  26
ENDBRANCH  24  25
ENDBRANCH  22  24
ENDBRANCH   1  22
TORSDOF 11
ENDMDL
MODEL 5
REMARK VINA RESULT:    -7.894      2.755      4.698
REMARK INTER + INTRA:         -13.701
REMARK INTER:                 -11.176
REMARK INTRA:                  -2.526
REMARK CONF_INDEPENDENT:        3.281
REMARK UNBOUND:                -2.526
REMARK  11 active torsions:
REMARK  status: ('A' for Active; 'I' for Inactive)
REMARK    1  A    between atoms: C_2  and  C_3 
REMARK    2  A    between atoms: C_2  and  N_11 
REMARK    3  A    between atoms: C_3  and  C_4 
REMARK    4  A    between atoms: C_4  and  C_5 
REMARK       I    between atoms: N_11  and  C_12 
REMARK       I    between atoms: C_12  and  N_14 
REMARK    5  A    between atoms: N_14  and  C_15 
REMARK    6  A    between atoms: C_15  and  C_16 
REMARK    7  A    between atoms: C_16  and  O_17 
REMARK    8  A    between atoms: C_16  and  C_18 
REMARK    9  A    between atoms: C_18  and  O_19 
REMARK   10  A    between atoms: O_19  and  C_20 
REMARK   11  A    between atoms: C_23  and  N_24 
ROOT
ATOM      1  N   UNL d   1      28.515 -14.985   1.609  0.00  0.00    -0.339 N 
ATOM      2  C   UNL d   1      27.908 -14.483   2.736  0.00  0.00     0.316 C 
ATOM      3  O   UNL d   1      26.947 -13.712   2.704  0.00  0.00    -0.247 OA
ATOM      4  N   UNL d   1      28.424 -14.934   3.923  0.00  0.00    -0.341 N 
ATOM      5  H   UNL d   1      29.318 -15.588   1.710  0.00  0.00     0.164 HD
ATOM      6  H   UNL d   1      29.301 -15.438   3.945  0.00  0.00     0.164 HD
ENDROOT
BRANCH   4   7
ATOM      7  C   UNL d   1      27.857 -14.462   5.191  0.00  0.00     0.158 C 
BRANCH   7   8
ATOM      8  C   UNL d   1      28.905 -14.176   6.283  0.00  0.00     0.160 C 
BRANCH   8   9
ATOM      9  O   UNL d   1      30.189 -14.613   5.812  0.00  0.00    -0.392 OA
ATOM     10  H   UNL d   1      30.670 -13.829   5.496  0.00  0.00     0.210 HD
ENDBRANCH   8   9
BRANCH   8  11
ATOM     11  C   UNL d   1      28.939 -12.672   6.658  0.00  0.00     0.209 C 
BRANCH  11  12
ATOM     12  O   UNL d   1      29.503 -11.918   5.571  0.00  0.00    -0.349 OA
BRANCH  12  13
ATOM     13  C   UNL d   1      28.699 -10.971   4.993  0.00  0.00     0.069 A 
ATOM     14  C   UNL d   1      28.054 -11.350   3.808  0.00  0.00     0.039 A 
ATOM     15  C   UNL d   1      27.314 -10.420   3.065  0.00  0.00     0.039 A 
ATOM     16  C   UNL d   1      27.166  -9.117   3.550  0.00  0.00     0.103 A 
ATOM     17  C   UNL d   1      27.814  -8.726   4.728  0.00  0.00     0.039 A 
ATOM     18  C   UNL d   1      28.586  -9.654   5.440  0.00  0.00     0.039 A 
BRANCH  16  19
ATOM     19  N   UNL d   1      26.281  -8.171   2.855  0.00  0.00    -0.116 N 
ATOM     20  O   UNL d   1      26.392  -6.968   3.129  0.00  0.00    -0.532 OA
ATOM     21  O   UNL d   1      25.494  -8.631   2.015  0.00  0.00    -0.532 OA
ENDBRANCH  16  19
ENDBRANCH  12  13
ENDBRANCH  11  12
ENDBRANCH   8  11
ENDBRANCH   7   8
ENDBRANCH   4   7
BRANCH   1  22
ATOM     22  C   UNL d   1      28.037 -14.654   0.250  0.00  0.00     0.082 C 
ATOM     23  C   UNL d   1      28.953 -15.223  -0.841  0.00  0.00     0.032 C 
BRANCH  22  24
ATOM     24  C   UNL d   1      26.628 -15.210   0.042  0.00  0.00     0.029 C 
BRANCH  24  25
ATOM     25  C   UNL d   1      26.548 -16.726  -0.167  0.00  0.00     0.040 C 
BRANCH  25  26
ATOM     26  C   UNL d   1      25.123 -17.207  -0.309  0.00  0.00    -0.058 A 
ATOM     27  C   UNL d   1      24.833 -18.566  -0.145  0.00  0.00     0.007 A 
ATOM     28  C   UNL d   1      23.540 -19.032  -0.382  0.00  0.00     0.001 A 
ATOM     29  C   UNL d   1      22.514 -18.140  -0.695  0.00  0.00     0.000 A 
ATOM     30  C   UNL d   1      22.781 -16.783  -0.806  0.00  0.00     0.001 A 
ATOM     31  C   UNL d   1      24.075 -16.325  -0.614  0.00  0.00     0.007 A 
ENDBRANCH  25  26
ENDBRANCH  24  25
ENDBRANCH  22  24
ENDBRANCH   1  22
TORSDOF 11
ENDMDL
MODEL 6
REMARK VINA RESULT:    -7.735      4.684      9.880
REMARK INTER + INTRA:         -13.297
REMARK INTER:                 -11.016
REMARK INTRA:                  -2.281
REMARK CONF_INDEPENDENT:        3.281
REMARK UNBOUND:                -2.281
REMARK  11 active torsions:
REMARK  status: ('A' for Active; 'I' for Inactive)
REMARK    1  A    between atoms: C_2  and  C_3 
REMARK    2  A    between atoms: C_2  and  N_11 
REMARK    3  A    between atoms: C_3  and  C_4 
REMARK    4  A    between atoms: C_4  and  C_5 
REMARK       I    between atoms: N_11  and  C_12 
REMARK       I    between atoms: C_12  and  N_14 
REMARK    5  A    between atoms: N_14  and  C_15 
REMARK    6  A    between atoms: C_15  and  C_16 
REMARK    7  A    between atoms: C_16  and  O_17 
REMARK    8  A    between atoms: C_16  and  C_18 
REMARK    9  A    between atoms: C_18  and  O_19 
REMARK   10  A    between atoms: O_19  and  C_20 
REMARK   11  A    between atoms: C_23  and  N_24 
ROOT
ATOM      1  N   UNL d   1      29.172 -14.489   4.062  0.00  0.00    -0.339 N 
ATOM      2  C   UNL d   1      28.948 -13.998   2.798  0.00  0.00     0.316 C 
ATOM      3  O   UNL d   1      28.469 -12.884   2.576  0.00  0.00    -0.247 OA
ATOM      4  N   UNL d   1      29.336 -14.826   1.776  0.00  0.00    -0.341 N 
ATOM      5  H   UNL d   1      29.539 -15.422   4.169  0.00  0.00     0.164 HD
ATOM      6  H   UNL d   1      29.582 -15.789   1.960  0.00  0.00     0.164 HD
ENDROOT
BRANCH   4   7
ATOM      7  C   UNL d   1      29.141 -14.406   0.384  0.00  0.00     0.158 C 
BRANCH   7   8
ATOM      8  C   UNL d   1      29.236 -15.554  -0.640  0.00  0.00     0.160 C 
BRANCH   8   9
ATOM      9  O   UNL d   1      29.914 -16.661  -0.025  0.00  0.00    -0.392 OA
ATOM     10  H   UNL d   1      29.270 -17.128   0.535  0.00  0.00     0.210 HD
ENDBRANCH   8   9
BRANCH   8  11
ATOM     11  C   UNL d   1      27.835 -15.981  -1.146  0.00  0.00     0.209 C 
BRANCH  11  12
ATOM     12  O   UNL d   1      27.375 -17.117  -0.394  0.00  0.00    -0.349 OA
BRANCH  12  13
ATOM     13  C   UNL d   1      26.057 -17.463  -0.538  0.00  0.00     0.069 A 
ATOM     14  C   UNL d   1      25.414 -16.977  -1.684  0.00  0.00     0.039 A 
ATOM     15  C   UNL d   1      24.037 -17.160  -1.865  0.00  0.00     0.039 A 
ATOM     16  C   UNL d   1      23.312 -17.893  -0.920  0.00  0.00     0.103 A 
ATOM     17  C   UNL d   1      23.943 -18.374   0.233  0.00  0.00     0.039 A 
ATOM     18  C   UNL d   1      25.313 -18.148   0.424  0.00  0.00     0.039 A 
BRANCH  16  19
ATOM     19  N   UNL d   1      21.897 -18.211  -1.164  0.00  0.00    -0.116 N 
ATOM     20  O   UNL d   1      21.056 -17.342  -0.896  0.00  0.00    -0.532 OA
ATOM     21  O   UNL d   1      21.632 -19.320  -1.649  0.00  0.00    -0.532 OA
ENDBRANCH  16  19
ENDBRANCH  12  13
ENDBRANCH  11  12
ENDBRANCH   8  11
ENDBRANCH   7   8
ENDBRANCH   4   7
BRANCH   1  22
ATOM     22  C   UNL d   1      28.875 -13.695   5.273  0.00  0.00     0.082 C 
ATOM     23  C   UNL d   1      27.376 -13.396   5.417  0.00  0.00     0.032 C 
BRANCH  22  24
ATOM     24  C   UNL d   1      29.343 -14.446   6.519  0.00  0.00     0.029 C 
BRANCH  24  25
ATOM     25  C   UNL d   1      30.037 -13.584   7.580  0.00  0.00     0.040 C 
BRANCH  25  26
ATOM     26  C   UNL d   1      29.343 -13.661   8.920  0.00  0.00    -0.058 A 
ATOM     27  C   UNL d   1      28.486 -12.628   9.314  0.00  0.00     0.007 A 
ATOM     28  C   UNL d   1      27.929 -12.639  10.593  0.00  0.00     0.001 A 
ATOM     29  C   UNL d   1      28.149 -13.719  11.449  0.00  0.00     0.000 A 
ATOM     30  C   UNL d   1      28.953 -14.775  11.045  0.00  0.00     0.001 A 
ATOM     31  C   UNL d   1      29.543 -14.743   9.792  0.00  0.00     0.007 A 
ENDBRANCH  25  26
ENDBRANCH  24  25
ENDBRANCH  22  24
ENDBRANCH   1  22
TORSDOF 11
ENDMDL
MODEL 7
REMARK VINA RESULT:    -7.701      3.859      5.954
REMARK INTER + INTRA:         -13.462
REMARK INTER:                 -10.982
REMARK INTRA:                  -2.480
REMARK CONF_INDEPENDENT:        3.281
REMARK UNBOUND:                -2.480
REMARK  11 active torsions:
REMARK  status: ('A' for Active; 'I' for Inactive)
REMARK    1  A    between atoms: C_2  and  C_3 
REMARK    2  A    between atoms: C_2  and  N_11 
REMARK    3  A    between atoms: C_3  and  C_4 
REMARK    4  A    between atoms: C_4  and  C_5 
REMARK       I    between atoms: N_11  and  C_12 
REMARK       I    between atoms: C_12  and  N_14 
REMARK    5  A    between atoms: N_14  and  C_15 
REMARK    6  A    between atoms: C_15  and  C_16 
REMARK    7  A    between atoms: C_16  and  O_17 
REMARK    8  A    between atoms: C_16  and  C_18 
REMARK    9  A    between atoms: C_18  and  O_19 
REMARK   10  A    between atoms: O_19  and  C_20 
REMARK   11  A    between atoms: C_23  and  N_24 
ROOT
ATOM      1  N   UNL d   1      24.915 -13.036  -3.975  0.00  0.00    -0.339 N 
ATOM      2  C   UNL d   1      25.922 -12.100  -3.996  0.00  0.00     0.316 C 
ATOM      3  O   UNL d   1      27.102 -12.365  -3.756  0.00  0.00    -0.247 OA
ATOM      4  N   UNL d   1      25.530 -10.834  -4.345  0.00  0.00    -0.341 N 
ATOM      5  H   UNL d   1      23.967 -12.742  -4.152  0.00  0.00     0.164 HD
ATOM      6  H   UNL d   1      24.549 -10.592  -4.389  0.00  0.00     0.164 HD
ENDROOT
BRANCH   4   7
ATOM      7  C   UNL d   1      26.520  -9.753  -4.397  0.00  0.00     0.158 C 
BRANCH   7   8
ATOM      8  C   UNL d   1      25.921  -8.363  -4.687  0.00  0.00     0.160 C 
BRANCH   8   9
ATOM      9  O   UNL d   1      24.518  -8.396  -4.386  0.00  0.00    -0.392 OA
ATOM     10  H   UNL d   1      24.365  -7.815  -3.621  0.00  0.00     0.210 HD
ENDBRANCH   8   9
BRANCH   8  11
ATOM     11  C   UNL d   1      26.632  -7.255  -3.868  0.00  0.00     0.209 C 
BRANCH  11  12
ATOM     12  O   UNL d   1      25.707  -6.681  -2.928  0.00  0.00    -0.349 OA
BRANCH  12  13
ATOM     13  C   UNL d   1      25.757  -7.154  -1.643  0.00  0.00     0.069 A 
ATOM     14  C   UNL d   1      25.114  -6.372  -0.674  0.00  0.00     0.039 A 
ATOM     15  C   UNL d   1      25.213  -6.692   0.687  0.00  0.00     0.039 A 
ATOM     16  C   UNL d   1      25.909  -7.843   1.071  0.00  0.00     0.103 A 
ATOM     17  C   UNL d   1      26.563  -8.625   0.112  0.00  0.00     0.039 A 
ATOM     18  C   UNL d   1      26.491  -8.271  -1.242  0.00  0.00     0.039 A 
BRANCH  16  19
ATOM     19  N   UNL d   1      25.905  -8.267   2.479  0.00  0.00    -0.116 N 
ATOM     20  O   UNL d   1      25.157  -9.200   2.800  0.00  0.00    -0.532 OA
ATOM     21  O   UNL d   1      26.673  -7.682   3.258  0.00  0.00    -0.532 OA
ENDBRANCH  16  19
ENDBRANCH  12  13
ENDBRANCH  11  12
ENDBRANCH   8  11
ENDBRANCH   7   8
ENDBRANCH   4   7
BRANCH   1  22
ATOM     22  C   UNL d   1      25.179 -14.461  -3.685  0.00  0.00     0.082 C 
ATOM     23  C   UNL d   1      26.254 -15.051  -4.608  0.00  0.00     0.032 C 
BRANCH  22  24
ATOM     24  C   UNL d   1      25.639 -14.623  -2.236  0.00  0.00     0.029 C 
BRANCH  24  25
ATOM     25  C   UNL d   1      26.037 -16.047  -1.832  0.00  0.00     0.040 C 
BRANCH  25  26
ATOM     26  C   UNL d   1      24.891 -16.804  -1.203  0.00  0.00    -0.058 A 
ATOM     27  C   UNL d   1      25.127 -18.048  -0.608  0.00  0.00     0.007 A 
ATOM     28  C   UNL d   1      24.057 -18.799  -0.124  0.00  0.00     0.001 A 
ATOM     29  C   UNL d   1      22.762 -18.280  -0.148  0.00  0.00     0.000 A 
ATOM     30  C   UNL d   1      22.525 -17.024  -0.687  0.00  0.00     0.001 A 
ATOM     31  C   UNL d   1      23.583 -16.296  -1.209  0.00  0.00     0.007 A 
ENDBRANCH  25  26
ENDBRANCH  24  25
ENDBRANCH  22  24
ENDBRANCH   1  22
TORSDOF 11
ENDMDL
MODEL 8
REMARK VINA RESULT:    -7.592      4.310      5.007
REMARK INTER + INTRA:         -12.570
REMARK INTER:                 -10.874
REMARK INTRA:                  -1.696
REMARK CONF_INDEPENDENT:        3.281
REMARK UNBOUND:                -1.696
REMARK  11 active torsions:
REMARK  status: ('A' for Active; 'I' for Inactive)
REMARK    1  A    between atoms: C_2  and  C_3 
REMARK    2  A    between atoms: C_2  and  N_11 
REMARK    3  A    between atoms: C_3  and  C_4 
REMARK    4  A    between atoms: C_4  and  C_5 
REMARK       I    between atoms: N_11  and  C_12 
REMARK       I    between atoms: C_12  and  N_14 
REMARK    5  A    between atoms: N_14  and  C_15 
REMARK    6  A    between atoms: C_15  and  C_16 
REMARK    7  A    between atoms: C_16  and  O_17 
REMARK    8  A    between atoms: C_16  and  C_18 
REMARK    9  A    between atoms: C_18  and  O_19 
REMARK   10  A    between atoms: O_19  and  C_20 
REMARK   11  A    between atoms: C_23  and  N_24 
ROOT
ATOM      1  N   UNL d   1      24.426 -17.692  -1.740  0.00  0.00    -0.339 N 
ATOM      2  C   UNL d   1      25.042 -16.464  -1.690  0.00  0.00     0.316 C 
ATOM      3  O   UNL d   1      25.249 -15.849  -0.642  0.00  0.00    -0.247 OA
ATOM      4  N   UNL d   1      25.456 -15.973  -2.901  0.00  0.00    -0.341 N 
ATOM      5  H   UNL d   1      24.261 -18.123  -2.636  0.00  0.00     0.164 HD
ATOM      6  H   UNL d   1      25.149 -16.403  -3.763  0.00  0.00     0.164 HD
ENDROOT
BRANCH   4   7
ATOM      7  C   UNL d   1      26.123 -14.668  -2.969  0.00  0.00     0.158 C 
BRANCH   7   8
ATOM      8  C   UNL d   1      25.858 -13.892  -4.273  0.00  0.00     0.160 C 
BRANCH   8   9
ATOM      9  O   UNL d   1      24.484 -14.076  -4.646  0.00  0.00    -0.392 OA
ATOM     10  H   UNL d   1      24.144 -13.219  -4.957  0.00  0.00     0.210 HD
ENDBRANCH   8   9
BRANCH   8  11
ATOM     11  C   UNL d   1      26.187 -12.385  -4.115  0.00  0.00     0.209 C 
BRANCH  11  12
ATOM     12  O   UNL d   1      25.634 -11.652  -5.221  0.00  0.00    -0.349 OA
BRANCH  12  13
ATOM     13  C   UNL d   1      25.533 -10.293  -5.075  0.00  0.00     0.069 A 
ATOM     14  C   UNL d   1      25.775  -9.792  -3.789  0.00  0.00     0.039 A 
ATOM     15  C   UNL d   1      25.571  -8.437  -3.497  0.00  0.00     0.039 A 
ATOM     16  C   UNL d   1      25.184  -7.566  -4.520  0.00  0.00     0.103 A 
ATOM     17  C   UNL d   1      24.930  -8.058  -5.806  0.00  0.00     0.039 A 
ATOM     18  C   UNL d   1      25.097  -9.423  -6.075  0.00  0.00     0.039 A 
BRANCH  16  19
ATOM     19  N   UNL d   1      25.100  -6.121  -4.262  0.00  0.00    -0.116 N 
ATOM     20  O   UNL d   1      26.100  -5.431  -4.505  0.00  0.00    -0.532 OA
ATOM     21  O   UNL d   1      24.024  -5.674  -3.841  0.00  0.00    -0.532 OA
ENDBRANCH  16  19
ENDBRANCH  12  13
ENDBRANCH  11  12
ENDBRANCH   8  11
ENDBRANCH   7   8
ENDBRANCH   4   7
BRANCH   1  22
ATOM     22  C   UNL d   1      23.980 -18.393  -0.517  0.00  0.00     0.082 C 
ATOM     23  C   UNL d   1      24.965 -18.212   0.646  0.00  0.00     0.032 C 
BRANCH  22  24
ATOM     24  C   UNL d   1      22.612 -17.867  -0.082  0.00  0.00     0.029 C 
BRANCH  24  25
ATOM     25  C   UNL d   1      21.430 -18.331  -0.941  0.00  0.00     0.040 C 
BRANCH  25  26
ATOM     26  C   UNL d   1      20.426 -19.132  -0.145  0.00  0.00    -0.058 A 
ATOM     27  C   UNL d   1      20.625 -19.323   1.226  0.00  0.00     0.007 A 
ATOM     28  C   UNL d   1      19.762 -20.150   1.943  0.00  0.00     0.001 A 
ATOM     29  C   UNL d   1      18.649 -20.717   1.321  0.00  0.00     0.000 A 
ATOM     30  C   UNL d   1      18.413 -20.489  -0.027  0.00  0.00     0.001 A 
ATOM     31  C   UNL d   1      19.295 -19.703  -0.750  0.00  0.00     0.007 A 
ENDBRANCH  25  26
ENDBRANCH  24  25
ENDBRANCH  22  24
ENDBRANCH   1  22
TORSDOF 11
ENDMDL
MODEL 9
REMARK VINA RESULT:    -6.876      4.589      8.637
REMARK INTER + INTRA:         -13.366
REMARK INTER:                 -10.157
REMARK INTRA:                  -3.209
REMARK CONF_INDEPENDENT:        3.281
REMARK UNBOUND:                -3.209
REMARK  11 active torsions:
REMARK  status: ('A' for Active; 'I' for Inactive)
REMARK    1  A    between atoms: C_2  and  C_3 
REMARK    2  A    between atoms: C_2  and  N_11 
REMARK    3  A    between atoms: C_3  and  C_4 
REMARK    4  A    between atoms: C_4  and  C_5 
REMARK       I    between atoms: N_11  and  C_12 
REMARK       I    between atoms: C_12  and  N_14 
REMARK    5  A    between atoms: N_14  and  C_15 
REMARK    6  A    between atoms: C_15  and  C_16 
REMARK    7  A    between atoms: C_16  and  O_17 
REMARK    8  A    between atoms: C_16  and  C_18 
REMARK    9  A    between atoms: C_18  and  O_19 
REMARK   10  A    between atoms: O_19  and  C_20 
REMARK   11  A    between atoms: C_23  and  N_24 
ROOT
ATOM      1  N   UNL d   1      29.864 -14.998  -3.719  0.00  0.00    -0.339 N 
ATOM      2  C   UNL d   1      29.605 -16.150  -3.017  0.00  0.00     0.316 C 
ATOM      3  O   UNL d   1      29.645 -17.276  -3.517  0.00  0.00    -0.247 OA
ATOM      4  N   UNL d   1      29.332 -15.969  -1.685  0.00  0.00    -0.341 N 
ATOM      5  H   UNL d   1      29.783 -14.108  -3.252  0.00  0.00     0.164 HD
ATOM      6  H   UNL d   1      29.150 -15.044  -1.319  0.00  0.00     0.164 HD
ENDROOT
BRANCH   4   7
ATOM      7  C   UNL d   1      29.036 -17.129  -0.838  0.00  0.00     0.158 C 
BRANCH   7   8
ATOM      8  C   UNL d   1      28.064 -16.832   0.321  0.00  0.00     0.160 C 
BRANCH   8   9
ATOM      9  O   UNL d   1      27.807 -15.419   0.353  0.00  0.00    -0.392 OA
ATOM     10  H   UNL d   1      27.237 -15.205  -0.406  0.00  0.00     0.210 HD
ENDBRANCH   8   9
BRANCH   8  11
ATOM     11  C   UNL d   1      26.741 -17.627   0.170  0.00  0.00     0.209 C 
BRANCH  11  12
ATOM     12  O   UNL d   1      25.760 -16.810  -0.492  0.00  0.00    -0.349 OA
BRANCH  12  13
ATOM     13  C   UNL d   1      24.516 -17.357  -0.669  0.00  0.00     0.069 A 
ATOM     14  C   UNL d   1      23.461 -16.449  -0.831  0.00  0.00     0.039 A 
ATOM     15  C   UNL d   1      22.134 -16.895  -0.888  0.00  0.00     0.039 A 
ATOM     16  C   UNL d   1      21.870 -18.267  -0.848  0.00  0.00     0.103 A 
ATOM     17  C   UNL d   1      22.916 -19.182  -0.676  0.00  0.00     0.039 A 
ATOM     18  C   UNL d   1      24.235 -18.721  -0.578  0.00  0.00     0.039 A 
BRANCH  16  19
ATOM     19  N   UNL d   1      20.497 -18.757  -1.045  0.00  0.00    -0.116 N 
ATOM     20  O   UNL d   1      20.346 -19.953  -1.331  0.00  0.00    -0.532 OA
ATOM     21  O   UNL d   1      19.570 -17.949  -0.886  0.00  0.00    -0.532 OA
ENDBRANCH  16  19
ENDBRANCH  12  13
ENDBRANCH  11  12
ENDBRANCH   8  11
ENDBRANCH   7   8
ENDBRANCH   4   7
BRANCH   1  22
ATOM     22  C   UNL d   1      30.243 -15.022  -5.148  0.00  0.00     0.082 C 
ATOM     23  C   UNL d   1      31.252 -16.136  -5.461  0.00  0.00     0.032 C 
BRANCH  22  24
ATOM     24  C   UNL d   1      29.002 -15.232  -6.015  0.00  0.00     0.029 C 
BRANCH  24  25
ATOM     25  C   UNL d   1      28.015 -14.059  -6.037  0.00  0.00     0.040 C 
BRANCH  25  26
ATOM     26  C   UNL d   1      26.927 -14.210  -5.000  0.00  0.00    -0.058 A 
ATOM     27  C   UNL d   1      26.165 -13.096  -4.630  0.00  0.00     0.007 A 
ATOM     28  C   UNL d   1      25.235 -13.204  -3.597  0.00  0.00     0.001 A 
ATOM     29  C   UNL d   1      24.994 -14.437  -2.990  0.00  0.00     0.000 A 
ATOM     30  C   UNL d   1      25.706 -15.560  -3.388  0.00  0.00     0.001 A 
ATOM     31  C   UNL d   1      26.663 -15.443  -4.384  0.00  0.00     0.007 A 
ENDBRANCH  25  26
ENDBRANCH  24  25
ENDBRANCH  22  24
ENDBRANCH   1  22
TORSDOF 11
ENDMDL
