MODEL 1
REMARK VINA RESULT:   -10.151      0.000      0.000
REMARK INTER + INTRA:         -14.387
REMARK INTER:                 -12.538
REMARK INTRA:                  -1.849
REMARK CONF_INDEPENDENT:        2.386
REMARK UNBOUND:                -1.849
REMARK  8 active torsions:
REMARK  status: ('A' for Active; 'I' for Inactive)
REMARK    1  A    between atoms: C_2  and  C_3 
REMARK       I    between atoms: C_2  and  N_12 
REMARK    2  A    between atoms: C_3  and  C_4 
REMARK    3  A    between atoms: C_4  and  C_5 
REMARK    4  A    between atoms: C_5  and  C_6 
REMARK    5  A    between atoms: N_12  and  N_13 
REMARK       I    between atoms: N_13  and  C_14 
REMARK    6  A    between atoms: C_14  and  C_16 
REMARK    7  A    between atoms: C_20  and  N_21 
REMARK       I    between atoms: N_21  and  C_22 
REMARK    8  A    between atoms: C_22  and  C_24 
ROOT
ATOM      1  N   UNL d   1      24.907 -13.711  -3.257  0.00  0.00    -0.263 N 
ATOM      2  C   UNL d   1      25.294 -15.045  -3.330  0.00  0.00     0.270 C 
ATOM      3  O   UNL d   1      25.614 -15.605  -4.374  0.00  0.00    -0.266 OA
ATOM      4  H   UNL d   1      24.657 -13.267  -2.380  0.00  0.00     0.190 HD
ENDROOT
BRANCH   2   5
ATOM      5  C   UNL d   1      25.277 -15.810  -2.051  0.00  0.00     0.035 A 
ATOM      6  C   UNL d   1      26.439 -16.050  -1.320  0.00  0.00     0.017 A 
ATOM      7  C   UNL d   1      26.392 -16.903  -0.209  0.00  0.00     0.003 A 
ATOM      8  C   UNL d   1      25.178 -17.486   0.198  0.00  0.00     0.029 A 
ATOM      9  C   UNL d   1      24.008 -17.253  -0.536  0.00  0.00     0.036 A 
ATOM     10  C   UNL d   1      24.086 -16.409  -1.647  0.00  0.00     0.046 A 
BRANCH   9  11
ATOM     11  N   UNL d   1      22.787 -17.889  -0.177  0.00  0.00    -0.321 N 
ATOM     12  C   UNL d   1      22.145 -18.879  -0.927  0.00  0.00     0.279 C 
ATOM     13  O   UNL d   1      22.556 -19.318  -2.006  0.00  0.00    -0.265 OA
ATOM     14  H   UNL d   1      22.402 -17.674   0.738  0.00  0.00     0.169 HD
BRANCH  12  15
ATOM     15  C   UNL d   1      20.914 -19.390  -0.381  0.00  0.00     0.142 A 
ATOM     16  C   UNL d   1      20.460 -19.535   0.915  0.00  0.00     0.045 A 
ATOM     17  C   UNL d   1      19.116 -19.974   0.822  0.00  0.00     0.027 A 
ATOM     18  C   UNL d   1      18.829 -20.071  -0.518  0.00  0.00     0.143 A 
ATOM     19  O   UNL d   1      19.908 -19.709  -1.254  0.00  0.00    -0.317 OA
ENDBRANCH  12  15
ENDBRANCH   9  11
ENDBRANCH   2   5
BRANCH   1  20
ATOM     20  N   UNL d   1      24.860 -12.962  -4.439  0.00  0.00    -0.267 N 
ATOM     21  C   UNL d   1      25.845 -12.118  -4.889  0.00  0.00     0.236 C 
ATOM     22  O   UNL d   1      25.705 -11.522  -5.958  0.00  0.00    -0.272 OA
ATOM     23  H   UNL d   1      24.024 -13.066  -5.016  0.00  0.00     0.190 HD
BRANCH  21  24
ATOM     24  C   UNL d   1      27.085 -11.957  -4.024  0.00  0.00     0.105 C 
BRANCH  24  25
ATOM     25  C   UNL d   1      28.285 -12.668  -4.642  0.00  0.00     0.014 C 
BRANCH  25  26
ATOM     26  C   UNL d   1      27.874 -13.888  -5.470  0.00  0.00     0.039 C 
BRANCH  26  27
ATOM     27  C   UNL d   1      28.800 -15.067  -5.276  0.00  0.00    -0.058 A 
ATOM     28  C   UNL d   1      29.582 -15.585  -6.320  0.00  0.00     0.007 A 
ATOM     29  C   UNL d   1      30.320 -16.753  -6.143  0.00  0.00     0.001 A 
ATOM     30  C   UNL d   1      30.372 -17.358  -4.891  0.00  0.00     0.000 A 
ATOM     31  C   UNL d   1      29.656 -16.815  -3.826  0.00  0.00     0.001 A 
ATOM     32  C   UNL d   1      28.871 -15.679  -4.018  0.00  0.00     0.007 A 
ENDBRANCH  26  27
ENDBRANCH  25  26
ENDBRANCH  24  25
ENDBRANCH  21  24
ENDBRANCH   1  20
TORSDOF 8
ENDMDL
MODEL 2
REMARK VINA RESULT:   -10.041      1.705      2.454
REMARK INTER + INTRA:         -13.755
REMARK INTER:                 -12.427
REMARK INTRA:                  -1.327
REMARK CONF_INDEPENDENT:        2.386
REMARK UNBOUND:                -1.327
REMARK  8 active torsions:
REMARK  status: ('A' for Active; 'I' for Inactive)
REMARK    1  A    between atoms: C_2  and  C_3 
REMARK       I    between atoms: C_2  and  N_12 
REMARK    2  A    between atoms: C_3  and  C_4 
REMARK    3  A    between atoms: C_4  and  C_5 
REMARK    4  A    between atoms: C_5  and  C_6 
REMARK    5  A    between atoms: N_12  and  N_13 
REMARK       I    between atoms: N_13  and  C_14 
REMARK    6  A    between atoms: C_14  and  C_16 
REMARK    7  A    between atoms: C_20  and  N_21 
REMARK       I    between atoms: N_21  and  C_22 
REMARK    8  A    between atoms: C_22  and  C_24 
ROOT
ATOM      1  N   UNL d   1      25.323 -13.458  -2.828  0.00  0.00    -0.263 N 
ATOM      2  C   UNL d   1      25.270 -14.822  -3.095  0.00  0.00     0.270 C 
ATOM      3  O   UNL d   1      25.195 -15.291  -4.226  0.00  0.00    -0.266 OA
ATOM      4  H   UNL d   1      25.394 -13.092  -1.884  0.00  0.00     0.190 HD
ENDROOT
BRANCH   2   5
ATOM      5  C   UNL d   1      25.275 -15.728  -1.912  0.00  0.00     0.035 A 
ATOM      6  C   UNL d   1      26.457 -16.105  -1.278  0.00  0.00     0.017 A 
ATOM      7  C   UNL d   1      26.420 -17.078  -0.269  0.00  0.00     0.003 A 
ATOM      8  C   UNL d   1      25.198 -17.647   0.135  0.00  0.00     0.029 A 
ATOM      9  C   UNL d   1      24.008 -17.275  -0.502  0.00  0.00     0.036 A 
ATOM     10  C   UNL d   1      24.076 -16.313  -1.514  0.00  0.00     0.046 A 
BRANCH   9  11
ATOM     11  N   UNL d   1      22.775 -17.891  -0.151  0.00  0.00    -0.321 N 
ATOM     12  C   UNL d   1      22.123 -18.873  -0.903  0.00  0.00     0.279 C 
ATOM     13  O   UNL d   1      22.534 -19.321  -1.978  0.00  0.00    -0.265 OA
ATOM     14  H   UNL d   1      22.386 -17.667   0.760  0.00  0.00     0.169 HD
BRANCH  12  15
ATOM     15  C   UNL d   1      20.879 -19.363  -0.365  0.00  0.00     0.142 A 
ATOM     16  C   UNL d   1      20.396 -19.456   0.925  0.00  0.00     0.045 A 
ATOM     17  C   UNL d   1      19.054 -19.899   0.820  0.00  0.00     0.027 A 
ATOM     18  C   UNL d   1      18.798 -20.049  -0.522  0.00  0.00     0.143 A 
ATOM     19  O   UNL d   1      19.893 -19.716  -1.248  0.00  0.00    -0.317 OA
ENDBRANCH  12  15
ENDBRANCH   9  11
ENDBRANCH   2   5
BRANCH   1  20
ATOM     20  N   UNL d   1      25.271 -12.563  -3.904  0.00  0.00    -0.267 N 
ATOM     21  C   UNL d   1      26.269 -12.366  -4.827  0.00  0.00     0.236 C 
ATOM     22  O   UNL d   1      26.107 -11.564  -5.748  0.00  0.00    -0.272 OA
ATOM     23  H   UNL d   1      24.412 -12.022  -4.011  0.00  0.00     0.190 HD
BRANCH  21  24
ATOM     24  C   UNL d   1      27.551 -13.165  -4.660  0.00  0.00     0.105 C 
BRANCH  24  25
ATOM     25  C   UNL d   1      27.695 -14.214  -5.758  0.00  0.00     0.014 C 
BRANCH  25  26
ATOM     26  C   UNL d   1      29.157 -14.457  -6.141  0.00  0.00     0.039 C 
BRANCH  26  27
ATOM     27  C   UNL d   1      29.598 -13.629  -7.327  0.00  0.00    -0.058 A 
ATOM     28  C   UNL d   1      30.946 -13.517  -7.701  0.00  0.00     0.007 A 
ATOM     29  C   UNL d   1      31.332 -12.641  -8.713  0.00  0.00     0.001 A 
ATOM     30  C   UNL d   1      30.365 -11.949  -9.437  0.00  0.00     0.000 A 
ATOM     31  C   UNL d   1      29.017 -12.104  -9.123  0.00  0.00     0.001 A 
ATOM     32  C   UNL d   1      28.635 -12.936  -8.071  0.00  0.00     0.007 A 
ENDBRANCH  26  27
ENDBRANCH  25  26
ENDBRANCH  24  25
ENDBRANCH  21  24
ENDBRANCH   1  20
TORSDOF 8
ENDMDL
MODEL 3
REMARK VINA RESULT:    -9.719      1.648      2.433
REMARK INTER + INTRA:         -14.172
REMARK INTER:                 -12.105
REMARK INTRA:                  -2.066
REMARK CONF_INDEPENDENT:        2.386
REMARK UNBOUND:                -2.066
REMARK  8 active torsions:
REMARK  status: ('A' for Active; 'I' for Inactive)
REMARK    1  A    between atoms: C_2  and  C_3 
REMARK       I    between atoms: C_2  and  N_12 
REMARK    2  A    between atoms: C_3  and  C_4 
REMARK    3  A    between atoms: C_4  and  C_5 
REMARK    4  A    between atoms: C_5  and  C_6 
REMARK    5  A    between atoms: N_12  and  N_13 
REMARK       I    between atoms: N_13  and  C_14 
REMARK    6  A    between atoms: C_14  and  C_16 
REMARK    7  A    between atoms: C_20  and  N_21 
REMARK       I    between atoms: N_21  and  C_22 
REMARK    8  A    between atoms: C_22  and  C_24 
ROOT
ATOM      1  N   UNL d   1      26.403 -15.483  -3.588  0.00  0.00    -0.263 N 
ATOM      2  C   UNL d   1      25.272 -15.473  -2.778  0.00  0.00     0.270 C 
ATOM      3  O   UNL d   1      24.298 -14.755  -2.978  0.00  0.00    -0.266 OA
ATOM      4  H   UNL d   1      27.194 -16.092  -3.408  0.00  0.00     0.190 HD
ENDROOT
BRANCH   2   5
ATOM      5  C   UNL d   1      25.299 -16.377  -1.594  0.00  0.00     0.035 A 
ATOM      6  C   UNL d   1      26.494 -16.819  -1.030  0.00  0.00     0.017 A 
ATOM      7  C   UNL d   1      26.464 -17.788  -0.018  0.00  0.00     0.003 A 
ATOM      8  C   UNL d   1      25.239 -18.290   0.460  0.00  0.00     0.029 A 
ATOM      9  C   UNL d   1      24.035 -17.854  -0.106  0.00  0.00     0.036 A 
ATOM     10  C   UNL d   1      24.095 -16.896  -1.123  0.00  0.00     0.046 A 
BRANCH   9  11
ATOM     11  N   UNL d   1      22.793 -18.401   0.319  0.00  0.00    -0.321 N 
ATOM     12  C   UNL d   1      21.819 -18.941  -0.526  0.00  0.00     0.279 C 
ATOM     13  O   UNL d   1      21.913 -18.999  -1.757  0.00  0.00    -0.265 OA
ATOM     14  H   UNL d   1      22.643 -18.491   1.320  0.00  0.00     0.169 HD
BRANCH  12  15
ATOM     15  C   UNL d   1      20.630 -19.441   0.113  0.00  0.00     0.142 A 
ATOM     16  C   UNL d   1      19.512 -20.088  -0.375  0.00  0.00     0.045 A 
ATOM     17  C   UNL d   1      18.735 -20.453   0.752  0.00  0.00     0.027 A 
ATOM     18  C   UNL d   1      19.420 -20.010   1.858  0.00  0.00     0.143 A 
ATOM     19  O   UNL d   1      20.574 -19.407   1.482  0.00  0.00    -0.317 OA
ENDBRANCH  12  15
ENDBRANCH   9  11
ENDBRANCH   2   5
BRANCH   1  20
ATOM     20  N   UNL d   1      26.448 -14.615  -4.685  0.00  0.00    -0.267 N 
ATOM     21  C   UNL d   1      27.490 -14.503  -5.574  0.00  0.00     0.236 C 
ATOM     22  O   UNL d   1      27.412 -13.717  -6.518  0.00  0.00    -0.272 OA
ATOM     23  H   UNL d   1      25.628 -14.025  -4.839  0.00  0.00     0.190 HD
BRANCH  21  24
ATOM     24  C   UNL d   1      28.713 -15.374  -5.337  0.00  0.00     0.105 C 
BRANCH  24  25
ATOM     25  C   UNL d   1      29.560 -15.491  -6.601  0.00  0.00     0.014 C 
BRANCH  25  26
ATOM     26  C   UNL d   1      30.929 -16.117  -6.326  0.00  0.00     0.039 C 
BRANCH  26  27
ATOM     27  C   UNL d   1      30.915 -17.625  -6.428  0.00  0.00    -0.058 A 
ATOM     28  C   UNL d   1      31.280 -18.300  -7.603  0.00  0.00     0.007 A 
ATOM     29  C   UNL d   1      31.127 -19.680  -7.707  0.00  0.00     0.001 A 
ATOM     30  C   UNL d   1      30.712 -20.417  -6.602  0.00  0.00     0.000 A 
ATOM     31  C   UNL d   1      30.413 -19.768  -5.406  0.00  0.00     0.001 A 
ATOM     32  C   UNL d   1      30.509 -18.380  -5.320  0.00  0.00     0.007 A 
ENDBRANCH  26  27
ENDBRANCH  25  26
ENDBRANCH  24  25
ENDBRANCH  21  24
ENDBRANCH   1  20
TORSDOF 8
ENDMDL
MODEL 4
REMARK VINA RESULT:    -9.692      3.012      4.316
REMARK INTER + INTRA:         -14.852
REMARK INTER:                 -12.078
REMARK INTRA:                  -2.774
REMARK CONF_INDEPENDENT:        2.386
REMARK UNBOUND:                -2.774
REMARK  8 active torsions:
REMARK  status: ('A' for Active; 'I' for Inactive)
REMARK    1  A    between atoms: C_2  and  C_3 
REMARK       I    between atoms: C_2  and  N_12 
REMARK    2  A    between atoms: C_3  and  C_4 
REMARK    3  A    between atoms: C_4  and  C_5 
REMARK    4  A    between atoms: C_5  and  C_6 
REMARK    5  A    between atoms: N_12  and  N_13 
REMARK       I    between atoms: N_13  and  C_14 
REMARK    6  A    between atoms: C_14  and  C_16 
REMARK    7  A    between atoms: C_20  and  N_21 
REMARK       I    between atoms: N_21  and  C_22 
REMARK    8  A    between atoms: C_22  and  C_24 
ROOT
ATOM      1  N   UNL d   1      27.803 -17.440  -0.759  0.00  0.00    -0.263 N 
ATOM      2  C   UNL d   1      26.752 -18.064  -0.095  0.00  0.00     0.270 C 
ATOM      3  O   UNL d   1      26.905 -18.949   0.741  0.00  0.00    -0.266 OA
ATOM      4  H   UNL d   1      27.653 -16.703  -1.440  0.00  0.00     0.190 HD
ENDROOT
BRANCH   2   5
ATOM      5  C   UNL d   1      25.379 -17.625  -0.471  0.00  0.00     0.035 A 
ATOM      6  C   UNL d   1      25.151 -16.464  -1.206  0.00  0.00     0.017 A 
ATOM      7  C   UNL d   1      23.837 -16.015  -1.401  0.00  0.00     0.003 A 
ATOM      8  C   UNL d   1      22.747 -16.746  -0.895  0.00  0.00     0.029 A 
ATOM      9  C   UNL d   1      22.969 -17.911  -0.151  0.00  0.00     0.036 A 
ATOM     10  C   UNL d   1      24.290 -18.329   0.039  0.00  0.00     0.046 A 
BRANCH   9  11
ATOM     11  N   UNL d   1      21.880 -18.623   0.425  0.00  0.00    -0.321 N 
ATOM     12  C   UNL d   1      20.880 -19.284  -0.295  0.00  0.00     0.279 C 
ATOM     13  O   UNL d   1      20.812 -19.321  -1.528  0.00  0.00    -0.265 OA
ATOM     14  H   UNL d   1      21.881 -18.738   1.434  0.00  0.00     0.169 HD
BRANCH  12  15
ATOM     15  C   UNL d   1      19.866 -19.943   0.486  0.00  0.00     0.142 A 
ATOM     16  C   UNL d   1      18.818 -20.773   0.141  0.00  0.00     0.045 A 
ATOM     17  C   UNL d   1      18.241 -21.218   1.356  0.00  0.00     0.027 A 
ATOM     18  C   UNL d   1      18.967 -20.636   2.368  0.00  0.00     0.143 A 
ATOM     19  O   UNL d   1      19.959 -19.872   1.851  0.00  0.00    -0.317 OA
ENDBRANCH  12  15
ENDBRANCH   9  11
ENDBRANCH   2   5
BRANCH   1  20
ATOM     20  N   UNL d   1      29.111 -17.851  -0.477  0.00  0.00    -0.267 N 
ATOM     21  C   UNL d   1      30.254 -17.282  -0.984  0.00  0.00     0.236 C 
ATOM     22  O   UNL d   1      31.358 -17.714  -0.650  0.00  0.00    -0.272 OA
ATOM     23  H   UNL d   1      29.217 -18.634   0.170  0.00  0.00     0.190 HD
BRANCH  21  24
ATOM     24  C   UNL d   1      30.093 -16.123  -1.954  0.00  0.00     0.105 C 
BRANCH  24  25
ATOM     25  C   UNL d   1      29.637 -16.611  -3.326  0.00  0.00     0.014 C 
BRANCH  25  26
ATOM     26  C   UNL d   1      29.238 -15.457  -4.250  0.00  0.00     0.039 C 
BRANCH  26  27
ATOM     27  C   UNL d   1      27.842 -14.947  -3.981  0.00  0.00    -0.058 A 
ATOM     28  C   UNL d   1      26.771 -15.202  -4.851  0.00  0.00     0.007 A 
ATOM     29  C   UNL d   1      25.529 -14.605  -4.645  0.00  0.00     0.001 A 
ATOM     30  C   UNL d   1      25.311 -13.833  -3.508  0.00  0.00     0.000 A 
ATOM     31  C   UNL d   1      26.346 -13.629  -2.597  0.00  0.00     0.001 A 
ATOM     32  C   UNL d   1      27.605 -14.178  -2.834  0.00  0.00     0.007 A 
ENDBRANCH  26  27
ENDBRANCH  25  26
ENDBRANCH  24  25
ENDBRANCH  21  24
ENDBRANCH   1  20
TORSDOF 8
ENDMDL
MODEL 5
REMARK VINA RESULT:    -9.652      3.391      4.143
REMARK INTER + INTRA:         -14.223
REMARK INTER:                 -12.038
REMARK INTRA:                  -2.184
REMARK CONF_INDEPENDENT:        2.386
REMARK UNBOUND:                -2.184
REMARK  8 active torsions:
REMARK  status: ('A' for Active; 'I' for Inactive)
REMARK    1  A    between atoms: C_2  and  C_3 
REMARK       I    between atoms: C_2  and  N_12 
REMARK    2  A    between atoms: C_3  and  C_4 
REMARK    3  A    between atoms: C_4  and  C_5 
REMARK    4  A    between atoms: C_5  and  C_6 
REMARK    5  A    between atoms: N_12  and  N_13 
REMARK       I    between atoms: N_13  and  C_14 
REMARK    6  A    between atoms: C_14  and  C_16 
REMARK    7  A    between atoms: C_20  and  N_21 
REMARK       I    between atoms: N_21  and  C_22 
REMARK    8  A    between atoms: C_22  and  C_24 
ROOT
ATOM      1  N   UNL d   1      27.877 -17.440  -0.863  0.00  0.00    -0.263 N 
ATOM      2  C   UNL d   1      26.838 -18.027  -0.148  0.00  0.00     0.270 C 
ATOM      3  O   UNL d   1      27.004 -18.888   0.710  0.00  0.00    -0.266 OA
ATOM      4  H   UNL d   1      27.717 -16.723  -1.562  0.00  0.00     0.190 HD
ENDROOT
BRANCH   2   5
ATOM      5  C   UNL d   1      25.460 -17.578  -0.495  0.00  0.00     0.035 A 
ATOM      6  C   UNL d   1      25.226 -16.409  -1.216  0.00  0.00     0.017 A 
ATOM      7  C   UNL d   1      23.911 -15.952  -1.383  0.00  0.00     0.003 A 
ATOM      8  C   UNL d   1      22.826 -16.682  -0.864  0.00  0.00     0.029 A 
ATOM      9  C   UNL d   1      23.056 -17.855  -0.134  0.00  0.00     0.036 A 
ATOM     10  C   UNL d   1      24.378 -18.280   0.028  0.00  0.00     0.046 A 
BRANCH   9  11
ATOM     11  N   UNL d   1      21.974 -18.567   0.455  0.00  0.00    -0.321 N 
ATOM     12  C   UNL d   1      20.987 -19.259  -0.252  0.00  0.00     0.279 C 
ATOM     13  O   UNL d   1      20.925 -19.330  -1.484  0.00  0.00    -0.265 OA
ATOM     14  H   UNL d   1      21.971 -18.655   1.466  0.00  0.00     0.169 HD
BRANCH  12  15
ATOM     15  C   UNL d   1      19.977 -19.912   0.541  0.00  0.00     0.142 A 
ATOM     16  C   UNL d   1      18.987 -20.821   0.224  0.00  0.00     0.045 A 
ATOM     17  C   UNL d   1      18.387 -21.204   1.449  0.00  0.00     0.027 A 
ATOM     18  C   UNL d   1      19.042 -20.510   2.438  0.00  0.00     0.143 A 
ATOM     19  O   UNL d   1      20.014 -19.734   1.899  0.00  0.00    -0.317 OA
ENDBRANCH  12  15
ENDBRANCH   9  11
ENDBRANCH   2   5
BRANCH   1  20
ATOM     20  N   UNL d   1      29.187 -17.863  -0.608  0.00  0.00    -0.267 N 
ATOM     21  C   UNL d   1      30.323 -17.316  -1.153  0.00  0.00     0.236 C 
ATOM     22  O   UNL d   1      31.430 -17.757  -0.841  0.00  0.00    -0.272 OA
ATOM     23  H   UNL d   1      29.301 -18.638   0.048  0.00  0.00     0.190 HD
BRANCH  21  24
ATOM     24  C   UNL d   1      30.151 -16.170  -2.137  0.00  0.00     0.105 C 
BRANCH  24  25
ATOM     25  C   UNL d   1      29.443 -16.634  -3.406  0.00  0.00     0.014 C 
BRANCH  25  26
ATOM     26  C   UNL d   1      30.329 -16.501  -4.647  0.00  0.00     0.039 C 
BRANCH  26  27
ATOM     27  C   UNL d   1      30.531 -17.813  -5.369  0.00  0.00    -0.058 A 
ATOM     28  C   UNL d   1      30.794 -17.879  -6.745  0.00  0.00     0.007 A 
ATOM     29  C   UNL d   1      30.840 -19.105  -7.403  0.00  0.00     0.001 A 
ATOM     30  C   UNL d   1      30.733 -20.287  -6.676  0.00  0.00     0.000 A 
ATOM     31  C   UNL d   1      30.541 -20.239  -5.297  0.00  0.00     0.001 A 
ATOM     32  C   UNL d   1      30.436 -19.010  -4.647  0.00  0.00     0.007 A 
ENDBRANCH  26  27
ENDBRANCH  25  26
ENDBRANCH  24  25
ENDBRANCH  21  24
ENDBRANCH   1  20
TORSDOF 8
ENDMDL
MODEL 6
REMARK VINA RESULT:    -9.197      4.360      6.618
REMARK INTER + INTRA:         -13.575
REMARK INTER:                 -11.584
REMARK INTRA:                  -1.992
REMARK CONF_INDEPENDENT:        2.386
REMARK UNBOUND:                -1.992
REMARK  8 active torsions:
REMARK  status: ('A' for Active; 'I' for Inactive)
REMARK    1  A    between atoms: C_2  and  C_3 
REMARK       I    between atoms: C_2  and  N_12 
REMARK    2  A    between atoms: C_3  and  C_4 
REMARK    3  A    between atoms: C_4  and  C_5 
REMARK    4  A    between atoms: C_5  and  C_6 
REMARK    5  A    between atoms: N_12  and  N_13 
REMARK       I    between atoms: N_13  and  C_14 
REMARK    6  A    between atoms: C_14  and  C_16 
REMARK    7  A    between atoms: C_20  and  N_21 
REMARK       I    between atoms: N_21  and  C_22 
REMARK    8  A    between atoms: C_22  and  C_24 
ROOT
ATOM      1  N   UNL d   1      27.793 -16.862  -0.317  0.00  0.00    -0.263 N 
ATOM      2  C   UNL d   1      26.818 -17.832  -0.107  0.00  0.00     0.270 C 
ATOM      3  O   UNL d   1      27.056 -18.953   0.330  0.00  0.00    -0.266 OA
ATOM      4  H   UNL d   1      27.571 -15.937  -0.670  0.00  0.00     0.190 HD
ENDROOT
BRANCH   2   5
ATOM      5  C   UNL d   1      25.423 -17.457  -0.474  0.00  0.00     0.035 A 
ATOM      6  C   UNL d   1      25.140 -16.324  -1.234  0.00  0.00     0.017 A 
ATOM      7  C   UNL d   1      23.807 -15.932  -1.420  0.00  0.00     0.003 A 
ATOM      8  C   UNL d   1      22.753 -16.693  -0.881  0.00  0.00     0.029 A 
ATOM      9  C   UNL d   1      23.031 -17.830  -0.112  0.00  0.00     0.036 A 
ATOM     10  C   UNL d   1      24.370 -18.190   0.069  0.00  0.00     0.046 A 
BRANCH   9  11
ATOM     11  N   UNL d   1      21.980 -18.570   0.495  0.00  0.00    -0.321 N 
ATOM     12  C   UNL d   1      20.958 -19.231  -0.193  0.00  0.00     0.279 C 
ATOM     13  O   UNL d   1      20.836 -19.244  -1.422  0.00  0.00    -0.265 OA
ATOM     14  H   UNL d   1      22.027 -18.705   1.501  0.00  0.00     0.169 HD
BRANCH  12  15
ATOM     15  C   UNL d   1      19.989 -19.922   0.618  0.00  0.00     0.142 A 
ATOM     16  C   UNL d   1      18.971 -20.801   0.306  0.00  0.00     0.045 A 
ATOM     17  C   UNL d   1      18.439 -21.252   1.539  0.00  0.00     0.027 A 
ATOM     18  C   UNL d   1      19.158 -20.624   2.527  0.00  0.00     0.143 A 
ATOM     19  O   UNL d   1      20.107 -19.826   1.980  0.00  0.00    -0.317 OA
ENDBRANCH  12  15
ENDBRANCH   9  11
ENDBRANCH   2   5
BRANCH   1  20
ATOM     20  N   UNL d   1      29.126 -17.182  -0.034  0.00  0.00    -0.267 N 
ATOM     21  C   UNL d   1      30.084 -16.299   0.404  0.00  0.00     0.236 C 
ATOM     22  O   UNL d   1      31.224 -16.696   0.642  0.00  0.00    -0.272 OA
ATOM     23  H   UNL d   1      29.401 -18.158  -0.154  0.00  0.00     0.190 HD
BRANCH  21  24
ATOM     24  C   UNL d   1      29.675 -14.845   0.574  0.00  0.00     0.105 C 
BRANCH  24  25
ATOM     25  C   UNL d   1      29.742 -14.420   2.038  0.00  0.00     0.014 C 
BRANCH  25  26
ATOM     26  C   UNL d   1      28.352 -14.221   2.648  0.00  0.00     0.039 C 
BRANCH  26  27
ATOM     27  C   UNL d   1      28.404 -13.778   4.092  0.00  0.00    -0.058 A 
ATOM     28  C   UNL d   1      28.998 -14.560   5.095  0.00  0.00     0.007 A 
ATOM     29  C   UNL d   1      28.909 -14.187   6.434  0.00  0.00     0.001 A 
ATOM     30  C   UNL d   1      28.322 -12.973   6.777  0.00  0.00     0.000 A 
ATOM     31  C   UNL d   1      27.790 -12.152   5.785  0.00  0.00     0.001 A 
ATOM     32  C   UNL d   1      27.826 -12.553   4.451  0.00  0.00     0.007 A 
ENDBRANCH  26  27
ENDBRANCH  25  26
ENDBRANCH  24  25
ENDBRANCH  21  24
ENDBRANCH   1  20
TORSDOF 8
ENDMDL
MODEL 7
REMARK VINA RESULT:    -9.154      2.515      3.452
REMARK INTER + INTRA:         -13.790
REMARK INTER:                 -11.541
REMARK INTRA:                  -2.250
REMARK CONF_INDEPENDENT:        2.386
REMARK UNBOUND:                -2.250
REMARK  8 active torsions:
REMARK  status: ('A' for Active; 'I' for Inactive)
REMARK    1  A    between atoms: C_2  and  C_3 
REMARK       I    between atoms: C_2  and  N_12 
REMARK    2  A    between atoms: C_3  and  C_4 
REMARK    3  A    between atoms: C_4  and  C_5 
REMARK    4  A    between atoms: C_5  and  C_6 
REMARK    5  A    between atoms: N_12  and  N_13 
REMARK       I    between atoms: N_13  and  C_14 
REMARK    6  A    between atoms: C_14  and  C_16 
REMARK    7  A    between atoms: C_20  and  N_21 
REMARK       I    between atoms: N_21  and  C_22 
REMARK    8  A    between atoms: C_22  and  C_24 
ROOT
ATOM      1  N   UNL d   1      25.552 -12.968  -2.796  0.00  0.00    -0.263 N 
ATOM      2  C   UNL d   1      25.026 -14.213  -3.127  0.00  0.00     0.270 C 
ATOM      3  O   UNL d   1      24.451 -14.450  -4.185  0.00  0.00    -0.266 OA
ATOM      4  H   UNL d   1      26.032 -12.798  -1.919  0.00  0.00     0.190 HD
ENDROOT
BRANCH   2   5
ATOM      5  C   UNL d   1      25.164 -15.283  -2.099  0.00  0.00     0.035 A 
ATOM      6  C   UNL d   1      26.409 -15.749  -1.683  0.00  0.00     0.017 A 
ATOM      7  C   UNL d   1      26.482 -16.859  -0.830  0.00  0.00     0.003 A 
ATOM      8  C   UNL d   1      25.310 -17.482  -0.361  0.00  0.00     0.029 A 
ATOM      9  C   UNL d   1      24.056 -17.021  -0.779  0.00  0.00     0.036 A 
ATOM     10  C   UNL d   1      24.014 -15.920  -1.641  0.00  0.00     0.046 A 
BRANCH   9  11
ATOM     11  N   UNL d   1      22.866 -17.682  -0.368  0.00  0.00    -0.321 N 
ATOM     12  C   UNL d   1      22.297 -18.788  -1.007  0.00  0.00     0.279 C 
ATOM     13  O   UNL d   1      22.755 -19.323  -2.021  0.00  0.00    -0.265 OA
ATOM     14  H   UNL d   1      22.449 -17.385   0.509  0.00  0.00     0.169 HD
BRANCH  12  15
ATOM     15  C   UNL d   1      21.085 -19.303  -0.424  0.00  0.00     0.142 A 
ATOM     16  C   UNL d   1      20.638 -19.378   0.880  0.00  0.00     0.045 A 
ATOM     17  C   UNL d   1      19.309 -19.867   0.821  0.00  0.00     0.027 A 
ATOM     18  C   UNL d   1      19.024 -20.062  -0.509  0.00  0.00     0.143 A 
ATOM     19  O   UNL d   1      20.089 -19.712  -1.271  0.00  0.00    -0.317 OA
ENDBRANCH  12  15
ENDBRANCH   9  11
ENDBRANCH   2   5
BRANCH   1  20
ATOM     20  N   UNL d   1      25.405 -11.916  -3.709  0.00  0.00    -0.267 N 
ATOM     21  C   UNL d   1      26.040 -10.700  -3.635  0.00  0.00     0.236 C 
ATOM     22  O   UNL d   1      25.850  -9.852  -4.507  0.00  0.00    -0.272 OA
ATOM     23  H   UNL d   1      24.779 -12.077  -4.500  0.00  0.00     0.190 HD
BRANCH  21  24
ATOM     24  C   UNL d   1      26.963 -10.458  -2.452  0.00  0.00     0.105 C 
BRANCH  24  25
ATOM     25  C   UNL d   1      28.037 -11.538  -2.360  0.00  0.00     0.014 C 
BRANCH  25  26
ATOM     26  C   UNL d   1      28.839 -11.451  -1.059  0.00  0.00     0.039 C 
BRANCH  26  27
ATOM     27  C   UNL d   1      28.401 -12.469  -0.031  0.00  0.00    -0.058 A 
ATOM     28  C   UNL d   1      29.320 -13.193   0.744  0.00  0.00     0.007 A 
ATOM     29  C   UNL d   1      28.891 -14.218   1.583  0.00  0.00     0.001 A 
ATOM     30  C   UNL d   1      27.530 -14.460   1.742  0.00  0.00     0.000 A 
ATOM     31  C   UNL d   1      26.602 -13.701   1.032  0.00  0.00     0.001 A 
ATOM     32  C   UNL d   1      27.034 -12.715   0.147  0.00  0.00     0.007 A 
ENDBRANCH  26  27
ENDBRANCH  25  26
ENDBRANCH  24  25
ENDBRANCH  21  24
ENDBRANCH   1  20
TORSDOF 8
ENDMDL
MODEL 8
REMARK VINA RESULT:    -8.629      3.456      4.980
REMARK INTER + INTRA:         -14.079
REMARK INTER:                 -11.016
REMARK INTRA:                  -3.063
REMARK CONF_INDEPENDENT:        2.386
REMARK UNBOUND:                -3.063
REMARK  8 active torsions:
REMARK  status: ('A' for Active; 'I' for Inactive)
REMARK    1  A    between atoms: C_2  and  C_3 
REMARK       I    between atoms: C_2  and  N_12 
REMARK    2  A    between atoms: C_3  and  C_4 
REMARK    3  A    between atoms: C_4  and  C_5 
REMARK    4  A    between atoms: C_5  and  C_6 
REMARK    5  A    between atoms: N_12  and  N_13 
REMARK       I    between atoms: N_13  and  C_14 
REMARK    6  A    between atoms: C_14  and  C_16 
REMARK    7  A    between atoms: C_20  and  N_21 
REMARK       I    between atoms: N_21  and  C_22 
REMARK    8  A    between atoms: C_22  and  C_24 
ROOT
ATOM      1  N   UNL d   1      27.932 -17.536  -0.903  0.00  0.00    -0.263 N 
ATOM      2  C   UNL d   1      26.889 -18.062  -0.148  0.00  0.00     0.270 C 
ATOM      3  O   UNL d   1      27.047 -18.880   0.754  0.00  0.00    -0.266 OA
ATOM      4  H   UNL d   1      27.778 -16.853  -1.637  0.00  0.00     0.190 HD
ENDROOT
BRANCH   2   5
ATOM      5  C   UNL d   1      25.517 -17.604  -0.505  0.00  0.00     0.035 A 
ATOM      6  C   UNL d   1      25.296 -16.442  -1.240  0.00  0.00     0.017 A 
ATOM      7  C   UNL d   1      23.986 -15.974  -1.417  0.00  0.00     0.003 A 
ATOM      8  C   UNL d   1      22.892 -16.688  -0.892  0.00  0.00     0.029 A 
ATOM      9  C   UNL d   1      23.108 -17.854  -0.148  0.00  0.00     0.036 A 
ATOM     10  C   UNL d   1      24.426 -18.290   0.024  0.00  0.00     0.046 A 
BRANCH   9  11
ATOM     11  N   UNL d   1      22.018 -18.548   0.446  0.00  0.00    -0.321 N 
ATOM     12  C   UNL d   1      21.027 -19.241  -0.257  0.00  0.00     0.279 C 
ATOM     13  O   UNL d   1      20.970 -19.327  -1.487  0.00  0.00    -0.265 OA
ATOM     14  H   UNL d   1      22.010 -18.623   1.458  0.00  0.00     0.169 HD
BRANCH  12  15
ATOM     15  C   UNL d   1      20.009 -19.874   0.542  0.00  0.00     0.142 A 
ATOM     16  C   UNL d   1      19.002 -20.766   0.229  0.00  0.00     0.045 A 
ATOM     17  C   UNL d   1      18.399 -21.135   1.457  0.00  0.00     0.027 A 
ATOM     18  C   UNL d   1      19.068 -20.450   2.442  0.00  0.00     0.143 A 
ATOM     19  O   UNL d   1      20.052 -19.693   1.899  0.00  0.00    -0.317 OA
ENDBRANCH  12  15
ENDBRANCH   9  11
ENDBRANCH   2   5
BRANCH   1  20
ATOM     20  N   UNL d   1      29.236 -17.971  -0.638  0.00  0.00    -0.267 N 
ATOM     21  C   UNL d   1      30.330 -17.748  -1.439  0.00  0.00     0.236 C 
ATOM     22  O   UNL d   1      31.438 -18.162  -1.096  0.00  0.00    -0.272 OA
ATOM     23  H   UNL d   1      29.381 -18.489   0.230  0.00  0.00     0.190 HD
BRANCH  21  24
ATOM     24  C   UNL d   1      30.111 -16.986  -2.735  0.00  0.00     0.105 C 
BRANCH  24  25
ATOM     25  C   UNL d   1      29.798 -15.517  -2.466  0.00  0.00     0.014 C 
BRANCH  25  26
ATOM     26  C   UNL d   1      30.150 -15.101  -1.036  0.00  0.00     0.039 C 
BRANCH  26  27
ATOM     27  C   UNL d   1      28.960 -14.569  -0.270  0.00  0.00    -0.058 A 
ATOM     28  C   UNL d   1      28.765 -14.839   1.093  0.00  0.00     0.007 A 
ATOM     29  C   UNL d   1      27.592 -14.447   1.734  0.00  0.00     0.001 A 
ATOM     30  C   UNL d   1      26.649 -13.686   1.051  0.00  0.00     0.000 A 
ATOM     31  C   UNL d   1      26.862 -13.350  -0.284  0.00  0.00     0.001 A 
ATOM     32  C   UNL d   1      28.008 -13.791  -0.943  0.00  0.00     0.007 A 
ENDBRANCH  26  27
ENDBRANCH  25  26
ENDBRANCH  24  25
ENDBRANCH  21  24
ENDBRANCH   1  20
TORSDOF 8
ENDMDL
MODEL 9
REMARK VINA RESULT:    -8.437      1.920      3.370
REMARK INTER + INTRA:         -13.775
REMARK INTER:                 -10.824
REMARK INTRA:                  -2.952
REMARK CONF_INDEPENDENT:        2.386
REMARK UNBOUND:                -2.952
REMARK  8 active torsions:
REMARK  status: ('A' for Active; 'I' for Inactive)
REMARK    1  A    between atoms: C_2  and  C_3 
REMARK       I    between atoms: C_2  and  N_12 
REMARK    2  A    between atoms: C_3  and  C_4 
REMARK    3  A    between atoms: C_4  and  C_5 
REMARK    4  A    between atoms: C_5  and  C_6 
REMARK    5  A    between atoms: N_12  and  N_13 
REMARK       I    between atoms: N_13  and  C_14 
REMARK    6  A    between atoms: C_14  and  C_16 
REMARK    7  A    between atoms: C_20  and  N_21 
REMARK       I    between atoms: N_21  and  C_22 
REMARK    8  A    between atoms: C_22  and  C_24 
ROOT
ATOM      1  N   UNL d   1      26.247 -15.574  -3.613  0.00  0.00    -0.263 N 
ATOM      2  C   UNL d   1      25.147 -15.455  -2.769  0.00  0.00     0.270 C 
ATOM      3  O   UNL d   1      24.227 -14.666  -2.957  0.00  0.00    -0.266 OA
ATOM      4  H   UNL d   1      26.991 -16.241  -3.443  0.00  0.00     0.190 HD
ENDROOT
BRANCH   2   5
ATOM      5  C   UNL d   1      25.141 -16.333  -1.565  0.00  0.00     0.035 A 
ATOM      6  C   UNL d   1      26.319 -16.745  -0.947  0.00  0.00     0.017 A 
ATOM      7  C   UNL d   1      26.264 -17.692   0.086  0.00  0.00     0.003 A 
ATOM      8  C   UNL d   1      25.028 -18.199   0.529  0.00  0.00     0.029 A 
ATOM      9  C   UNL d   1      23.840 -17.792  -0.092  0.00  0.00     0.036 A 
ATOM     10  C   UNL d   1      23.927 -16.857  -1.128  0.00  0.00     0.046 A 
BRANCH   9  11
ATOM     11  N   UNL d   1      22.591 -18.346   0.300  0.00  0.00    -0.321 N 
ATOM     12  C   UNL d   1      21.692 -18.990  -0.556  0.00  0.00     0.279 C 
ATOM     13  O   UNL d   1      21.868 -19.147  -1.768  0.00  0.00    -0.265 OA
ATOM     14  H   UNL d   1      22.377 -18.356   1.293  0.00  0.00     0.169 HD
BRANCH  12  15
ATOM     15  C   UNL d   1      20.478 -19.477   0.048  0.00  0.00     0.142 A 
ATOM     16  C   UNL d   1      19.350 -20.073  -0.480  0.00  0.00     0.045 A 
ATOM     17  C   UNL d   1      18.545 -20.455   0.622  0.00  0.00     0.027 A 
ATOM     18  C   UNL d   1      19.225 -20.071   1.752  0.00  0.00     0.143 A 
ATOM     19  O   UNL d   1      20.401 -19.488   1.416  0.00  0.00    -0.317 OA
ENDBRANCH  12  15
ENDBRANCH   9  11
ENDBRANCH   2   5
BRANCH   1  20
ATOM     20  N   UNL d   1      26.324 -14.737  -4.733  0.00  0.00    -0.267 N 
ATOM     21  C   UNL d   1      27.478 -14.202  -5.252  0.00  0.00     0.236 C 
ATOM     22  O   UNL d   1      27.429 -13.492  -6.257  0.00  0.00    -0.272 OA
ATOM     23  H   UNL d   1      25.445 -14.519  -5.206  0.00  0.00     0.190 HD
BRANCH  21  24
ATOM     24  C   UNL d   1      28.783 -14.520  -4.542  0.00  0.00     0.105 C 
BRANCH  24  25
ATOM     25  C   UNL d   1      28.905 -13.740  -3.236  0.00  0.00     0.014 C 
BRANCH  25  26
ATOM     26  C   UNL d   1      29.264 -14.643  -2.053  0.00  0.00     0.039 C 
BRANCH  26  27
ATOM     27  C   UNL d   1      28.433 -14.356  -0.823  0.00  0.00    -0.058 A 
ATOM     28  C   UNL d   1      27.354 -13.458  -0.841  0.00  0.00     0.007 A 
ATOM     29  C   UNL d   1      26.695 -13.114   0.336  0.00  0.00     0.001 A 
ATOM     30  C   UNL d   1      27.034 -13.745   1.530  0.00  0.00     0.000 A 
ATOM     31  C   UNL d   1      28.057 -14.691   1.550  0.00  0.00     0.001 A 
ATOM     32  C   UNL d   1      28.756 -14.992   0.382  0.00  0.00     0.007 A 
ENDBRANCH  26  27
ENDBRANCH  25  26
ENDBRANCH  24  25
ENDBRANCH  21  24
ENDBRANCH   1  20
TORSDOF 8
ENDMDL
