MODEL 1
REMARK VINA RESULT:    -7.808      0.000      0.000
REMARK INTER + INTRA:          -9.352
REMARK INTER:                  -9.002
REMARK INTRA:                  -0.350
REMARK CONF_INDEPENDENT:        1.193
REMARK UNBOUND:                -0.350
REMARK  4 active torsions:
REMARK  status: ('A' for Active; 'I' for Inactive)
REMARK       I    between atoms: C_2  and  N_3 
REMARK       I    between atoms: C_2  and  N_13 
REMARK    1  A    between atoms: N_3  and  N_4 
REMARK    2  A    between atoms: C_5  and  C_6 
REMARK    3  A    between atoms: C_9  and  O_10 
REMARK    4  A    between atoms: N_13  and  C_14 
ROOT
ATOM      1  O   UNL d   1      21.626 -17.219  -1.270  0.00  0.00    -0.245 OA
ATOM      2  C   UNL d   1      21.313 -18.255  -0.673  0.00  0.00     0.341 C 
ATOM      3  N   UNL d   1      22.216 -19.164  -0.143  0.00  0.00    -0.229 N 
ATOM      4  N   UNL d   1      19.976 -18.579  -0.586  0.00  0.00    -0.308 N 
ATOM      5  H   UNL d   1      21.886 -20.058   0.193  0.00  0.00     0.194 HD
ATOM      6  H   UNL d   1      19.386 -17.970  -1.142  0.00  0.00     0.170 HD
ENDROOT
BRANCH   3   7
ATOM      7  N   UNL d   1      23.564 -18.940  -0.227  0.00  0.00    -0.182 NA
ATOM      8  C   UNL d   1      23.982 -17.720  -0.087  0.00  0.00     0.150 C 
BRANCH   8   9
ATOM      9  C   UNL d   1      25.437 -17.433  -0.132  0.00  0.00    -0.017 A 
ATOM     10  C   UNL d   1      26.339 -18.460   0.170  0.00  0.00     0.015 A 
ATOM     11  C   UNL d   1      27.712 -18.201   0.230  0.00  0.00     0.037 A 
ATOM     12  C   UNL d   1      28.174 -16.910  -0.008  0.00  0.00     0.065 A 
ATOM     13  C   UNL d   1      27.287 -15.886  -0.326  0.00  0.00     0.037 A 
ATOM     14  C   UNL d   1      25.911 -16.146  -0.407  0.00  0.00     0.015 A 
BRANCH  12  15
ATOM     15  O   UNL d   1      29.501 -16.597   0.065  0.00  0.00    -0.361 OA
ATOM     16  H   UNL d   1      29.803 -16.692   0.983  0.00  0.00     0.217 HD
ENDBRANCH  12  15
ENDBRANCH   8   9
ENDBRANCH   3   7
BRANCH   4  17
ATOM     17  C   UNL d   1      19.349 -19.581   0.169  0.00  0.00     0.036 A 
ATOM     18  C   UNL d   1      19.707 -19.771   1.508  0.00  0.00     0.029 A 
ATOM     19  C   UNL d   1      19.080 -20.770   2.261  0.00  0.00     0.002 A 
ATOM     20  C   UNL d   1      18.082 -21.557   1.685  0.00  0.00     0.000 A 
ATOM     21  C   UNL d   1      17.755 -21.394   0.342  0.00  0.00     0.002 A 
ATOM     22  C   UNL d   1      18.409 -20.429  -0.417  0.00  0.00     0.029 A 
ENDBRANCH   4  17
TORSDOF 4
ENDMDL
MODEL 2
REMARK VINA RESULT:    -7.766      2.550      8.138
REMARK INTER + INTRA:          -9.306
REMARK INTER:                  -8.960
REMARK INTRA:                  -0.346
REMARK CONF_INDEPENDENT:        1.193
REMARK UNBOUND:                -0.346
REMARK  4 active torsions:
REMARK  status: ('A' for Active; 'I' for Inactive)
REMARK       I    between atoms: C_2  and  N_3 
REMARK       I    between atoms: C_2  and  N_13 
REMARK    1  A    between atoms: N_3  and  N_4 
REMARK    2  A    between atoms: C_5  and  C_6 
REMARK    3  A    between atoms: C_9  and  O_10 
REMARK    4  A    between atoms: N_13  and  C_14 
ROOT
ATOM      1  O   UNL d   1      24.536 -18.542   0.682  0.00  0.00    -0.245 OA
ATOM      2  C   UNL d   1      24.487 -17.879  -0.361  0.00  0.00     0.341 C 
ATOM      3  N   UNL d   1      23.424 -17.884  -1.250  0.00  0.00    -0.229 N 
ATOM      4  N   UNL d   1      25.593 -17.135  -0.712  0.00  0.00    -0.308 N 
ATOM      5  H   UNL d   1      23.524 -17.437  -2.151  0.00  0.00     0.194 HD
ATOM      6  H   UNL d   1      26.394 -17.312  -0.116  0.00  0.00     0.170 HD
ENDROOT
BRANCH   3   7
ATOM      7  N   UNL d   1      22.305 -18.632  -0.998  0.00  0.00    -0.182 NA
ATOM      8  C   UNL d   1      21.786 -18.558   0.188  0.00  0.00     0.150 C 
BRANCH   8   9
ATOM      9  C   UNL d   1      20.551 -19.321   0.497  0.00  0.00    -0.017 A 
ATOM     10  C   UNL d   1      20.287 -19.671   1.826  0.00  0.00     0.015 A 
ATOM     11  C   UNL d   1      19.184 -20.471   2.141  0.00  0.00     0.037 A 
ATOM     12  C   UNL d   1      18.353 -20.921   1.120  0.00  0.00     0.065 A 
ATOM     13  C   UNL d   1      18.597 -20.565  -0.203  0.00  0.00     0.037 A 
ATOM     14  C   UNL d   1      19.691 -19.747  -0.522  0.00  0.00     0.015 A 
BRANCH  12  15
ATOM     15  O   UNL d   1      17.279 -21.726   1.370  0.00  0.00    -0.361 OA
ATOM     16  H   UNL d   1      17.270 -22.456   0.729  0.00  0.00     0.217 HD
ENDBRANCH  12  15
ENDBRANCH   8   9
ENDBRANCH   3   7
BRANCH   4  17
ATOM     17  C   UNL d   1      25.737 -16.177  -1.727  0.00  0.00     0.036 A 
ATOM     18  C   UNL d   1      24.637 -15.405  -2.115  0.00  0.00     0.029 A 
ATOM     19  C   UNL d   1      24.782 -14.448  -3.127  0.00  0.00     0.002 A 
ATOM     20  C   UNL d   1      26.026 -14.248  -3.727  0.00  0.00     0.000 A 
ATOM     21  C   UNL d   1      27.108 -15.044  -3.368  0.00  0.00     0.002 A 
ATOM     22  C   UNL d   1      26.953 -16.023  -2.392  0.00  0.00     0.029 A 
ENDBRANCH   4  17
TORSDOF 4
ENDMDL
MODEL 3
REMARK VINA RESULT:    -6.785      2.068      8.119
REMARK INTER + INTRA:          -8.392
REMARK INTER:                  -7.979
REMARK INTRA:                  -0.413
REMARK CONF_INDEPENDENT:        1.193
REMARK UNBOUND:                -0.413
REMARK  4 active torsions:
REMARK  status: ('A' for Active; 'I' for Inactive)
REMARK       I    between atoms: C_2  and  N_3 
REMARK       I    between atoms: C_2  and  N_13 
REMARK    1  A    between atoms: N_3  and  N_4 
REMARK    2  A    between atoms: C_5  and  C_6 
REMARK    3  A    between atoms: C_9  and  O_10 
REMARK    4  A    between atoms: N_13  and  C_14 
ROOT
ATOM      1  O   UNL d   1      23.593 -18.251  -2.339  0.00  0.00    -0.245 OA
ATOM      2  C   UNL d   1      24.190 -17.636  -1.447  0.00  0.00     0.341 C 
ATOM      3  N   UNL d   1      23.873 -17.697  -0.099  0.00  0.00    -0.229 N 
ATOM      4  N   UNL d   1      25.197 -16.769  -1.814  0.00  0.00    -0.308 N 
ATOM      5  H   UNL d   1      24.306 -17.051   0.546  0.00  0.00     0.194 HD
ATOM      6  H   UNL d   1      25.260 -16.640  -2.818  0.00  0.00     0.170 HD
ENDROOT
BRANCH   3   7
ATOM      7  N   UNL d   1      22.856 -18.500   0.344  0.00  0.00    -0.182 NA
ATOM      8  C   UNL d   1      21.725 -18.442  -0.286  0.00  0.00     0.150 C 
BRANCH   8   9
ATOM      9  C   UNL d   1      20.605 -19.321   0.134  0.00  0.00    -0.017 A 
ATOM     10  C   UNL d   1      19.651 -19.703  -0.817  0.00  0.00     0.015 A 
ATOM     11  C   UNL d   1      18.533 -20.451  -0.436  0.00  0.00     0.037 A 
ATOM     12  C   UNL d   1      18.373 -20.809   0.899  0.00  0.00     0.065 A 
ATOM     13  C   UNL d   1      19.325 -20.448   1.849  0.00  0.00     0.037 A 
ATOM     14  C   UNL d   1      20.458 -19.715   1.468  0.00  0.00     0.015 A 
BRANCH  12  15
ATOM     15  O   UNL d   1      17.286 -21.514   1.329  0.00  0.00    -0.361 OA
ATOM     16  H   UNL d   1      16.907 -22.006   0.582  0.00  0.00     0.217 HD
ENDBRANCH  12  15
ENDBRANCH   8   9
ENDBRANCH   3   7
BRANCH   4  17
ATOM     17  C   UNL d   1      26.130 -16.097  -1.012  0.00  0.00     0.036 A 
ATOM     18  C   UNL d   1      26.820 -16.793  -0.014  0.00  0.00     0.029 A 
ATOM     19  C   UNL d   1      27.752 -16.122   0.785  0.00  0.00     0.002 A 
ATOM     20  C   UNL d   1      28.011 -14.767   0.569  0.00  0.00     0.000 A 
ATOM     21  C   UNL d   1      27.295 -14.067  -0.395  0.00  0.00     0.002 A 
ATOM     22  C   UNL d   1      26.339 -14.726  -1.161  0.00  0.00     0.029 A 
ENDBRANCH   4  17
TORSDOF 4
ENDMDL
MODEL 4
REMARK VINA RESULT:    -6.534      3.185      4.097
REMARK INTER + INTRA:          -8.103
REMARK INTER:                  -7.727
REMARK INTRA:                  -0.375
REMARK CONF_INDEPENDENT:        1.193
REMARK UNBOUND:                -0.375
REMARK  4 active torsions:
REMARK  status: ('A' for Active; 'I' for Inactive)
REMARK       I    between atoms: C_2  and  N_3 
REMARK       I    between atoms: C_2  and  N_13 
REMARK    1  A    between atoms: N_3  and  N_4 
REMARK    2  A    between atoms: C_5  and  C_6 
REMARK    3  A    between atoms: C_9  and  O_10 
REMARK    4  A    between atoms: N_13  and  C_14 
ROOT
ATOM      1  O   UNL d   1      24.832 -17.597   0.255  0.00  0.00    -0.245 OA
ATOM      2  C   UNL d   1      23.638 -17.664  -0.060  0.00  0.00     0.341 C 
ATOM      3  N   UNL d   1      23.018 -16.835  -0.983  0.00  0.00    -0.229 N 
ATOM      4  N   UNL d   1      22.839 -18.572   0.600  0.00  0.00    -0.308 N 
ATOM      5  H   UNL d   1      22.012 -16.851  -1.072  0.00  0.00     0.194 HD
ATOM      6  H   UNL d   1      23.311 -19.019   1.379  0.00  0.00     0.170 HD
ENDROOT
BRANCH   3   7
ATOM      7  N   UNL d   1      23.731 -15.876  -1.650  0.00  0.00    -0.182 NA
ATOM      8  C   UNL d   1      24.780 -16.254  -2.311  0.00  0.00     0.150 C 
BRANCH   8   9
ATOM      9  C   UNL d   1      25.563 -15.256  -3.081  0.00  0.00    -0.017 A 
ATOM     10  C   UNL d   1      24.946 -14.057  -3.458  0.00  0.00     0.015 A 
ATOM     11  C   UNL d   1      25.623 -13.137  -4.264  0.00  0.00     0.037 A 
ATOM     12  C   UNL d   1      26.915 -13.425  -4.694  0.00  0.00     0.065 A 
ATOM     13  C   UNL d   1      27.543 -14.607  -4.311  0.00  0.00     0.037 A 
ATOM     14  C   UNL d   1      26.875 -15.524  -3.486  0.00  0.00     0.015 A 
BRANCH  12  15
ATOM     15  O   UNL d   1      27.609 -12.574  -5.505  0.00  0.00    -0.361 OA
ATOM     16  H   UNL d   1      28.464 -12.365  -5.093  0.00  0.00     0.217 HD
ENDBRANCH  12  15
ENDBRANCH   8   9
ENDBRANCH   3   7
BRANCH   4  17
ATOM     17  C   UNL d   1      21.522 -18.968   0.323  0.00  0.00     0.036 A 
ATOM     18  C   UNL d   1      21.053 -18.951  -0.994  0.00  0.00     0.029 A 
ATOM     19  C   UNL d   1      19.740 -19.347  -1.270  0.00  0.00     0.002 A 
ATOM     20  C   UNL d   1      18.909 -19.782  -0.236  0.00  0.00     0.000 A 
ATOM     21  C   UNL d   1      19.363 -19.759   1.078  0.00  0.00     0.002 A 
ATOM     22  C   UNL d   1      20.655 -19.325   1.356  0.00  0.00     0.029 A 
ENDBRANCH   4  17
TORSDOF 4
ENDMDL
MODEL 5
REMARK VINA RESULT:    -6.317      5.881      9.553
REMARK INTER + INTRA:          -7.976
REMARK INTER:                  -7.510
REMARK INTRA:                  -0.466
REMARK CONF_INDEPENDENT:        1.193
REMARK UNBOUND:                -0.466
REMARK  4 active torsions:
REMARK  status: ('A' for Active; 'I' for Inactive)
REMARK       I    between atoms: C_2  and  N_3 
REMARK       I    between atoms: C_2  and  N_13 
REMARK    1  A    between atoms: N_3  and  N_4 
REMARK    2  A    between atoms: C_5  and  C_6 
REMARK    3  A    between atoms: C_9  and  O_10 
REMARK    4  A    between atoms: N_13  and  C_14 
ROOT
ATOM      1  O   UNL d   1      26.769 -14.615  -5.051  0.00  0.00    -0.245 OA
ATOM      2  C   UNL d   1      26.151 -13.552  -4.919  0.00  0.00     0.341 C 
ATOM      3  N   UNL d   1      24.977 -13.407  -4.197  0.00  0.00    -0.229 N 
ATOM      4  N   UNL d   1      26.612 -12.442  -5.594  0.00  0.00    -0.308 N 
ATOM      5  H   UNL d   1      24.452 -12.545  -4.264  0.00  0.00     0.194 HD
ATOM      6  H   UNL d   1      27.365 -12.657  -6.238  0.00  0.00     0.170 HD
ENDROOT
BRANCH   3   7
ATOM      7  N   UNL d   1      24.427 -14.471  -3.534  0.00  0.00    -0.182 NA
ATOM      8  C   UNL d   1      24.987 -14.845  -2.426  0.00  0.00     0.150 C 
BRANCH   8   9
ATOM      9  C   UNL d   1      24.405 -15.969  -1.653  0.00  0.00    -0.017 A 
ATOM     10  C   UNL d   1      25.208 -17.079  -1.363  0.00  0.00     0.015 A 
ATOM     11  C   UNL d   1      24.666 -18.196  -0.719  0.00  0.00     0.037 A 
ATOM     12  C   UNL d   1      23.318 -18.198  -0.374  0.00  0.00     0.065 A 
ATOM     13  C   UNL d   1      22.515 -17.092  -0.642  0.00  0.00     0.037 A 
ATOM     14  C   UNL d   1      23.059 -15.962  -1.270  0.00  0.00     0.015 A 
BRANCH  12  15
ATOM     15  O   UNL d   1      22.732 -19.272   0.230  0.00  0.00    -0.361 OA
ATOM     16  H   UNL d   1      23.355 -20.018   0.231  0.00  0.00     0.217 HD
ENDBRANCH  12  15
ENDBRANCH   8   9
ENDBRANCH   3   7
BRANCH   4  17
ATOM     17  C   UNL d   1      26.212 -11.102  -5.484  0.00  0.00     0.036 A 
ATOM     18  C   UNL d   1      26.154 -10.298  -6.627  0.00  0.00     0.029 A 
ATOM     19  C   UNL d   1      25.753  -8.961  -6.516  0.00  0.00     0.002 A 
ATOM     20  C   UNL d   1      25.388  -8.441  -5.274  0.00  0.00     0.000 A 
ATOM     21  C   UNL d   1      25.485  -9.231  -4.133  0.00  0.00     0.002 A 
ATOM     22  C   UNL d   1      25.923 -10.547  -4.238  0.00  0.00     0.029 A 
ENDBRANCH   4  17
TORSDOF 4
ENDMDL
MODEL 6
REMARK VINA RESULT:    -6.278      1.246      2.212
REMARK INTER + INTRA:          -7.726
REMARK INTER:                  -7.471
REMARK INTRA:                  -0.254
REMARK CONF_INDEPENDENT:        1.193
REMARK UNBOUND:                -0.254
REMARK  4 active torsions:
REMARK  status: ('A' for Active; 'I' for Inactive)
REMARK       I    between atoms: C_2  and  N_3 
REMARK       I    between atoms: C_2  and  N_13 
REMARK    1  A    between atoms: N_3  and  N_4 
REMARK    2  A    between atoms: C_5  and  C_6 
REMARK    3  A    between atoms: C_9  and  O_10 
REMARK    4  A    between atoms: N_13  and  C_14 
ROOT
ATOM      1  O   UNL d   1      23.425 -17.630  -1.957  0.00  0.00    -0.245 OA
ATOM      2  C   UNL d   1      22.947 -18.271  -1.013  0.00  0.00     0.341 C 
ATOM      3  N   UNL d   1      23.657 -18.664   0.111  0.00  0.00    -0.229 N 
ATOM      4  N   UNL d   1      21.639 -18.694  -1.107  0.00  0.00    -0.308 N 
ATOM      5  H   UNL d   1      23.239 -19.314   0.764  0.00  0.00     0.194 HD
ATOM      6  H   UNL d   1      21.235 -18.527  -2.022  0.00  0.00     0.170 HD
ENDROOT
BRANCH   3   7
ATOM      7  N   UNL d   1      24.974 -18.324   0.261  0.00  0.00    -0.182 NA
ATOM      8  C   UNL d   1      25.342 -17.147  -0.138  0.00  0.00     0.150 C 
BRANCH   8   9
ATOM      9  C   UNL d   1      26.752 -16.719   0.039  0.00  0.00    -0.017 A 
ATOM     10  C   UNL d   1      27.014 -15.405   0.444  0.00  0.00     0.015 A 
ATOM     11  C   UNL d   1      28.331 -14.941   0.528  0.00  0.00     0.037 A 
ATOM     12  C   UNL d   1      29.379 -15.795   0.200  0.00  0.00     0.065 A 
ATOM     13  C   UNL d   1      29.129 -17.108  -0.188  0.00  0.00     0.037 A 
ATOM     14  C   UNL d   1      27.811 -17.584  -0.255  0.00  0.00     0.015 A 
BRANCH  12  15
ATOM     15  O   UNL d   1      30.680 -15.384   0.238  0.00  0.00    -0.361 OA
ATOM     16  H   UNL d   1      30.729 -14.448  -0.019  0.00  0.00     0.217 HD
ENDBRANCH  12  15
ENDBRANCH   8   9
ENDBRANCH   3   7
BRANCH   4  17
ATOM     17  C   UNL d   1      20.817 -19.271  -0.128  0.00  0.00     0.036 A 
ATOM     18  C   UNL d   1      19.737 -20.074  -0.512  0.00  0.00     0.029 A 
ATOM     19  C   UNL d   1      18.918 -20.651   0.465  0.00  0.00     0.002 A 
ATOM     20  C   UNL d   1      19.193 -20.447   1.818  0.00  0.00     0.000 A 
ATOM     21  C   UNL d   1      20.242 -19.616   2.197  0.00  0.00     0.002 A 
ATOM     22  C   UNL d   1      21.030 -19.009   1.225  0.00  0.00     0.029 A 
ENDBRANCH   4  17
TORSDOF 4
ENDMDL
MODEL 7
REMARK VINA RESULT:    -6.043      3.519      9.060
REMARK INTER + INTRA:          -7.712
REMARK INTER:                  -7.236
REMARK INTRA:                  -0.475
REMARK CONF_INDEPENDENT:        1.193
REMARK UNBOUND:                -0.475
REMARK  4 active torsions:
REMARK  status: ('A' for Active; 'I' for Inactive)
REMARK       I    between atoms: C_2  and  N_3 
REMARK       I    between atoms: C_2  and  N_13 
REMARK    1  A    between atoms: N_3  and  N_4 
REMARK    2  A    between atoms: C_5  and  C_6 
REMARK    3  A    between atoms: C_9  and  O_10 
REMARK    4  A    between atoms: N_13  and  C_14 
ROOT
ATOM      1  O   UNL d   1      28.176 -16.529  -2.193  0.00  0.00    -0.245 OA
ATOM      2  C   UNL d   1      28.767 -17.026  -1.226  0.00  0.00     0.341 C 
ATOM      3  N   UNL d   1      28.164 -17.795  -0.244  0.00  0.00    -0.229 N 
ATOM      4  N   UNL d   1      30.105 -16.740  -1.064  0.00  0.00    -0.308 N 
ATOM      5  H   UNL d   1      28.681 -18.035   0.591  0.00  0.00     0.194 HD
ATOM      6  H   UNL d   1      30.440 -16.035  -1.712  0.00  0.00     0.170 HD
ENDROOT
BRANCH   3   7
ATOM      7  N   UNL d   1      26.828 -18.088  -0.306  0.00  0.00    -0.182 NA
ATOM      8  C   UNL d   1      25.996 -17.096  -0.365  0.00  0.00     0.150 C 
BRANCH   8   9
ATOM      9  C   UNL d   1      24.540 -17.364  -0.473  0.00  0.00    -0.017 A 
ATOM     10  C   UNL d   1      24.098 -18.692  -0.510  0.00  0.00     0.015 A 
ATOM     11  C   UNL d   1      22.743 -18.981  -0.706  0.00  0.00     0.037 A 
ATOM     12  C   UNL d   1      21.839 -17.936  -0.871  0.00  0.00     0.065 A 
ATOM     13  C   UNL d   1      22.267 -16.612  -0.819  0.00  0.00     0.037 A 
ATOM     14  C   UNL d   1      23.620 -16.318  -0.602  0.00  0.00     0.015 A 
BRANCH  12  15
ATOM     15  O   UNL d   1      20.512 -18.163  -1.093  0.00  0.00    -0.361 OA
ATOM     16  H   UNL d   1      20.170 -17.495  -1.709  0.00  0.00     0.217 HD
ENDBRANCH  12  15
ENDBRANCH   8   9
ENDBRANCH   3   7
BRANCH   4  17
ATOM     17  C   UNL d   1      31.035 -17.300  -0.175  0.00  0.00     0.036 A 
ATOM     18  C   UNL d   1      31.545 -16.529   0.875  0.00  0.00     0.029 A 
ATOM     19  C   UNL d   1      32.471 -17.090   1.762  0.00  0.00     0.002 A 
ATOM     20  C   UNL d   1      32.864 -18.421   1.615  0.00  0.00     0.000 A 
ATOM     21  C   UNL d   1      32.386 -19.173   0.547  0.00  0.00     0.002 A 
ATOM     22  C   UNL d   1      31.498 -18.603  -0.359  0.00  0.00     0.029 A 
ENDBRANCH   4  17
TORSDOF 4
ENDMDL
MODEL 8
REMARK VINA RESULT:    -6.039      4.871      6.357
REMARK INTER + INTRA:          -7.698
REMARK INTER:                  -7.232
REMARK INTRA:                  -0.466
REMARK CONF_INDEPENDENT:        1.193
REMARK UNBOUND:                -0.466
REMARK  4 active torsions:
REMARK  status: ('A' for Active; 'I' for Inactive)
REMARK       I    between atoms: C_2  and  N_3 
REMARK       I    between atoms: C_2  and  N_13 
REMARK    1  A    between atoms: N_3  and  N_4 
REMARK    2  A    between atoms: C_5  and  C_6 
REMARK    3  A    between atoms: C_9  and  O_10 
REMARK    4  A    between atoms: N_13  and  C_14 
ROOT
ATOM      1  O   UNL d   1      26.485 -14.469  -1.367  0.00  0.00    -0.245 OA
ATOM      2  C   UNL d   1      25.614 -15.310  -1.617  0.00  0.00     0.341 C 
ATOM      3  N   UNL d   1      25.209 -15.671  -2.893  0.00  0.00    -0.229 N 
ATOM      4  N   UNL d   1      24.937 -15.882  -0.561  0.00  0.00    -0.308 N 
ATOM      5  H   UNL d   1      24.389 -16.249  -3.012  0.00  0.00     0.194 HD
ATOM      6  H   UNL d   1      25.156 -15.449   0.329  0.00  0.00     0.170 HD
ENDROOT
BRANCH   3   7
ATOM      7  N   UNL d   1      25.800 -15.116  -3.996  0.00  0.00    -0.182 NA
ATOM      8  C   UNL d   1      27.092 -15.167  -4.078  0.00  0.00     0.150 C 
BRANCH   8   9
ATOM      9  C   UNL d   1      27.775 -14.613  -5.274  0.00  0.00    -0.017 A 
ATOM     10  C   UNL d   1      28.843 -15.324  -5.833  0.00  0.00     0.015 A 
ATOM     11  C   UNL d   1      29.569 -14.785  -6.901  0.00  0.00     0.037 A 
ATOM     12  C   UNL d   1      29.224 -13.532  -7.398  0.00  0.00     0.065 A 
ATOM     13  C   UNL d   1      28.152 -12.825  -6.859  0.00  0.00     0.037 A 
ATOM     14  C   UNL d   1      27.409 -13.370  -5.802  0.00  0.00     0.015 A 
BRANCH  12  15
ATOM     15  O   UNL d   1      29.916 -12.949  -8.420  0.00  0.00    -0.361 OA
ATOM     16  H   UNL d   1      30.088 -13.611  -9.110  0.00  0.00     0.217 HD
ENDBRANCH  12  15
ENDBRANCH   8   9
ENDBRANCH   3   7
BRANCH   4  17
ATOM     17  C   UNL d   1      24.046 -16.965  -0.555  0.00  0.00     0.036 A 
ATOM     18  C   UNL d   1      24.541 -18.273  -0.522  0.00  0.00     0.029 A 
ATOM     19  C   UNL d   1      23.651 -19.353  -0.515  0.00  0.00     0.002 A 
ATOM     20  C   UNL d   1      22.274 -19.125  -0.514  0.00  0.00     0.000 A 
ATOM     21  C   UNL d   1      21.784 -17.825  -0.589  0.00  0.00     0.002 A 
ATOM     22  C   UNL d   1      22.669 -16.754  -0.638  0.00  0.00     0.029 A 
ENDBRANCH   4  17
TORSDOF 4
ENDMDL
MODEL 9
REMARK VINA RESULT:    -6.022      2.916      8.397
REMARK INTER + INTRA:          -7.700
REMARK INTER:                  -7.216
REMARK INTRA:                  -0.484
REMARK CONF_INDEPENDENT:        1.193
REMARK UNBOUND:                -0.484
REMARK  4 active torsions:
REMARK  status: ('A' for Active; 'I' for Inactive)
REMARK       I    between atoms: C_2  and  N_3 
REMARK       I    between atoms: C_2  and  N_13 
REMARK    1  A    between atoms: N_3  and  N_4 
REMARK    2  A    between atoms: C_5  and  C_6 
REMARK    3  A    between atoms: C_9  and  O_10 
REMARK    4  A    between atoms: N_13  and  C_14 
ROOT
ATOM      1  O   UNL d   1      25.705 -17.477   0.297  0.00  0.00    -0.245 OA
ATOM      2  C   UNL d   1      25.636 -16.882  -0.785  0.00  0.00     0.341 C 
ATOM      3  N   UNL d   1      24.632 -17.065  -1.723  0.00  0.00    -0.229 N 
ATOM      4  N   UNL d   1      26.663 -16.028  -1.125  0.00  0.00    -0.308 N 
ATOM      5  H   UNL d   1      24.728 -16.658  -2.643  0.00  0.00     0.194 HD
ATOM      6  H   UNL d   1      27.444 -16.073  -0.481  0.00  0.00     0.170 HD
ENDROOT
BRANCH   3   7
ATOM      7  N   UNL d   1      23.599 -17.930  -1.482  0.00  0.00    -0.182 NA
ATOM      8  C   UNL d   1      22.812 -17.666  -0.486  0.00  0.00     0.150 C 
BRANCH   8   9
ATOM      9  C   UNL d   1      21.656 -18.554  -0.208  0.00  0.00    -0.017 A 
ATOM     10  C   UNL d   1      20.832 -18.943  -1.270  0.00  0.00     0.015 A 
ATOM     11  C   UNL d   1      19.680 -19.700  -1.031  0.00  0.00     0.037 A 
ATOM     12  C   UNL d   1      19.358 -20.060   0.274  0.00  0.00     0.065 A 
ATOM     13  C   UNL d   1      20.181 -19.692   1.335  0.00  0.00     0.037 A 
ATOM     14  C   UNL d   1      21.347 -18.950   1.098  0.00  0.00     0.015 A 
BRANCH  12  15
ATOM     15  O   UNL d   1      18.232 -20.774   0.565  0.00  0.00    -0.361 OA
ATOM     16  H   UNL d   1      17.684 -20.849  -0.233  0.00  0.00     0.217 HD
ENDBRANCH  12  15
ENDBRANCH   8   9
ENDBRANCH   3   7
BRANCH   4  17
ATOM     17  C   UNL d   1      26.748 -15.115  -2.187  0.00  0.00     0.036 A 
ATOM     18  C   UNL d   1      27.016 -15.576  -3.480  0.00  0.00     0.029 A 
ATOM     19  C   UNL d   1      27.099 -14.665  -4.540  0.00  0.00     0.002 A 
ATOM     20  C   UNL d   1      26.888 -13.304  -4.310  0.00  0.00     0.000 A 
ATOM     21  C   UNL d   1      26.662 -12.843  -3.018  0.00  0.00     0.002 A 
ATOM     22  C   UNL d   1      26.621 -13.745  -1.959  0.00  0.00     0.029 A 
ENDBRANCH   4  17
TORSDOF 4
ENDMDL
