MODEL 1
REMARK VINA RESULT:   -10.549      0.000      0.000
REMARK INTER + INTRA:         -14.715
REMARK INTER:                 -13.234
REMARK INTRA:                  -1.481
REMARK CONF_INDEPENDENT:        2.685
REMARK UNBOUND:                -1.481
REMARK  9 active torsions:
REMARK  status: ('A' for Active; 'I' for Inactive)
REMARK    1  A    between atoms: O_2  and  C_3 
REMARK    2  A    between atoms: C_3  and  C_5 
REMARK    3  A    between atoms: C_8  and  N_9 
REMARK    4  A    between atoms: N_12  and  C_13 
REMARK    5  A    between atoms: C_13  and  C_14 
REMARK    6  A    between atoms: C_22  and  N_23 
REMARK    7  A    between atoms: N_23  and  C_24 
REMARK    8  A    between atoms: C_24  and  N_26 
REMARK       I    between atoms: N_26  and  C_27 
REMARK    9  A    between atoms: C_27  and  C_29 
ROOT
ATOM      1  C   UNL d   1      26.361  -9.188   2.002  0.00  0.00     0.041 A 
ATOM      2  C   UNL d   1      26.551  -9.752   3.239  0.00  0.00     0.020 A 
ATOM      3  C   UNL d   1      27.175 -11.022   3.330  0.00  0.00     0.033 A 
ATOM      4  C   UNL d   1      27.615 -11.789   2.197  0.00  0.00     0.057 A 
ATOM      5  C   UNL d   1      27.442 -11.176   0.922  0.00  0.00     0.062 A 
ATOM      6  C   UNL d   1      26.786  -9.928   0.914  0.00  0.00     0.049 A 
ENDROOT
BRANCH   5   7
ATOM      7  N   UNL d   1      27.885 -11.754  -0.347  0.00  0.00    -0.331 N 
ATOM      8  H   UNL d   1      28.815 -11.492  -0.589  0.00  0.00     0.168 HD
BRANCH   7   9
ATOM      9  C   UNL d   1      27.126 -12.478  -1.318  0.00  0.00     0.179 C 
ATOM     10  S   UNL d   1      26.587 -11.903  -2.810  0.00  0.00    -0.040 SA
BRANCH   9  11
ATOM     11  N   UNL d   1      26.804 -13.806  -0.955  0.00  0.00    -0.299 N 
ATOM     12  C   UNL d   1      25.820 -14.554  -1.638  0.00  0.00     0.257 C 
ATOM     13  O   UNL d   1      25.064 -14.161  -2.523  0.00  0.00    -0.267 OA
ATOM     14  H   UNL d   1      27.332 -14.293  -0.250  0.00  0.00     0.171 HD
BRANCH  12  15
ATOM     15  C   UNL d   1      25.535 -15.943  -1.301  0.00  0.00     0.033 A 
ATOM     16  C   UNL d   1      24.182 -16.335  -1.366  0.00  0.00     0.023 A 
ATOM     17  C   UNL d   1      23.754 -17.490  -0.719  0.00  0.00    -0.061 A 
ATOM     18  C   UNL d   1      22.296 -17.797  -0.546  0.00  0.00     0.048 C 
ATOM     19  C   UNL d   1      24.710 -18.306  -0.116  0.00  0.00     0.013 A 
ATOM     20  C   UNL d   1      26.053 -17.907  -0.033  0.00  0.00    -0.061 A 
ATOM     21  C   UNL d   1      27.030 -18.716   0.756  0.00  0.00     0.048 C 
ATOM     22  C   UNL d   1      26.466 -16.703  -0.609  0.00  0.00     0.023 A 
ENDBRANCH  12  15
ENDBRANCH   9  11
ENDBRANCH   7   9
ENDBRANCH   5   7
BRANCH   4  23
ATOM     23  N   UNL d   1      28.126 -13.059   2.452  0.00  0.00    -0.376 N 
ATOM     24  C   UNL d   1      27.406 -14.189   3.034  0.00  0.00     0.150 C 
ATOM     25  C   UNL d   1      27.970 -14.524   4.441  0.00  0.00     0.255 C 
ATOM     26  N   UNL d   1      29.497 -14.696   4.443  0.00  0.00    -0.064 N 
ATOM     27  C   UNL d   1      30.195 -13.575   3.631  0.00  0.00     0.255 C 
ATOM     28  H   UNL d   1      29.716 -15.590   3.985  0.00  0.00     0.280 HD
ATOM     29  C   UNL d   1      29.554 -13.334   2.254  0.00  0.00     0.150 C 
BRANCH  26  30
ATOM     30  C   UNL d   1      30.031 -14.825   5.876  0.00  0.00     0.273 C 
BRANCH  30  31
ATOM     31  C   UNL d   1      29.520 -13.793   6.851  0.00  0.00    -0.033 A 
ATOM     32  C   UNL d   1      29.326 -14.093   8.207  0.00  0.00     0.009 A 
ATOM     33  C   UNL d   1      28.775 -13.136   9.068  0.00  0.00     0.001 A 
ATOM     34  C   UNL d   1      28.529 -11.839   8.620  0.00  0.00     0.000 A 
ATOM     35  C   UNL d   1      28.726 -11.524   7.287  0.00  0.00     0.001 A 
ATOM     36  C   UNL d   1      29.145 -12.515   6.407  0.00  0.00     0.009 A 
ENDBRANCH  30  31
ENDBRANCH  26  30
ENDBRANCH   4  23
BRANCH   1  37
ATOM     37  C   UNL d   1      25.911  -7.779   1.766  0.00  0.00     0.293 C 
ATOM     38  O   UNL d   1      26.253  -6.859   2.508  0.00  0.00    -0.259 OA
BRANCH  37  39
ATOM     39  O   UNL d   1      25.148  -7.649   0.647  0.00  0.00    -0.323 OA
ATOM     40  C   UNL d   1      25.114  -6.326   0.074  0.00  0.00     0.213 C 
ENDBRANCH  37  39
ENDBRANCH   1  37
TORSDOF 9
ENDMDL
MODEL 2
REMARK VINA RESULT:   -10.312      3.857      6.703
REMARK INTER + INTRA:         -14.744
REMARK INTER:                 -12.997
REMARK INTRA:                  -1.747
REMARK CONF_INDEPENDENT:        2.685
REMARK UNBOUND:                -1.747
REMARK  9 active torsions:
REMARK  status: ('A' for Active; 'I' for Inactive)
REMARK    1  A    between atoms: O_2  and  C_3 
REMARK    2  A    between atoms: C_3  and  C_5 
REMARK    3  A    between atoms: C_8  and  N_9 
REMARK    4  A    between atoms: N_12  and  C_13 
REMARK    5  A    between atoms: C_13  and  C_14 
REMARK    6  A    between atoms: C_22  and  N_23 
REMARK    7  A    between atoms: N_23  and  C_24 
REMARK    8  A    between atoms: C_24  and  N_26 
REMARK       I    between atoms: N_26  and  C_27 
REMARK    9  A    between atoms: C_27  and  C_29 
ROOT
ATOM      1  C   UNL d   1      24.052 -17.944  -0.698  0.00  0.00     0.041 A 
ATOM      2  C   UNL d   1      25.098 -18.177   0.159  0.00  0.00     0.020 A 
ATOM      3  C   UNL d   1      26.192 -17.276   0.175  0.00  0.00     0.033 A 
ATOM      4  C   UNL d   1      26.300 -16.121  -0.674  0.00  0.00     0.057 A 
ATOM      5  C   UNL d   1      25.191 -15.873  -1.536  0.00  0.00     0.062 A 
ATOM      6  C   UNL d   1      24.158 -16.832  -1.513  0.00  0.00     0.049 A 
ENDROOT
BRANCH   5   7
ATOM      7  N   UNL d   1      25.069 -14.717  -2.424  0.00  0.00    -0.331 N 
ATOM      8  H   UNL d   1      24.200 -14.241  -2.324  0.00  0.00     0.168 HD
BRANCH   7   9
ATOM      9  C   UNL d   1      25.932 -14.306  -3.486  0.00  0.00     0.179 C 
ATOM     10  S   UNL d   1      25.602 -13.140  -4.660  0.00  0.00    -0.040 SA
BRANCH   9  11
ATOM     11  N   UNL d   1      27.179 -14.970  -3.534  0.00  0.00    -0.299 N 
ATOM     12  C   UNL d   1      27.801 -15.315  -4.754  0.00  0.00     0.257 C 
ATOM     13  O   UNL d   1      27.338 -15.200  -5.886  0.00  0.00    -0.267 OA
ATOM     14  H   UNL d   1      27.709 -15.139  -2.695  0.00  0.00     0.171 HD
BRANCH  12  15
ATOM     15  C   UNL d   1      29.115 -15.944  -4.800  0.00  0.00     0.033 A 
ATOM     16  C   UNL d   1      29.676 -16.124  -6.081  0.00  0.00     0.023 A 
ATOM     17  C   UNL d   1      30.716 -17.027  -6.272  0.00  0.00    -0.061 A 
ATOM     18  C   UNL d   1      31.158 -17.435  -7.646  0.00  0.00     0.048 C 
ATOM     19  C   UNL d   1      31.267 -17.650  -5.153  0.00  0.00     0.013 A 
ATOM     20  C   UNL d   1      30.697 -17.488  -3.881  0.00  0.00    -0.061 A 
ATOM     21  C   UNL d   1      31.200 -18.290  -2.725  0.00  0.00     0.048 C 
ATOM     22  C   UNL d   1      29.596 -16.647  -3.706  0.00  0.00     0.023 A 
ENDBRANCH  12  15
ENDBRANCH   9  11
ENDBRANCH   7   9
ENDBRANCH   5   7
BRANCH   4  23
ATOM     23  N   UNL d   1      27.482 -15.388  -0.600  0.00  0.00    -0.376 N 
ATOM     24  C   UNL d   1      28.839 -15.902  -0.767  0.00  0.00     0.150 C 
ATOM     25  C   UNL d   1      29.615 -15.827   0.576  0.00  0.00     0.255 C 
ATOM     26  N   UNL d   1      29.556 -14.431   1.218  0.00  0.00    -0.064 N 
ATOM     27  C   UNL d   1      28.119 -13.849   1.178  0.00  0.00     0.255 C 
ATOM     28  H   UNL d   1      30.157 -13.803   0.670  0.00  0.00     0.280 HD
ATOM     29  C   UNL d   1      27.451 -13.976  -0.202  0.00  0.00     0.150 C 
BRANCH  26  30
ATOM     30  C   UNL d   1      30.159 -14.452   2.629  0.00  0.00     0.273 C 
BRANCH  30  31
ATOM     31  C   UNL d   1      29.253 -13.950   3.726  0.00  0.00    -0.033 A 
ATOM     32  C   UNL d   1      28.149 -14.695   4.168  0.00  0.00     0.009 A 
ATOM     33  C   UNL d   1      27.282 -14.164   5.131  0.00  0.00     0.001 A 
ATOM     34  C   UNL d   1      27.571 -12.949   5.751  0.00  0.00     0.000 A 
ATOM     35  C   UNL d   1      28.662 -12.208   5.333  0.00  0.00     0.001 A 
ATOM     36  C   UNL d   1      29.443 -12.675   4.282  0.00  0.00     0.009 A 
ENDBRANCH  30  31
ENDBRANCH  26  30
ENDBRANCH   4  23
BRANCH   1  37
ATOM     37  C   UNL d   1      22.750 -18.683  -0.678  0.00  0.00     0.293 C 
ATOM     38  O   UNL d   1      22.354 -19.323  -1.651  0.00  0.00    -0.259 OA
BRANCH  37  39
ATOM     39  O   UNL d   1      22.113 -18.597   0.521  0.00  0.00    -0.323 OA
ATOM     40  C   UNL d   1      20.872 -19.325   0.615  0.00  0.00     0.213 C 
ENDBRANCH  37  39
ENDBRANCH   1  37
TORSDOF 9
ENDMDL
MODEL 3
REMARK VINA RESULT:    -9.930      2.459      7.869
REMARK INTER + INTRA:         -14.636
REMARK INTER:                 -12.615
REMARK INTRA:                  -2.021
REMARK CONF_INDEPENDENT:        2.685
REMARK UNBOUND:                -2.021
REMARK  9 active torsions:
REMARK  status: ('A' for Active; 'I' for Inactive)
REMARK    1  A    between atoms: O_2  and  C_3 
REMARK    2  A    between atoms: C_3  and  C_5 
REMARK    3  A    between atoms: C_8  and  N_9 
REMARK    4  A    between atoms: N_12  and  C_13 
REMARK    5  A    between atoms: C_13  and  C_14 
REMARK    6  A    between atoms: C_22  and  N_23 
REMARK    7  A    between atoms: N_23  and  C_24 
REMARK    8  A    between atoms: C_24  and  N_26 
REMARK       I    between atoms: N_26  and  C_27 
REMARK    9  A    between atoms: C_27  and  C_29 
ROOT
ATOM      1  C   UNL d   1      27.039  -9.535   2.084  0.00  0.00     0.041 A 
ATOM      2  C   UNL d   1      26.974 -10.370   0.996  0.00  0.00     0.020 A 
ATOM      3  C   UNL d   1      27.571 -11.654   1.073  0.00  0.00     0.033 A 
ATOM      4  C   UNL d   1      28.272 -12.150   2.226  0.00  0.00     0.057 A 
ATOM      5  C   UNL d   1      28.302 -11.286   3.359  0.00  0.00     0.062 A 
ATOM      6  C   UNL d   1      27.713 -10.017   3.192  0.00  0.00     0.049 A 
ENDROOT
BRANCH   5   7
ATOM      7  N   UNL d   1      28.899 -11.627   4.651  0.00  0.00    -0.331 N 
ATOM      8  H   UNL d   1      28.291 -11.448   5.419  0.00  0.00     0.168 HD
BRANCH   7   9
ATOM      9  C   UNL d   1      30.244 -12.011   4.945  0.00  0.00     0.179 C 
ATOM     10  S   UNL d   1      31.618 -11.647   4.036  0.00  0.00    -0.040 SA
BRANCH   9  11
ATOM     11  N   UNL d   1      30.402 -12.783   6.119  0.00  0.00    -0.299 N 
ATOM     12  C   UNL d   1      29.364 -12.931   7.066  0.00  0.00     0.257 C 
ATOM     13  O   UNL d   1      28.274 -12.364   7.075  0.00  0.00    -0.267 OA
ATOM     14  H   UNL d   1      31.233 -13.327   6.273  0.00  0.00     0.171 HD
BRANCH  12  15
ATOM     15  C   UNL d   1      29.510 -13.778   8.243  0.00  0.00     0.033 A 
ATOM     16  C   UNL d   1      28.530 -13.626   9.246  0.00  0.00     0.023 A 
ATOM     17  C   UNL d   1      28.768 -14.087  10.537  0.00  0.00    -0.061 A 
ATOM     18  C   UNL d   1      27.871 -13.715  11.680  0.00  0.00     0.048 C 
ATOM     19  C   UNL d   1      29.938 -14.805  10.779  0.00  0.00     0.013 A 
ATOM     20  C   UNL d   1      30.923 -14.939   9.788  0.00  0.00    -0.061 A 
ATOM     21  C   UNL d   1      32.236 -15.571  10.116  0.00  0.00     0.048 C 
ATOM     22  C   UNL d   1      30.718 -14.400   8.516  0.00  0.00     0.023 A 
ENDBRANCH  12  15
ENDBRANCH   9  11
ENDBRANCH   7   9
ENDBRANCH   5   7
BRANCH   4  23
ATOM     23  N   UNL d   1      28.880 -13.398   2.108  0.00  0.00    -0.376 N 
ATOM     24  C   UNL d   1      30.031 -13.733   1.273  0.00  0.00     0.150 C 
ATOM     25  C   UNL d   1      29.607 -14.690   0.127  0.00  0.00     0.255 C 
ATOM     26  N   UNL d   1      28.833 -15.917   0.635  0.00  0.00    -0.064 N 
ATOM     27  C   UNL d   1      27.759 -15.517   1.680  0.00  0.00     0.255 C 
ATOM     28  H   UNL d   1      29.501 -16.542   1.104  0.00  0.00     0.280 HD
ATOM     29  C   UNL d   1      28.293 -14.571   2.768  0.00  0.00     0.150 C 
BRANCH  26  30
ATOM     30  C   UNL d   1      28.263 -16.728  -0.537  0.00  0.00     0.273 C 
BRANCH  30  31
ATOM     31  C   UNL d   1      26.770 -16.943  -0.506  0.00  0.00    -0.033 A 
ATOM     32  C   UNL d   1      26.190 -17.979   0.242  0.00  0.00     0.009 A 
ATOM     33  C   UNL d   1      24.808 -18.200   0.185  0.00  0.00     0.001 A 
ATOM     34  C   UNL d   1      23.979 -17.325  -0.515  0.00  0.00     0.000 A 
ATOM     35  C   UNL d   1      24.536 -16.292  -1.250  0.00  0.00     0.001 A 
ATOM     36  C   UNL d   1      25.918 -16.158  -1.299  0.00  0.00     0.009 A 
ENDBRANCH  30  31
ENDBRANCH  26  30
ENDBRANCH   4  23
BRANCH   1  37
ATOM     37  C   UNL d   1      26.284  -8.249   2.220  0.00  0.00     0.293 C 
ATOM     38  O   UNL d   1      26.631  -7.377   3.015  0.00  0.00    -0.259 OA
BRANCH  37  39
ATOM     39  O   UNL d   1      25.238  -8.158   1.355  0.00  0.00    -0.323 OA
ATOM     40  C   UNL d   1      25.551  -7.597   0.064  0.00  0.00     0.213 C 
ENDBRANCH  37  39
ENDBRANCH   1  37
TORSDOF 9
ENDMDL
MODEL 4
REMARK VINA RESULT:    -9.734      2.968      7.485
REMARK INTER + INTRA:         -14.579
REMARK INTER:                 -12.418
REMARK INTRA:                  -2.161
REMARK CONF_INDEPENDENT:        2.685
REMARK UNBOUND:                -2.161
REMARK  9 active torsions:
REMARK  status: ('A' for Active; 'I' for Inactive)
REMARK    1  A    between atoms: O_2  and  C_3 
REMARK    2  A    between atoms: C_3  and  C_5 
REMARK    3  A    between atoms: C_8  and  N_9 
REMARK    4  A    between atoms: N_12  and  C_13 
REMARK    5  A    between atoms: C_13  and  C_14 
REMARK    6  A    between atoms: C_22  and  N_23 
REMARK    7  A    between atoms: N_23  and  C_24 
REMARK    8  A    between atoms: C_24  and  N_26 
REMARK       I    between atoms: N_26  and  C_27 
REMARK    9  A    between atoms: C_27  and  C_29 
ROOT
ATOM      1  C   UNL d   1      23.748 -17.520  -0.983  0.00  0.00     0.041 A 
ATOM      2  C   UNL d   1      24.798 -18.163  -0.377  0.00  0.00     0.020 A 
ATOM      3  C   UNL d   1      26.089 -17.579  -0.428  0.00  0.00     0.033 A 
ATOM      4  C   UNL d   1      26.391 -16.345  -1.099  0.00  0.00     0.057 A 
ATOM      5  C   UNL d   1      25.284 -15.671  -1.695  0.00  0.00     0.062 A 
ATOM      6  C   UNL d   1      24.041 -16.332  -1.627  0.00  0.00     0.049 A 
ENDROOT
BRANCH   5   7
ATOM      7  N   UNL d   1      25.362 -14.371  -2.363  0.00  0.00    -0.331 N 
ATOM      8  H   UNL d   1      25.249 -13.605  -1.735  0.00  0.00     0.168 HD
BRANCH   7   9
ATOM      9  C   UNL d   1      25.411 -14.081  -3.761  0.00  0.00     0.179 C 
ATOM     10  S   UNL d   1      25.533 -15.200  -5.019  0.00  0.00    -0.040 SA
BRANCH   9  11
ATOM     11  N   UNL d   1      25.361 -12.707  -4.088  0.00  0.00    -0.299 N 
ATOM     12  C   UNL d   1      26.001 -11.723  -3.302  0.00  0.00     0.257 C 
ATOM     13  O   UNL d   1      26.569 -11.882  -2.224  0.00  0.00    -0.267 OA
ATOM     14  H   UNL d   1      24.941 -12.394  -4.947  0.00  0.00     0.171 HD
BRANCH  12  15
ATOM     15  C   UNL d   1      25.999 -10.315  -3.678  0.00  0.00     0.033 A 
ATOM     16  C   UNL d   1      26.175  -9.390  -2.628  0.00  0.00     0.023 A 
ATOM     17  C   UNL d   1      25.821  -8.055  -2.801  0.00  0.00    -0.061 A 
ATOM     18  C   UNL d   1      25.747  -7.107  -1.641  0.00  0.00     0.048 C 
ATOM     19  C   UNL d   1      25.408  -7.637  -4.065  0.00  0.00     0.013 A 
ATOM     20  C   UNL d   1      25.213  -8.560  -5.105  0.00  0.00    -0.061 A 
ATOM     21  C   UNL d   1      24.617  -8.117  -6.401  0.00  0.00     0.048 C 
ATOM     22  C   UNL d   1      25.488  -9.915  -4.903  0.00  0.00     0.023 A 
ENDBRANCH  12  15
ENDBRANCH   9  11
ENDBRANCH   7   9
ENDBRANCH   5   7
BRANCH   4  23
ATOM     23  N   UNL d   1      27.727 -15.953  -1.135  0.00  0.00    -0.376 N 
ATOM     24  C   UNL d   1      28.870 -16.701  -0.617  0.00  0.00     0.150 C 
ATOM     25  C   UNL d   1      29.489 -15.966   0.603  0.00  0.00     0.255 C 
ATOM     26  N   UNL d   1      29.796 -14.489   0.312  0.00  0.00    -0.064 N 
ATOM     27  C   UNL d   1      28.621 -13.800  -0.428  0.00  0.00     0.255 C 
ATOM     28  H   UNL d   1      30.615 -14.451  -0.309  0.00  0.00     0.280 HD
ATOM     29  C   UNL d   1      28.092 -14.617  -1.620  0.00  0.00     0.150 C 
BRANCH  26  30
ATOM     30  C   UNL d   1      30.216 -13.755   1.593  0.00  0.00     0.273 C 
BRANCH  30  31
ATOM     31  C   UNL d   1      29.256 -13.876   2.750  0.00  0.00    -0.033 A 
ATOM     32  C   UNL d   1      29.643 -14.450   3.971  0.00  0.00     0.009 A 
ATOM     33  C   UNL d   1      28.706 -14.621   4.997  0.00  0.00     0.001 A 
ATOM     34  C   UNL d   1      27.414 -14.115   4.867  0.00  0.00     0.000 A 
ATOM     35  C   UNL d   1      27.020 -13.536   3.672  0.00  0.00     0.001 A 
ATOM     36  C   UNL d   1      27.914 -13.491   2.609  0.00  0.00     0.009 A 
ENDBRANCH  30  31
ENDBRANCH  26  30
ENDBRANCH   4  23
BRANCH   1  37
ATOM     37  C   UNL d   1      22.309 -17.907  -0.834  0.00  0.00     0.293 C 
ATOM     38  O   UNL d   1      21.415 -17.063  -0.782  0.00  0.00    -0.259 OA
BRANCH  37  39
ATOM     39  O   UNL d   1      22.124 -19.254  -0.811  0.00  0.00    -0.323 OA
ATOM     40  C   UNL d   1      20.956 -19.705  -0.096  0.00  0.00     0.213 C 
ENDBRANCH  37  39
ENDBRANCH   1  37
TORSDOF 9
ENDMDL
MODEL 5
REMARK VINA RESULT:    -9.208      4.908      8.221
REMARK INTER + INTRA:         -14.936
REMARK INTER:                 -11.893
REMARK INTRA:                  -3.043
REMARK CONF_INDEPENDENT:        2.685
REMARK UNBOUND:                -3.043
REMARK  9 active torsions:
REMARK  status: ('A' for Active; 'I' for Inactive)
REMARK    1  A    between atoms: O_2  and  C_3 
REMARK    2  A    between atoms: C_3  and  C_5 
REMARK    3  A    between atoms: C_8  and  N_9 
REMARK    4  A    between atoms: N_12  and  C_13 
REMARK    5  A    between atoms: C_13  and  C_14 
REMARK    6  A    between atoms: C_22  and  N_23 
REMARK    7  A    between atoms: N_23  and  C_24 
REMARK    8  A    between atoms: C_24  and  N_26 
REMARK       I    between atoms: N_26  and  C_27 
REMARK    9  A    between atoms: C_27  and  C_29 
ROOT
ATOM      1  C   UNL d   1      23.313 -17.822  -0.800  0.00  0.00     0.041 A 
ATOM      2  C   UNL d   1      24.186 -18.645  -0.132  0.00  0.00     0.020 A 
ATOM      3  C   UNL d   1      25.526 -18.224   0.054  0.00  0.00     0.033 A 
ATOM      4  C   UNL d   1      26.058 -16.981  -0.433  0.00  0.00     0.057 A 
ATOM      5  C   UNL d   1      25.132 -16.122  -1.095  0.00  0.00     0.062 A 
ATOM      6  C   UNL d   1      23.827 -16.626  -1.266  0.00  0.00     0.049 A 
ENDROOT
BRANCH   5   7
ATOM      7  N   UNL d   1      25.450 -14.786  -1.601  0.00  0.00    -0.331 N 
ATOM      8  H   UNL d   1      25.519 -14.104  -0.879  0.00  0.00     0.168 HD
BRANCH   7   9
ATOM      9  C   UNL d   1      25.506 -14.329  -2.954  0.00  0.00     0.179 C 
ATOM     10  S   UNL d   1      24.207 -13.816  -3.900  0.00  0.00    -0.040 SA
BRANCH   9  11
ATOM     11  N   UNL d   1      26.797 -14.328  -3.530  0.00  0.00    -0.299 N 
ATOM     12  C   UNL d   1      27.059 -14.916  -4.788  0.00  0.00     0.257 C 
ATOM     13  O   UNL d   1      26.285 -15.572  -5.481  0.00  0.00    -0.267 OA
ATOM     14  H   UNL d   1      27.556 -13.826  -3.101  0.00  0.00     0.171 HD
BRANCH  12  15
ATOM     15  C   UNL d   1      28.377 -14.858  -5.407  0.00  0.00     0.033 A 
ATOM     16  C   UNL d   1      28.607 -13.776  -6.282  0.00  0.00     0.023 A 
ATOM     17  C   UNL d   1      29.654 -13.822  -7.196  0.00  0.00    -0.061 A 
ATOM     18  C   UNL d   1      29.771 -12.820  -8.306  0.00  0.00     0.048 C 
ATOM     19  C   UNL d   1      30.536 -14.900  -7.140  0.00  0.00     0.013 A 
ATOM     20  C   UNL d   1      30.297 -15.987  -6.285  0.00  0.00    -0.061 A 
ATOM     21  C   UNL d   1      31.161 -17.203  -6.356  0.00  0.00     0.048 C 
ATOM     22  C   UNL d   1      29.194 -15.978  -5.427  0.00  0.00     0.023 A 
ENDBRANCH  12  15
ENDBRANCH   9  11
ENDBRANCH   7   9
ENDBRANCH   5   7
BRANCH   4  23
ATOM     23  N   UNL d   1      27.420 -16.757  -0.246  0.00  0.00    -0.376 N 
ATOM     24  C   UNL d   1      28.069 -16.301   0.980  0.00  0.00     0.150 C 
ATOM     25  C   UNL d   1      28.648 -14.873   0.787  0.00  0.00     0.255 C 
ATOM     26  N   UNL d   1      29.535 -14.757  -0.463  0.00  0.00    -0.064 N 
ATOM     27  C   UNL d   1      28.880 -15.445  -1.688  0.00  0.00     0.255 C 
ATOM     28  H   UNL d   1      30.419 -15.245  -0.273  0.00  0.00     0.280 HD
ATOM     29  C   UNL d   1      28.346 -16.854  -1.380  0.00  0.00     0.150 C 
BRANCH  26  30
ATOM     30  C   UNL d   1      29.920 -13.295  -0.727  0.00  0.00     0.273 C 
BRANCH  30  31
ATOM     31  C   UNL d   1      29.063 -12.574  -1.737  0.00  0.00    -0.033 A 
ATOM     32  C   UNL d   1      29.551 -12.236  -3.009  0.00  0.00     0.009 A 
ATOM     33  C   UNL d   1      28.756 -11.496  -3.893  0.00  0.00     0.001 A 
ATOM     34  C   UNL d   1      27.433 -11.194  -3.574  0.00  0.00     0.000 A 
ATOM     35  C   UNL d   1      26.935 -11.530  -2.327  0.00  0.00     0.001 A 
ATOM     36  C   UNL d   1      27.770 -12.144  -1.401  0.00  0.00     0.009 A 
ENDBRANCH  30  31
ENDBRANCH  26  30
ENDBRANCH   4  23
BRANCH   1  37
ATOM     37  C   UNL d   1      21.834 -18.039  -0.888  0.00  0.00     0.293 C 
ATOM     38  O   UNL d   1      21.042 -17.097  -0.896  0.00  0.00    -0.259 OA
BRANCH  37  39
ATOM     39  O   UNL d   1      21.498 -19.352  -1.000  0.00  0.00    -0.323 OA
ATOM     40  C   UNL d   1      20.099 -19.649  -0.821  0.00  0.00     0.213 C 
ENDBRANCH  37  39
ENDBRANCH   1  37
TORSDOF 9
ENDMDL
MODEL 6
REMARK VINA RESULT:    -9.200      4.774      9.116
REMARK INTER + INTRA:         -15.206
REMARK INTER:                 -11.885
REMARK INTRA:                  -3.321
REMARK CONF_INDEPENDENT:        2.685
REMARK UNBOUND:                -3.321
REMARK  9 active torsions:
REMARK  status: ('A' for Active; 'I' for Inactive)
REMARK    1  A    between atoms: O_2  and  C_3 
REMARK    2  A    between atoms: C_3  and  C_5 
REMARK    3  A    between atoms: C_8  and  N_9 
REMARK    4  A    between atoms: N_12  and  C_13 
REMARK    5  A    between atoms: C_13  and  C_14 
REMARK    6  A    between atoms: C_22  and  N_23 
REMARK    7  A    between atoms: N_23  and  C_24 
REMARK    8  A    between atoms: C_24  and  N_26 
REMARK       I    between atoms: N_26  and  C_27 
REMARK    9  A    between atoms: C_27  and  C_29 
ROOT
ATOM      1  C   UNL d   1      23.473 -17.673  -0.819  0.00  0.00     0.041 A 
ATOM      2  C   UNL d   1      24.374 -18.348  -0.033  0.00  0.00     0.020 A 
ATOM      3  C   UNL d   1      25.690 -17.840   0.101  0.00  0.00     0.033 A 
ATOM      4  C   UNL d   1      26.170 -16.655  -0.555  0.00  0.00     0.057 A 
ATOM      5  C   UNL d   1      25.215 -15.946  -1.342  0.00  0.00     0.062 A 
ATOM      6  C   UNL d   1      23.937 -16.533  -1.449  0.00  0.00     0.049 A 
ENDROOT
BRANCH   5   7
ATOM      7  N   UNL d   1      25.477 -14.683  -2.033  0.00  0.00    -0.331 N 
ATOM      8  H   UNL d   1      25.562 -13.911  -1.409  0.00  0.00     0.168 HD
BRANCH   7   9
ATOM      9  C   UNL d   1      25.462 -14.406  -3.434  0.00  0.00     0.179 C 
ATOM     10  S   UNL d   1      25.531 -15.536  -4.686  0.00  0.00    -0.040 SA
BRANCH   9  11
ATOM     11  N   UNL d   1      25.390 -13.035  -3.772  0.00  0.00    -0.299 N 
ATOM     12  C   UNL d   1      26.123 -12.050  -3.073  0.00  0.00     0.257 C 
ATOM     13  O   UNL d   1      26.804 -12.204  -2.062  0.00  0.00    -0.267 OA
ATOM     14  H   UNL d   1      24.882 -12.728  -4.584  0.00  0.00     0.171 HD
BRANCH  12  15
ATOM     15  C   UNL d   1      26.095 -10.647  -3.464  0.00  0.00     0.033 A 
ATOM     16  C   UNL d   1      26.307  -9.708  -2.433  0.00  0.00     0.023 A 
ATOM     17  C   UNL d   1      25.936  -8.379  -2.606  0.00  0.00    -0.061 A 
ATOM     18  C   UNL d   1      25.903  -7.418  -1.455  0.00  0.00     0.048 C 
ATOM     19  C   UNL d   1      25.469  -7.978  -3.857  0.00  0.00     0.013 A 
ATOM     20  C   UNL d   1      25.238  -8.915  -4.877  0.00  0.00    -0.061 A 
ATOM     21  C   UNL d   1      24.586  -8.490  -6.152  0.00  0.00     0.048 C 
ATOM     22  C   UNL d   1      25.531 -10.265  -4.671  0.00  0.00     0.023 A 
ENDBRANCH  12  15
ENDBRANCH   9  11
ENDBRANCH   7   9
ENDBRANCH   5   7
BRANCH   4  23
ATOM     23  N   UNL d   1      27.517 -16.341  -0.392  0.00  0.00    -0.376 N 
ATOM     24  C   UNL d   1      28.084 -15.011  -0.182  0.00  0.00     0.150 C 
ATOM     25  C   UNL d   1      28.928 -14.582  -1.412  0.00  0.00     0.255 C 
ATOM     26  N   UNL d   1      29.967 -15.641  -1.817  0.00  0.00    -0.064 N 
ATOM     27  C   UNL d   1      29.352 -17.064  -1.820  0.00  0.00     0.255 C 
ATOM     28  H   UNL d   1      30.719 -15.632  -1.117  0.00  0.00     0.280 HD
ATOM     29  C   UNL d   1      28.542 -17.380  -0.552  0.00  0.00     0.150 C 
BRANCH  26  30
ATOM     30  C   UNL d   1      30.637 -15.269  -3.147  0.00  0.00     0.273 C 
BRANCH  30  31
ATOM     31  C   UNL d   1      29.722 -14.662  -4.182  0.00  0.00    -0.033 A 
ATOM     32  C   UNL d   1      29.098 -15.447  -5.164  0.00  0.00     0.009 A 
ATOM     33  C   UNL d   1      28.320 -14.841  -6.158  0.00  0.00     0.001 A 
ATOM     34  C   UNL d   1      28.055 -13.474  -6.116  0.00  0.00     0.000 A 
ATOM     35  C   UNL d   1      28.656 -12.688  -5.147  0.00  0.00     0.001 A 
ATOM     36  C   UNL d   1      29.535 -13.272  -4.244  0.00  0.00     0.009 A 
ENDBRANCH  30  31
ENDBRANCH  26  30
ENDBRANCH   4  23
BRANCH   1  37
ATOM     37  C   UNL d   1      22.007 -17.971  -0.887  0.00  0.00     0.293 C 
ATOM     38  O   UNL d   1      21.165 -17.075  -0.898  0.00  0.00    -0.259 OA
BRANCH  37  39
ATOM     39  O   UNL d   1      21.743 -19.303  -0.979  0.00  0.00    -0.323 OA
ATOM     40  C   UNL d   1      20.422 -19.700  -0.561  0.00  0.00     0.213 C 
ENDBRANCH  37  39
ENDBRANCH   1  37
TORSDOF 9
ENDMDL
MODEL 7
REMARK VINA RESULT:    -9.179      6.236      9.601
REMARK INTER + INTRA:         -14.781
REMARK INTER:                 -11.864
REMARK INTRA:                  -2.917
REMARK CONF_INDEPENDENT:        2.685
REMARK UNBOUND:                -2.917
REMARK  9 active torsions:
REMARK  status: ('A' for Active; 'I' for Inactive)
REMARK    1  A    between atoms: O_2  and  C_3 
REMARK    2  A    between atoms: C_3  and  C_5 
REMARK    3  A    between atoms: C_8  and  N_9 
REMARK    4  A    between atoms: N_12  and  C_13 
REMARK    5  A    between atoms: C_13  and  C_14 
REMARK    6  A    between atoms: C_22  and  N_23 
REMARK    7  A    between atoms: N_23  and  C_24 
REMARK    8  A    between atoms: C_24  and  N_26 
REMARK       I    between atoms: N_26  and  C_27 
REMARK    9  A    between atoms: C_27  and  C_29 
ROOT
ATOM      1  C   UNL d   1      23.825 -17.689  -0.886  0.00  0.00     0.041 A 
ATOM      2  C   UNL d   1      24.696 -17.815   0.168  0.00  0.00     0.020 A 
ATOM      3  C   UNL d   1      26.013 -17.306   0.041  0.00  0.00     0.033 A 
ATOM      4  C   UNL d   1      26.522 -16.671  -1.144  0.00  0.00     0.057 A 
ATOM      5  C   UNL d   1      25.597 -16.517  -2.217  0.00  0.00     0.062 A 
ATOM      6  C   UNL d   1      24.318 -17.077  -2.023  0.00  0.00     0.049 A 
ENDROOT
BRANCH   5   7
ATOM      7  N   UNL d   1      25.891 -15.837  -3.480  0.00  0.00    -0.331 N 
ATOM      8  H   UNL d   1      26.487 -16.368  -4.076  0.00  0.00     0.168 HD
BRANCH   7   9
ATOM      9  C   UNL d   1      25.580 -14.499  -3.872  0.00  0.00     0.179 C 
ATOM     10  S   UNL d   1      24.098 -13.713  -3.689  0.00  0.00    -0.040 SA
BRANCH   9  11
ATOM     11  N   UNL d   1      26.643 -13.793  -4.481  0.00  0.00    -0.299 N 
ATOM     12  C   UNL d   1      27.499 -14.394  -5.429  0.00  0.00     0.257 C 
ATOM     13  O   UNL d   1      27.524 -15.575  -5.769  0.00  0.00    -0.267 OA
ATOM     14  H   UNL d   1      26.767 -12.807  -4.323  0.00  0.00     0.171 HD
BRANCH  12  15
ATOM     15  C   UNL d   1      28.553 -13.645  -6.101  0.00  0.00     0.033 A 
ATOM     16  C   UNL d   1      28.188 -12.990  -7.296  0.00  0.00     0.023 A 
ATOM     17  C   UNL d   1      29.164 -12.577  -8.196  0.00  0.00    -0.061 A 
ATOM     18  C   UNL d   1      28.810 -12.120  -9.580  0.00  0.00     0.048 C 
ATOM     19  C   UNL d   1      30.503 -12.713  -7.833  0.00  0.00     0.013 A 
ATOM     20  C   UNL d   1      30.868 -13.382  -6.654  0.00  0.00    -0.061 A 
ATOM     21  C   UNL d   1      32.307 -13.660  -6.363  0.00  0.00     0.048 C 
ATOM     22  C   UNL d   1      29.885 -13.874  -5.792  0.00  0.00     0.023 A 
ENDBRANCH  12  15
ENDBRANCH   9  11
ENDBRANCH   7   9
ENDBRANCH   5   7
BRANCH   4  23
ATOM     23  N   UNL d   1      27.867 -16.308  -1.140  0.00  0.00    -0.376 N 
ATOM     24  C   UNL d   1      28.554 -15.491  -2.137  0.00  0.00     0.150 C 
ATOM     25  C   UNL d   1      29.584 -16.347  -2.922  0.00  0.00     0.255 C 
ATOM     26  N   UNL d   1      30.535 -17.125  -1.999  0.00  0.00    -0.064 N 
ATOM     27  C   UNL d   1      29.766 -17.803  -0.835  0.00  0.00     0.255 C 
ATOM     28  H   UNL d   1      31.193 -16.455  -1.583  0.00  0.00     0.280 HD
ATOM     29  C   UNL d   1      28.778 -16.859  -0.129  0.00  0.00     0.150 C 
BRANCH  26  30
ATOM     30  C   UNL d   1      31.398 -18.106  -2.804  0.00  0.00     0.273 C 
BRANCH  30  31
ATOM     31  C   UNL d   1      31.208 -18.055  -4.300  0.00  0.00    -0.033 A 
ATOM     32  C   UNL d   1      31.607 -16.943  -5.056  0.00  0.00     0.009 A 
ATOM     33  C   UNL d   1      31.343 -16.895  -6.430  0.00  0.00     0.001 A 
ATOM     34  C   UNL d   1      30.794 -17.996  -7.085  0.00  0.00     0.000 A 
ATOM     35  C   UNL d   1      30.404 -19.105  -6.353  0.00  0.00     0.001 A 
ATOM     36  C   UNL d   1      30.544 -19.095  -4.971  0.00  0.00     0.009 A 
ENDBRANCH  30  31
ENDBRANCH  26  30
ENDBRANCH   4  23
BRANCH   1  37
ATOM     37  C   UNL d   1      22.359 -17.987  -0.822  0.00  0.00     0.293 C 
ATOM     38  O   UNL d   1      21.517 -17.090  -0.805  0.00  0.00    -0.259 OA
BRANCH  37  39
ATOM     39  O   UNL d   1      22.091 -19.321  -0.832  0.00  0.00    -0.323 OA
ATOM     40  C   UNL d   1      20.730 -19.679  -0.520  0.00  0.00     0.213 C 
ENDBRANCH  37  39
ENDBRANCH   1  37
TORSDOF 9
ENDMDL
MODEL 8
REMARK VINA RESULT:    -9.141      4.930      8.142
REMARK INTER + INTRA:         -15.012
REMARK INTER:                 -11.826
REMARK INTRA:                  -3.186
REMARK CONF_INDEPENDENT:        2.685
REMARK UNBOUND:                -3.186
REMARK  9 active torsions:
REMARK  status: ('A' for Active; 'I' for Inactive)
REMARK    1  A    between atoms: O_2  and  C_3 
REMARK    2  A    between atoms: C_3  and  C_5 
REMARK    3  A    between atoms: C_8  and  N_9 
REMARK    4  A    between atoms: N_12  and  C_13 
REMARK    5  A    between atoms: C_13  and  C_14 
REMARK    6  A    between atoms: C_22  and  N_23 
REMARK    7  A    between atoms: N_23  and  C_24 
REMARK    8  A    between atoms: C_24  and  N_26 
REMARK       I    between atoms: N_26  and  C_27 
REMARK    9  A    between atoms: C_27  and  C_29 
ROOT
ATOM      1  C   UNL d   1      23.140 -17.826  -0.768  0.00  0.00     0.041 A 
ATOM      2  C   UNL d   1      23.896 -18.601   0.077  0.00  0.00     0.020 A 
ATOM      3  C   UNL d   1      25.215 -18.191   0.395  0.00  0.00     0.033 A 
ATOM      4  C   UNL d   1      25.842 -17.009  -0.129  0.00  0.00     0.057 A 
ATOM      5  C   UNL d   1      25.035 -16.198  -0.979  0.00  0.00     0.062 A 
ATOM      6  C   UNL d   1      23.746 -16.689  -1.270  0.00  0.00     0.049 A 
ENDROOT
BRANCH   5   7
ATOM      7  N   UNL d   1      25.455 -14.921  -1.558  0.00  0.00    -0.331 N 
ATOM      8  H   UNL d   1      25.533 -14.195  -0.880  0.00  0.00     0.168 HD
BRANCH   7   9
ATOM      9  C   UNL d   1      25.600 -14.564  -2.934  0.00  0.00     0.179 C 
ATOM     10  S   UNL d   1      24.410 -13.911  -3.937  0.00  0.00    -0.040 SA
BRANCH   9  11
ATOM     11  N   UNL d   1      26.881 -14.804  -3.482  0.00  0.00    -0.299 N 
ATOM     12  C   UNL d   1      27.059 -15.243  -4.813  0.00  0.00     0.257 C 
ATOM     13  O   UNL d   1      26.186 -15.569  -5.614  0.00  0.00    -0.267 OA
ATOM     14  H   UNL d   1      27.715 -14.581  -2.966  0.00  0.00     0.171 HD
BRANCH  12  15
ATOM     15  C   UNL d   1      28.383 -15.428  -5.393  0.00  0.00     0.033 A 
ATOM     16  C   UNL d   1      29.257 -16.283  -4.689  0.00  0.00     0.023 A 
ATOM     17  C   UNL d   1      30.626 -16.237  -4.929  0.00  0.00    -0.061 A 
ATOM     18  C   UNL d   1      31.603 -16.933  -4.028  0.00  0.00     0.048 C 
ATOM     19  C   UNL d   1      31.093 -15.423  -5.960  0.00  0.00     0.013 A 
ATOM     20  C   UNL d   1      30.227 -14.558  -6.646  0.00  0.00    -0.061 A 
ATOM     21  C   UNL d   1      30.772 -13.578  -7.634  0.00  0.00     0.048 C 
ATOM     22  C   UNL d   1      28.863 -14.542  -6.344  0.00  0.00     0.023 A 
ENDBRANCH  12  15
ENDBRANCH   9  11
ENDBRANCH   7   9
ENDBRANCH   5   7
BRANCH   4  23
ATOM     23  N   UNL d   1      27.177 -16.796   0.209  0.00  0.00    -0.376 N 
ATOM     24  C   UNL d   1      27.679 -15.947   1.286  0.00  0.00     0.150 C 
ATOM     25  C   UNL d   1      28.435 -14.723   0.702  0.00  0.00     0.255 C 
ATOM     26  N   UNL d   1      29.508 -15.123  -0.323  0.00  0.00    -0.064 N 
ATOM     27  C   UNL d   1      28.975 -16.187  -1.317  0.00  0.00     0.255 C 
ATOM     28  H   UNL d   1      30.294 -15.546   0.188  0.00  0.00     0.280 HD
ATOM     29  C   UNL d   1      28.248 -17.353  -0.626  0.00  0.00     0.150 C 
BRANCH  26  30
ATOM     30  C   UNL d   1      30.089 -13.884  -1.019  0.00  0.00     0.273 C 
BRANCH  30  31
ATOM     31  C   UNL d   1      29.101 -13.071  -1.818  0.00  0.00    -0.033 A 
ATOM     32  C   UNL d   1      27.938 -12.545  -1.235  0.00  0.00     0.009 A 
ATOM     33  C   UNL d   1      27.002 -11.863  -2.022  0.00  0.00     0.001 A 
ATOM     34  C   UNL d   1      27.269 -11.590  -3.363  0.00  0.00     0.000 A 
ATOM     35  C   UNL d   1      28.418 -12.094  -3.950  0.00  0.00     0.001 A 
ATOM     36  C   UNL d   1      29.278 -12.885  -3.198  0.00  0.00     0.009 A 
ENDBRANCH  30  31
ENDBRANCH  26  30
ENDBRANCH   4  23
BRANCH   1  37
ATOM     37  C   UNL d   1      21.678 -18.021  -1.024  0.00  0.00     0.293 C 
ATOM     38  O   UNL d   1      20.933 -17.072  -1.268  0.00  0.00    -0.259 OA
BRANCH  37  39
ATOM     39  O   UNL d   1      21.307 -19.329  -1.000  0.00  0.00    -0.323 OA
ATOM     40  C   UNL d   1      20.652 -19.762   0.209  0.00  0.00     0.213 C 
ENDBRANCH  37  39
ENDBRANCH   1  37
TORSDOF 9
ENDMDL
MODEL 9
REMARK VINA RESULT:    -8.883      5.381      8.468
REMARK INTER + INTRA:         -14.522
REMARK INTER:                 -11.568
REMARK INTRA:                  -2.955
REMARK CONF_INDEPENDENT:        2.685
REMARK UNBOUND:                -2.955
REMARK  9 active torsions:
REMARK  status: ('A' for Active; 'I' for Inactive)
REMARK    1  A    between atoms: O_2  and  C_3 
REMARK    2  A    between atoms: C_3  and  C_5 
REMARK    3  A    between atoms: C_8  and  N_9 
REMARK    4  A    between atoms: N_12  and  C_13 
REMARK    5  A    between atoms: C_13  and  C_14 
REMARK    6  A    between atoms: C_22  and  N_23 
REMARK    7  A    between atoms: N_23  and  C_24 
REMARK    8  A    between atoms: C_24  and  N_26 
REMARK       I    between atoms: N_26  and  C_27 
REMARK    9  A    between atoms: C_27  and  C_29 
ROOT
ATOM      1  C   UNL d   1      23.154 -17.860  -0.833  0.00  0.00     0.041 A 
ATOM      2  C   UNL d   1      23.914 -18.687  -0.044  0.00  0.00     0.020 A 
ATOM      3  C   UNL d   1      25.241 -18.309   0.278  0.00  0.00     0.033 A 
ATOM      4  C   UNL d   1      25.873 -17.105  -0.189  0.00  0.00     0.057 A 
ATOM      5  C   UNL d   1      25.062 -16.239  -0.980  0.00  0.00     0.062 A 
ATOM      6  C   UNL d   1      23.764 -16.702  -1.280  0.00  0.00     0.049 A 
ENDROOT
BRANCH   5   7
ATOM      7  N   UNL d   1      25.487 -14.936  -1.493  0.00  0.00    -0.331 N 
ATOM      8  H   UNL d   1      25.452 -14.218  -0.803  0.00  0.00     0.168 HD
BRANCH   7   9
ATOM      9  C   UNL d   1      25.774 -14.551  -2.838  0.00  0.00     0.179 C 
ATOM     10  S   UNL d   1      24.699 -13.860  -3.940  0.00  0.00    -0.040 SA
BRANCH   9  11
ATOM     11  N   UNL d   1      27.101 -14.798  -3.260  0.00  0.00    -0.299 N 
ATOM     12  C   UNL d   1      27.404 -15.233  -4.570  0.00  0.00     0.257 C 
ATOM     13  O   UNL d   1      26.612 -15.550  -5.453  0.00  0.00    -0.267 OA
ATOM     14  H   UNL d   1      27.882 -14.583  -2.665  0.00  0.00     0.171 HD
BRANCH  12  15
ATOM     15  C   UNL d   1      28.777 -15.425  -5.019  0.00  0.00     0.033 A 
ATOM     16  C   UNL d   1      29.313 -14.408  -5.836  0.00  0.00     0.023 A 
ATOM     17  C   UNL d   1      30.440 -14.652  -6.614  0.00  0.00    -0.061 A 
ATOM     18  C   UNL d   1      30.880 -13.693  -7.680  0.00  0.00     0.048 C 
ATOM     19  C   UNL d   1      31.091 -15.877  -6.471  0.00  0.00     0.013 A 
ATOM     20  C   UNL d   1      30.547 -16.897  -5.675  0.00  0.00    -0.061 A 
ATOM     21  C   UNL d   1      31.172 -18.254  -5.664  0.00  0.00     0.048 C 
ATOM     22  C   UNL d   1      29.367 -16.678  -4.961  0.00  0.00     0.023 A 
ENDBRANCH  12  15
ENDBRANCH   9  11
ENDBRANCH   7   9
ENDBRANCH   5   7
BRANCH   4  23
ATOM     23  N   UNL d   1      27.214 -16.924   0.142  0.00  0.00    -0.376 N 
ATOM     24  C   UNL d   1      27.764 -15.898   1.024  0.00  0.00     0.150 C 
ATOM     25  C   UNL d   1      28.627 -14.893   0.214  0.00  0.00     0.255 C 
ATOM     26  N   UNL d   1      29.683 -15.589  -0.660  0.00  0.00    -0.064 N 
ATOM     27  C   UNL d   1      29.082 -16.802  -1.416  0.00  0.00     0.255 C 
ATOM     28  H   UNL d   1      30.422 -15.947  -0.042  0.00  0.00     0.280 HD
ATOM     29  C   UNL d   1      28.251 -17.729  -0.513  0.00  0.00     0.150 C 
BRANCH  26  30
ATOM     30  C   UNL d   1      30.374 -14.581  -1.589  0.00  0.00     0.273 C 
BRANCH  30  31
ATOM     31  C   UNL d   1      31.595 -15.099  -2.309  0.00  0.00    -0.033 A 
ATOM     32  C   UNL d   1      32.309 -16.213  -1.840  0.00  0.00     0.009 A 
ATOM     33  C   UNL d   1      33.483 -16.618  -2.487  0.00  0.00     0.001 A 
ATOM     34  C   UNL d   1      33.889 -16.003  -3.669  0.00  0.00     0.000 A 
ATOM     35  C   UNL d   1      33.189 -14.909  -4.149  0.00  0.00     0.001 A 
ATOM     36  C   UNL d   1      32.102 -14.426  -3.431  0.00  0.00     0.009 A 
ENDBRANCH  30  31
ENDBRANCH  26  30
ENDBRANCH   4  23
BRANCH   1  37
ATOM     37  C   UNL d   1      21.686 -18.026  -1.080  0.00  0.00     0.293 C 
ATOM     38  O   UNL d   1      20.949 -17.059  -1.262  0.00  0.00    -0.259 OA
BRANCH  37  39
ATOM     39  O   UNL d   1      21.302 -19.330  -1.119  0.00  0.00    -0.323 OA
ATOM     40  C   UNL d   1      20.528 -19.780   0.011  0.00  0.00     0.213 C 
ENDBRANCH  37  39
ENDBRANCH   1  37
TORSDOF 9
ENDMDL
