MODEL 1
REMARK VINA RESULT:    -9.150      0.000      0.000
REMARK INTER + INTRA:         -11.024
REMARK INTER:                 -10.343
REMARK INTRA:                  -0.680
REMARK CONF_INDEPENDENT:        1.193
REMARK UNBOUND:                -0.680
REMARK  4 active torsions:
REMARK  status: ('A' for Active; 'I' for Inactive)
REMARK    1  A    between atoms: C_7  and  C_8 
REMARK    2  A    between atoms: C_8  and  N_9 
REMARK    3  A    between atoms: C_13  and  C_14 
REMARK    4  A    between atoms: C_17  and  O_18 
ROOT
ATOM      1  C   UNL d   1      25.172 -14.993  -2.375  0.00  0.00     0.175 C 
ENDROOT
BRANCH   1   2
ATOM      2  C   UNL d   1      25.990 -14.300  -3.507  0.00  0.00     0.033 C 
ATOM      3  N   UNL d   1      25.602 -13.036  -3.958  0.00  0.00    -0.344 N 
ATOM      4  C   UNL d   1      26.201 -12.515  -5.023  0.00  0.00     0.114 C 
ATOM      5  H   UNL d   1      24.893 -12.495  -3.468  0.00  0.00     0.167 HD
ATOM      6  C   UNL d   1      25.994 -11.065  -5.307  0.00  0.00     0.050 C 
ATOM      7  N   UNL d   1      27.067 -13.188  -5.776  0.00  0.00    -0.274 N 
ATOM      8  C   UNL d   1      26.833 -10.461  -6.163  0.00  0.00     0.012 C 
ATOM      9  C   UNL d   1      27.683 -11.267  -7.013  0.00  0.00    -0.046 C 
ATOM     10  C   UNL d   1      28.417 -10.628  -8.143  0.00  0.00     0.049 C 
ATOM     11  C   UNL d   1      27.736 -12.591  -6.829  0.00  0.00     0.108 C 
ATOM     12  C   UNL d   1      27.386 -14.529  -5.512  0.00  0.00     0.255 C 
ATOM     13  C   UNL d   1      26.805 -15.021  -4.295  0.00  0.00     0.101 C 
ATOM     14  O   UNL d   1      28.120 -15.200  -6.231  0.00  0.00    -0.268 OA
ENDBRANCH   1   2
BRANCH   1  15
ATOM     15  N   UNL d   1      25.995 -15.601  -1.333  0.00  0.00    -0.399 N 
ATOM     16  C   UNL d   1      27.441 -15.762  -1.419  0.00  0.00     0.118 C 
ATOM     17  C   UNL d   1      27.651 -17.130  -0.776  0.00  0.00     0.022 C 
ATOM     18  C   UNL d   1      26.633 -17.129   0.356  0.00  0.00     0.031 C 
ATOM     19  C   UNL d   1      25.432 -16.296  -0.155  0.00  0.00     0.112 C 
BRANCH  19  20
ATOM     20  C   UNL d   1      24.201 -17.187  -0.362  0.00  0.00    -0.036 C 
ATOM     21  C   UNL d   1      24.234 -18.574  -0.283  0.00  0.00     0.012 C 
ATOM     22  C   UNL d   1      23.110 -19.331  -0.697  0.00  0.00     0.037 C 
ATOM     23  C   UNL d   1      21.898 -18.714  -1.013  0.00  0.00     0.065 C 
ATOM     24  C   UNL d   1      21.780 -17.370  -0.895  0.00  0.00     0.037 C 
ATOM     25  C   UNL d   1      22.946 -16.682  -0.675  0.00  0.00     0.012 C 
BRANCH  23  26
ATOM     26  O   UNL d   1      20.799 -19.348  -1.486  0.00  0.00    -0.361 OA
ATOM     27  H   UNL d   1      20.274 -18.713  -1.994  0.00  0.00     0.217 HD
ENDBRANCH  23  26
ENDBRANCH  19  20
ENDBRANCH   1  15
TORSDOF 4
ENDMDL
MODEL 2
REMARK VINA RESULT:    -9.084      3.086      8.977
REMARK INTER + INTRA:         -11.159
REMARK INTER:                 -10.277
REMARK INTRA:                  -0.882
REMARK CONF_INDEPENDENT:        1.193
REMARK UNBOUND:                -0.882
REMARK  4 active torsions:
REMARK  status: ('A' for Active; 'I' for Inactive)
REMARK    1  A    between atoms: C_7  and  C_8 
REMARK    2  A    between atoms: C_8  and  N_9 
REMARK    3  A    between atoms: C_13  and  C_14 
REMARK    4  A    between atoms: C_17  and  O_18 
ROOT
ATOM      1  C   UNL d   1      23.307 -16.759  -0.534  0.00  0.00     0.175 C 
ENDROOT
BRANCH   1   2
ATOM      2  C   UNL d   1      22.109 -17.748  -0.391  0.00  0.00     0.033 C 
ATOM      3  N   UNL d   1      21.795 -18.267   0.867  0.00  0.00    -0.344 N 
ATOM      4  C   UNL d   1      20.877 -19.223   0.964  0.00  0.00     0.114 C 
ATOM      5  H   UNL d   1      22.232 -17.906   1.712  0.00  0.00     0.167 HD
ATOM      6  C   UNL d   1      20.343 -19.550   2.317  0.00  0.00     0.050 C 
ATOM      7  N   UNL d   1      20.327 -19.816  -0.092  0.00  0.00    -0.274 N 
ATOM      8  C   UNL d   1      19.207 -20.261   2.395  0.00  0.00     0.012 C 
ATOM      9  C   UNL d   1      18.719 -20.952   1.221  0.00  0.00    -0.046 C 
ATOM     10  C   UNL d   1      17.620 -21.950   1.355  0.00  0.00     0.049 C 
ATOM     11  C   UNL d   1      19.316 -20.750   0.041  0.00  0.00     0.108 C 
ATOM     12  C   UNL d   1      20.711 -19.492  -1.403  0.00  0.00     0.255 C 
ATOM     13  C   UNL d   1      21.620 -18.383  -1.469  0.00  0.00     0.101 C 
ATOM     14  O   UNL d   1      20.280 -20.073  -2.394  0.00  0.00    -0.268 OA
ENDBRANCH   1   2
BRANCH   1  15
ATOM     15  N   UNL d   1      24.617 -17.402  -0.494  0.00  0.00    -0.399 N 
ATOM     16  C   UNL d   1      25.131 -18.147   0.648  0.00  0.00     0.118 C 
ATOM     17  C   UNL d   1      26.604 -17.748   0.656  0.00  0.00     0.022 C 
ATOM     18  C   UNL d   1      26.942 -17.682  -0.826  0.00  0.00     0.031 C 
ATOM     19  C   UNL d   1      25.650 -17.207  -1.535  0.00  0.00     0.112 C 
BRANCH  19  20
ATOM     20  C   UNL d   1      25.834 -15.800  -2.116  0.00  0.00    -0.036 C 
ATOM     21  C   UNL d   1      26.312 -14.721  -1.382  0.00  0.00     0.012 C 
ATOM     22  C   UNL d   1      26.249 -13.414  -1.926  0.00  0.00     0.037 C 
ATOM     23  C   UNL d   1      25.886 -13.201  -3.257  0.00  0.00     0.065 C 
ATOM     24  C   UNL d   1      25.617 -14.260  -4.055  0.00  0.00     0.037 C 
ATOM     25  C   UNL d   1      25.511 -15.475  -3.427  0.00  0.00     0.012 C 
BRANCH  23  26
ATOM     26  O   UNL d   1      25.728 -11.988  -3.839  0.00  0.00    -0.361 OA
ATOM     27  H   UNL d   1      24.782 -11.807  -3.917  0.00  0.00     0.217 HD
ENDBRANCH  23  26
ENDBRANCH  19  20
ENDBRANCH   1  15
TORSDOF 4
ENDMDL
MODEL 3
REMARK VINA RESULT:    -8.919      1.463      2.114
REMARK INTER + INTRA:         -10.968
REMARK INTER:                 -10.112
REMARK INTRA:                  -0.855
REMARK CONF_INDEPENDENT:        1.193
REMARK UNBOUND:                -0.855
REMARK  4 active torsions:
REMARK  status: ('A' for Active; 'I' for Inactive)
REMARK    1  A    between atoms: C_7  and  C_8 
REMARK    2  A    between atoms: C_8  and  N_9 
REMARK    3  A    between atoms: C_13  and  C_14 
REMARK    4  A    between atoms: C_17  and  O_18 
ROOT
ATOM      1  C   UNL d   1      26.234 -14.750   0.089  0.00  0.00     0.175 C 
ENDROOT
BRANCH   1   2
ATOM      2  C   UNL d   1      26.262 -14.192  -1.367  0.00  0.00     0.033 C 
ATOM      3  N   UNL d   1      26.338 -12.812  -1.571  0.00  0.00    -0.344 N 
ATOM      4  C   UNL d   1      26.206 -12.331  -2.802  0.00  0.00     0.114 C 
ATOM      5  H   UNL d   1      26.523 -12.173  -0.801  0.00  0.00     0.167 HD
ATOM      6  C   UNL d   1      26.585 -10.908  -3.045  0.00  0.00     0.050 C 
ATOM      7  N   UNL d   1      25.870 -13.081  -3.848  0.00  0.00    -0.274 N 
ATOM      8  C   UNL d   1      26.769 -10.509  -4.313  0.00  0.00     0.012 C 
ATOM      9  C   UNL d   1      26.295 -11.343  -5.397  0.00  0.00    -0.046 C 
ATOM     10  C   UNL d   1      26.252 -10.798  -6.784  0.00  0.00     0.049 C 
ATOM     11  C   UNL d   1      25.821 -12.565  -5.130  0.00  0.00     0.108 C 
ATOM     12  C   UNL d   1      25.592 -14.450  -3.714  0.00  0.00     0.255 C 
ATOM     13  C   UNL d   1      25.851 -14.954  -2.394  0.00  0.00     0.101 C 
ATOM     14  O   UNL d   1      25.205 -15.153  -4.642  0.00  0.00    -0.268 OA
ENDBRANCH   1   2
BRANCH   1  15
ATOM     15  N   UNL d   1      26.812 -16.083   0.227  0.00  0.00    -0.399 N 
ATOM     16  C   UNL d   1      28.174 -16.431  -0.157  0.00  0.00     0.118 C 
ATOM     17  C   UNL d   1      27.995 -17.825  -0.752  0.00  0.00     0.022 C 
ATOM     18  C   UNL d   1      26.941 -18.444   0.155  0.00  0.00     0.031 C 
ATOM     19  C   UNL d   1      26.020 -17.278   0.591  0.00  0.00     0.112 C 
BRANCH  19  20
ATOM     20  C   UNL d   1      24.622 -17.432  -0.019  0.00  0.00    -0.036 C 
ATOM     21  C   UNL d   1      23.860 -16.364  -0.478  0.00  0.00     0.012 C 
ATOM     22  C   UNL d   1      22.502 -16.563  -0.826  0.00  0.00     0.037 C 
ATOM     23  C   UNL d   1      21.953 -17.845  -0.895  0.00  0.00     0.065 C 
ATOM     24  C   UNL d   1      22.736 -18.922  -0.654  0.00  0.00     0.037 C 
ATOM     25  C   UNL d   1      23.981 -18.658  -0.142  0.00  0.00     0.012 C 
BRANCH  23  26
ATOM     26  O   UNL d   1      20.652 -18.125  -1.146  0.00  0.00    -0.361 OA
ATOM     27  H   UNL d   1      20.303 -17.450  -1.745  0.00  0.00     0.217 HD
ENDBRANCH  23  26
ENDBRANCH  19  20
ENDBRANCH   1  15
TORSDOF 4
ENDMDL
MODEL 4
REMARK VINA RESULT:    -8.701      1.316      1.977
REMARK INTER + INTRA:         -10.639
REMARK INTER:                  -9.895
REMARK INTRA:                  -0.744
REMARK CONF_INDEPENDENT:        1.193
REMARK UNBOUND:                -0.744
REMARK  4 active torsions:
REMARK  status: ('A' for Active; 'I' for Inactive)
REMARK    1  A    between atoms: C_7  and  C_8 
REMARK    2  A    between atoms: C_8  and  N_9 
REMARK    3  A    between atoms: C_13  and  C_14 
REMARK    4  A    between atoms: C_17  and  O_18 
ROOT
ATOM      1  C   UNL d   1      24.907 -14.950  -2.655  0.00  0.00     0.175 C 
ENDROOT
BRANCH   1   2
ATOM      2  C   UNL d   1      25.611 -14.250  -3.858  0.00  0.00     0.033 C 
ATOM      3  N   UNL d   1      26.747 -14.834  -4.422  0.00  0.00    -0.344 N 
ATOM      4  C   UNL d   1      27.433 -14.163  -5.341  0.00  0.00     0.114 C 
ATOM      5  H   UNL d   1      27.040 -15.775  -4.167  0.00  0.00     0.167 HD
ATOM      6  C   UNL d   1      28.450 -14.906  -6.141  0.00  0.00     0.050 C 
ATOM      7  N   UNL d   1      27.177 -12.899  -5.665  0.00  0.00    -0.274 N 
ATOM      8  C   UNL d   1      28.905 -14.340  -7.270  0.00  0.00     0.012 C 
ATOM      9  C   UNL d   1      28.660 -12.934  -7.508  0.00  0.00    -0.046 C 
ATOM     10  C   UNL d   1      29.379 -12.236  -8.613  0.00  0.00     0.049 C 
ATOM     11  C   UNL d   1      27.855 -12.255  -6.683  0.00  0.00     0.108 C 
ATOM     12  C   UNL d   1      26.169 -12.163  -5.022  0.00  0.00     0.255 C 
ATOM     13  C   UNL d   1      25.382 -12.952  -4.117  0.00  0.00     0.101 C 
ATOM     14  O   UNL d   1      25.959 -10.975  -5.242  0.00  0.00    -0.268 OA
ENDBRANCH   1   2
BRANCH   1  15
ATOM     15  N   UNL d   1      25.826 -15.447  -1.635  0.00  0.00    -0.399 N 
ATOM     16  C   UNL d   1      27.272 -15.516  -1.797  0.00  0.00     0.118 C 
ATOM     17  C   UNL d   1      27.612 -16.832  -1.103  0.00  0.00     0.022 C 
ATOM     18  C   UNL d   1      26.660 -16.840   0.085  0.00  0.00     0.031 C 
ATOM     19  C   UNL d   1      25.377 -16.117  -0.395  0.00  0.00     0.112 C 
BRANCH  19  20
ATOM     20  C   UNL d   1      24.202 -17.098  -0.488  0.00  0.00    -0.036 C 
ATOM     21  C   UNL d   1      24.332 -18.471  -0.323  0.00  0.00     0.012 C 
ATOM     22  C   UNL d   1      23.245 -19.325  -0.636  0.00  0.00     0.037 C 
ATOM     23  C   UNL d   1      21.982 -18.810  -0.933  0.00  0.00     0.065 C 
ATOM     24  C   UNL d   1      21.779 -17.472  -0.895  0.00  0.00     0.037 C 
ATOM     25  C   UNL d   1      22.903 -16.697  -0.773  0.00  0.00     0.012 C 
BRANCH  23  26
ATOM     26  O   UNL d   1      20.909 -19.544  -1.314  0.00  0.00    -0.361 OA
ATOM     27  H   UNL d   1      20.190 -18.939  -1.543  0.00  0.00     0.217 HD
ENDBRANCH  23  26
ENDBRANCH  19  20
ENDBRANCH   1  15
TORSDOF 4
ENDMDL
MODEL 5
REMARK VINA RESULT:    -8.531      4.078      6.870
REMARK INTER + INTRA:         -10.537
REMARK INTER:                  -9.724
REMARK INTRA:                  -0.813
REMARK CONF_INDEPENDENT:        1.193
REMARK UNBOUND:                -0.813
REMARK  4 active torsions:
REMARK  status: ('A' for Active; 'I' for Inactive)
REMARK    1  A    between atoms: C_7  and  C_8 
REMARK    2  A    between atoms: C_8  and  N_9 
REMARK    3  A    between atoms: C_13  and  C_14 
REMARK    4  A    between atoms: C_17  and  O_18 
ROOT
ATOM      1  C   UNL d   1      27.686 -15.723  -0.475  0.00  0.00     0.175 C 
ENDROOT
BRANCH   1   2
ATOM      2  C   UNL d   1      27.719 -14.704   0.704  0.00  0.00     0.033 C 
ATOM      3  N   UNL d   1      28.287 -15.082   1.923  0.00  0.00    -0.344 N 
ATOM      4  C   UNL d   1      28.177 -14.272   2.969  0.00  0.00     0.114 C 
ATOM      5  H   UNL d   1      28.811 -15.950   2.014  0.00  0.00     0.167 HD
ATOM      6  C   UNL d   1      29.032 -14.542   4.161  0.00  0.00     0.050 C 
ATOM      7  N   UNL d   1      27.434 -13.169   2.963  0.00  0.00    -0.274 N 
ATOM      8  C   UNL d   1      29.173 -13.568   5.074  0.00  0.00     0.012 C 
ATOM      9  C   UNL d   1      28.267 -12.440   5.056  0.00  0.00    -0.046 C 
ATOM     10  C   UNL d   1      28.239 -11.496   6.209  0.00  0.00     0.049 C 
ATOM     11  C   UNL d   1      27.404 -12.303   4.042  0.00  0.00     0.108 C 
ATOM     12  C   UNL d   1      26.675 -12.797   1.843  0.00  0.00     0.255 C 
ATOM     13  C   UNL d   1      26.905 -13.634   0.700  0.00  0.00     0.101 C 
ATOM     14  O   UNL d   1      25.920 -11.829   1.831  0.00  0.00    -0.268 OA
ENDBRANCH   1   2
BRANCH   1  15
ATOM     15  N   UNL d   1      26.969 -15.248  -1.654  0.00  0.00    -0.399 N 
ATOM     16  C   UNL d   1      27.114 -13.912  -2.220  0.00  0.00     0.118 C 
ATOM     17  C   UNL d   1      25.684 -13.581  -2.635  0.00  0.00     0.022 C 
ATOM     18  C   UNL d   1      25.166 -14.917  -3.149  0.00  0.00     0.031 C 
ATOM     19  C   UNL d   1      25.869 -16.001  -2.295  0.00  0.00     0.112 C 
BRANCH  19  20
ATOM     20  C   UNL d   1      24.862 -16.719  -1.389  0.00  0.00    -0.036 C 
ATOM     21  C   UNL d   1      25.173 -17.840  -0.629  0.00  0.00     0.012 C 
ATOM     22  C   UNL d   1      24.138 -18.568   0.009  0.00  0.00     0.037 C 
ATOM     23  C   UNL d   1      22.830 -18.085   0.047  0.00  0.00     0.065 C 
ATOM     24  C   UNL d   1      22.542 -16.885  -0.510  0.00  0.00     0.037 C 
ATOM     25  C   UNL d   1      23.536 -16.323  -1.270  0.00  0.00     0.012 C 
BRANCH  23  26
ATOM     26  O   UNL d   1      21.768 -18.746   0.568  0.00  0.00    -0.361 OA
ATOM     27  H   UNL d   1      21.983 -19.688   0.607  0.00  0.00     0.217 HD
ENDBRANCH  23  26
ENDBRANCH  19  20
ENDBRANCH   1  15
TORSDOF 4
ENDMDL
MODEL 6
REMARK VINA RESULT:    -8.434      4.973      7.932
REMARK INTER + INTRA:         -10.497
REMARK INTER:                  -9.627
REMARK INTRA:                  -0.870
REMARK CONF_INDEPENDENT:        1.193
REMARK UNBOUND:                -0.870
REMARK  4 active torsions:
REMARK  status: ('A' for Active; 'I' for Inactive)
REMARK    1  A    between atoms: C_7  and  C_8 
REMARK    2  A    between atoms: C_8  and  N_9 
REMARK    3  A    between atoms: C_13  and  C_14 
REMARK    4  A    between atoms: C_17  and  O_18 
ROOT
ATOM      1  C   UNL d   1      27.030 -14.452   0.742  0.00  0.00     0.175 C 
ENDROOT
BRANCH   1   2
ATOM      2  C   UNL d   1      27.490 -13.833   2.098  0.00  0.00     0.033 C 
ATOM      3  N   UNL d   1      27.780 -14.676   3.174  0.00  0.00    -0.344 N 
ATOM      4  C   UNL d   1      28.021 -14.145   4.367  0.00  0.00     0.114 C 
ATOM      5  H   UNL d   1      27.842 -15.684   3.053  0.00  0.00     0.167 HD
ATOM      6  C   UNL d   1      28.616 -15.020   5.419  0.00  0.00     0.050 C 
ATOM      7  N   UNL d   1      27.870 -12.850   4.634  0.00  0.00    -0.274 N 
ATOM      8  C   UNL d   1      29.160 -14.434   6.497  0.00  0.00     0.012 C 
ATOM      9  C   UNL d   1      28.876 -13.041   6.768  0.00  0.00    -0.046 C 
ATOM     10  C   UNL d   1      29.249 -12.454   8.087  0.00  0.00     0.049 C 
ATOM     11  C   UNL d   1      28.207 -12.315   5.864  0.00  0.00     0.108 C 
ATOM     12  C   UNL d   1      27.405 -11.947   3.666  0.00  0.00     0.255 C 
ATOM     13  C   UNL d   1      27.261 -12.536   2.365  0.00  0.00     0.101 C 
ATOM     14  O   UNL d   1      27.182 -10.764   3.901  0.00  0.00    -0.268 OA
ENDBRANCH   1   2
BRANCH   1  15
ATOM     15  N   UNL d   1      27.754 -15.662   0.365  0.00  0.00    -0.399 N 
ATOM     16  C   UNL d   1      29.083 -15.671  -0.233  0.00  0.00     0.118 C 
ATOM     17  C   UNL d   1      28.971 -16.803  -1.250  0.00  0.00     0.022 C 
ATOM     18  C   UNL d   1      28.112 -17.826  -0.520  0.00  0.00     0.031 C 
ATOM     19  C   UNL d   1      27.142 -17.009   0.368  0.00  0.00     0.112 C 
BRANCH  19  20
ATOM     20  C   UNL d   1      25.699 -17.148  -0.132  0.00  0.00    -0.036 C 
ATOM     21  C   UNL d   1      25.097 -16.249  -1.005  0.00  0.00     0.012 C 
ATOM     22  C   UNL d   1      23.703 -16.328  -1.247  0.00  0.00     0.037 C 
ATOM     23  C   UNL d   1      22.945 -17.400  -0.775  0.00  0.00     0.065 C 
ATOM     24  C   UNL d   1      23.553 -18.401  -0.096  0.00  0.00     0.037 C 
ATOM     25  C   UNL d   1      24.856 -18.177   0.267  0.00  0.00     0.012 C 
BRANCH  23  26
ATOM     26  O   UNL d   1      21.602 -17.520  -0.895  0.00  0.00    -0.361 OA
ATOM     27  H   UNL d   1      21.413 -18.167  -1.588  0.00  0.00     0.217 HD
ENDBRANCH  23  26
ENDBRANCH  19  20
ENDBRANCH   1  15
TORSDOF 4
ENDMDL
MODEL 7
REMARK VINA RESULT:    -8.328      4.639      8.255
REMARK INTER + INTRA:         -10.377
REMARK INTER:                  -9.521
REMARK INTRA:                  -0.856
REMARK CONF_INDEPENDENT:        1.193
REMARK UNBOUND:                -0.856
REMARK  4 active torsions:
REMARK  status: ('A' for Active; 'I' for Inactive)
REMARK    1  A    between atoms: C_7  and  C_8 
REMARK    2  A    between atoms: C_8  and  N_9 
REMARK    3  A    between atoms: C_13  and  C_14 
REMARK    4  A    between atoms: C_17  and  O_18 
ROOT
ATOM      1  C   UNL d   1      27.972 -14.817   0.204  0.00  0.00     0.175 C 
ENDROOT
BRANCH   1   2
ATOM      2  C   UNL d   1      28.056 -14.082   1.578  0.00  0.00     0.033 C 
ATOM      3  N   UNL d   1      28.269 -14.825   2.741  0.00  0.00    -0.344 N 
ATOM      4  C   UNL d   1      28.187 -14.221   3.921  0.00  0.00     0.114 C 
ATOM      5  H   UNL d   1      28.518 -15.811   2.700  0.00  0.00     0.167 HD
ATOM      6  C   UNL d   1      28.705 -14.943   5.119  0.00  0.00     0.050 C 
ATOM      7  N   UNL d   1      27.777 -12.964   4.071  0.00  0.00    -0.274 N 
ATOM      8  C   UNL d   1      28.929 -14.236   6.238  0.00  0.00     0.012 C 
ATOM      9  C   UNL d   1      28.374 -12.905   6.360  0.00  0.00    -0.046 C 
ATOM     10  C   UNL d   1      28.385 -12.219   7.684  0.00  0.00     0.049 C 
ATOM     11  C   UNL d   1      27.780 -12.338   5.304  0.00  0.00     0.108 C 
ATOM     12  C   UNL d   1      27.363 -12.188   2.976  0.00  0.00     0.255 C 
ATOM     13  C   UNL d   1      27.570 -12.837   1.713  0.00  0.00     0.101 C 
ATOM     14  O   UNL d   1      26.908 -11.055   3.089  0.00  0.00    -0.268 OA
ENDBRANCH   1   2
BRANCH   1  15
ATOM     15  N   UNL d   1      26.978 -15.885   0.160  0.00  0.00    -0.399 N 
ATOM     16  C   UNL d   1      27.030 -17.088   0.980  0.00  0.00     0.118 C 
ATOM     17  C   UNL d   1      26.541 -18.160   0.009  0.00  0.00     0.022 C 
ATOM     18  C   UNL d   1      25.454 -17.436  -0.772  0.00  0.00     0.031 C 
ATOM     19  C   UNL d   1      25.909 -15.958  -0.860  0.00  0.00     0.112 C 
BRANCH  19  20
ATOM     20  C   UNL d   1      26.262 -15.583  -2.304  0.00  0.00    -0.036 C 
ATOM     21  C   UNL d   1      25.348 -15.057  -3.208  0.00  0.00     0.012 C 
ATOM     22  C   UNL d   1      25.695 -14.941  -4.577  0.00  0.00     0.037 C 
ATOM     23  C   UNL d   1      27.001 -15.171  -5.014  0.00  0.00     0.065 C 
ATOM     24  C   UNL d   1      27.963 -15.483  -4.115  0.00  0.00     0.037 C 
ATOM     25  C   UNL d   1      27.529 -15.764  -2.844  0.00  0.00     0.012 C 
BRANCH  23  26
ATOM     26  O   UNL d   1      27.406 -15.155  -6.307  0.00  0.00    -0.361 OA
ATOM     27  H   UNL d   1      28.232 -14.656  -6.363  0.00  0.00     0.217 HD
ENDBRANCH  23  26
ENDBRANCH  19  20
ENDBRANCH   1  15
TORSDOF 4
ENDMDL
MODEL 8
REMARK VINA RESULT:    -7.879     11.001     14.789
REMARK INTER + INTRA:         -10.451
REMARK INTER:                  -9.073
REMARK INTRA:                  -1.378
REMARK CONF_INDEPENDENT:        1.193
REMARK UNBOUND:                -1.378
REMARK  4 active torsions:
REMARK  status: ('A' for Active; 'I' for Inactive)
REMARK    1  A    between atoms: C_7  and  C_8 
REMARK    2  A    between atoms: C_8  and  N_9 
REMARK    3  A    between atoms: C_13  and  C_14 
REMARK    4  A    between atoms: C_17  and  O_18 
ROOT
ATOM      1  C   UNL d   1      35.097 -21.820   2.742  0.00  0.00     0.175 C 
ENDROOT
BRANCH   1   2
ATOM      2  C   UNL d   1      35.456 -21.785   4.259  0.00  0.00     0.033 C 
ATOM      3  N   UNL d   1      34.926 -22.756   5.112  0.00  0.00    -0.344 N 
ATOM      4  C   UNL d   1      35.106 -22.637   6.423  0.00  0.00     0.114 C 
ATOM      5  H   UNL d   1      34.433 -23.568   4.746  0.00  0.00     0.167 HD
ATOM      6  C   UNL d   1      34.802 -23.817   7.284  0.00  0.00     0.050 C 
ATOM      7  N   UNL d   1      35.654 -21.566   6.990  0.00  0.00    -0.274 N 
ATOM      8  C   UNL d   1      35.280 -23.825   8.539  0.00  0.00     0.012 C 
ATOM      9  C   UNL d   1      35.779 -22.596   9.117  0.00  0.00    -0.046 C 
ATOM     10  C   UNL d   1      36.062 -22.529  10.580  0.00  0.00     0.049 C 
ATOM     11  C   UNL d   1      35.902 -21.507   8.349  0.00  0.00     0.108 C 
ATOM     12  C   UNL d   1      36.054 -20.454   6.232  0.00  0.00     0.255 C 
ATOM     13  C   UNL d   1      35.944 -20.664   4.817  0.00  0.00     0.101 C 
ATOM     14  O   UNL d   1      36.491 -19.422   6.731  0.00  0.00    -0.268 OA
ENDBRANCH   1   2
BRANCH   1  15
ATOM     15  N   UNL d   1      34.385 -20.636   2.272  0.00  0.00    -0.399 N 
ATOM     16  C   UNL d   1      35.035 -19.412   1.822  0.00  0.00     0.118 C 
ATOM     17  C   UNL d   1      34.111 -18.333   2.380  0.00  0.00     0.022 C 
ATOM     18  C   UNL d   1      32.730 -18.947   2.199  0.00  0.00     0.031 C 
ATOM     19  C   UNL d   1      32.919 -20.473   2.380  0.00  0.00     0.112 C 
BRANCH  19  20
ATOM     20  C   UNL d   1      32.231 -20.957   3.662  0.00  0.00    -0.036 C 
ATOM     21  C   UNL d   1      30.985 -21.573   3.681  0.00  0.00     0.012 C 
ATOM     22  C   UNL d   1      30.326 -21.794   4.916  0.00  0.00     0.037 C 
ATOM     23  C   UNL d   1      30.976 -21.576   6.132  0.00  0.00     0.065 C 
ATOM     24  C   UNL d   1      32.268 -21.173   6.138  0.00  0.00     0.037 C 
ATOM     25  C   UNL d   1      32.786 -20.798   4.925  0.00  0.00     0.012 C 
BRANCH  23  26
ATOM     26  O   UNL d   1      30.404 -21.689   7.354  0.00  0.00    -0.361 OA
ATOM     27  H   UNL d   1      30.022 -22.575   7.433  0.00  0.00     0.217 HD
ENDBRANCH  23  26
ENDBRANCH  19  20
ENDBRANCH   1  15
TORSDOF 4
ENDMDL
MODEL 9
REMARK VINA RESULT:    -7.800      2.935      6.846
REMARK INTER + INTRA:         -10.579
REMARK INTER:                  -8.993
REMARK INTRA:                  -1.586
REMARK CONF_INDEPENDENT:        1.193
REMARK UNBOUND:                -1.586
REMARK  4 active torsions:
REMARK  status: ('A' for Active; 'I' for Inactive)
REMARK    1  A    between atoms: C_7  and  C_8 
REMARK    2  A    between atoms: C_8  and  N_9 
REMARK    3  A    between atoms: C_13  and  C_14 
REMARK    4  A    between atoms: C_17  and  O_18 
ROOT
ATOM      1  C   UNL d   1      29.401 -15.178  -1.366  0.00  0.00     0.175 C 
ENDROOT
BRANCH   1   2
ATOM      2  C   UNL d   1      28.182 -16.123  -1.137  0.00  0.00     0.033 C 
ATOM      3  N   UNL d   1      26.887 -15.613  -1.254  0.00  0.00    -0.344 N 
ATOM      4  C   UNL d   1      25.856 -16.376  -0.910  0.00  0.00     0.114 C 
ATOM      5  H   UNL d   1      26.718 -14.682  -1.628  0.00  0.00     0.167 HD
ATOM      6  C   UNL d   1      24.490 -15.938  -1.318  0.00  0.00     0.050 C 
ATOM      7  N   UNL d   1      25.989 -17.564  -0.327  0.00  0.00    -0.274 N 
ATOM      8  C   UNL d   1      23.495 -16.838  -1.269  0.00  0.00     0.012 C 
ATOM      9  C   UNL d   1      23.687 -18.072  -0.539  0.00  0.00    -0.046 C 
ATOM     10  C   UNL d   1      22.518 -18.952  -0.254  0.00  0.00     0.049 C 
ATOM     11  C   UNL d   1      24.899 -18.370  -0.055  0.00  0.00     0.108 C 
ATOM     12  C   UNL d   1      27.250 -18.087   0.001  0.00  0.00     0.255 C 
ATOM     13  C   UNL d   1      28.338 -17.287  -0.484  0.00  0.00     0.101 C 
ATOM     14  O   UNL d   1      27.404 -19.143   0.607  0.00  0.00    -0.268 OA
ENDBRANCH   1   2
BRANCH   1  15
ATOM     15  N   UNL d   1      30.005 -15.295  -2.690  0.00  0.00    -0.399 N 
ATOM     16  C   UNL d   1      31.384 -14.938  -2.997  0.00  0.00     0.118 C 
ATOM     17  C   UNL d   1      31.252 -14.302  -4.378  0.00  0.00     0.022 C 
ATOM     18  C   UNL d   1      30.190 -15.165  -5.045  0.00  0.00     0.031 C 
ATOM     19  C   UNL d   1      29.232 -15.608  -3.911  0.00  0.00     0.112 C 
BRANCH  19  20
ATOM     20  C   UNL d   1      27.853 -14.959  -4.079  0.00  0.00    -0.036 C 
ATOM     21  C   UNL d   1      27.520 -13.714  -3.558  0.00  0.00     0.012 C 
ATOM     22  C   UNL d   1      26.171 -13.282  -3.571  0.00  0.00     0.037 C 
ATOM     23  C   UNL d   1      25.189 -13.996  -4.259  0.00  0.00     0.065 C 
ATOM     24  C   UNL d   1      25.531 -15.106  -4.953  0.00  0.00     0.037 C 
ATOM     25  C   UNL d   1      26.804 -15.575  -4.749  0.00  0.00     0.012 C 
BRANCH  23  26
ATOM     26  O   UNL d   1      23.867 -13.699  -4.264  0.00  0.00    -0.361 OA
ATOM     27  H   UNL d   1      23.667 -13.207  -5.072  0.00  0.00     0.217 HD
ENDBRANCH  23  26
ENDBRANCH  19  20
ENDBRANCH   1  15
TORSDOF 4
ENDMDL
