MODEL 1
REMARK VINA RESULT:    -8.583      0.000      0.000
REMARK INTER + INTRA:         -11.480
REMARK INTER:                 -10.373
REMARK INTRA:                  -1.107
REMARK CONF_INDEPENDENT:        1.790
REMARK UNBOUND:                -1.107
REMARK  6 active torsions:
REMARK  status: ('A' for Active; 'I' for Inactive)
REMARK    1  A    between atoms: O_2  and  C_3 
REMARK    2  A    between atoms: C_6  and  C_7 
REMARK       I    between atoms: C_7  and  N_9 
REMARK       I    between atoms: C_10  and  N_11 
REMARK       I    between atoms: C_10  and  N_19 
REMARK    3  A    between atoms: N_11  and  C_12 
REMARK    4  A    between atoms: C_12  and  C_13 
REMARK    5  A    between atoms: N_19  and  C_20 
REMARK    6  A    between atoms: C_29  and  O_30 
ROOT
ATOM      1  C   UNL d   1      28.585 -16.074  -1.679  0.00  0.00     0.294 C 
ATOM      2  O   UNL d   1      27.922 -17.076  -1.511  0.00  0.00    -0.265 OA
ATOM      3  N   UNL d   1      29.076 -15.145  -0.749  0.00  0.00    -0.023 NA
ATOM      4  C   UNL d   1      28.585 -15.018   0.467  0.00  0.00     0.704 C 
ATOM      5  N   UNL d   1      27.504 -15.673   1.023  0.00  0.00    -0.220 N 
ATOM      6  N   UNL d   1      29.108 -14.062   1.354  0.00  0.00    -0.190 N 
ATOM      7  H   UNL d   1      27.284 -15.458   1.985  0.00  0.00     0.178 HD
ATOM      8  H   UNL d   1      29.870 -13.506   0.979  0.00  0.00     0.184 HD
ENDROOT
BRANCH   5   9
ATOM      9  C   UNL d   1      27.078 -16.970   0.571  0.00  0.00     0.178 C 
BRANCH   9  10
ATOM     10  C   UNL d   1      25.698 -17.197   0.105  0.00  0.00    -0.022 C 
ATOM     11  C   UNL d   1      25.064 -18.432   0.230  0.00  0.00     0.012 C 
ATOM     12  C   UNL d   1      23.792 -18.575  -0.279  0.00  0.00     0.020 C 
ATOM     13  C   UNL d   1      23.247 -17.498  -0.958  0.00  0.00     0.116 C 
ATOM     14  N   UNL d   1      23.886 -16.335  -1.203  0.00  0.00    -0.273 NA
ATOM     15  C   UNL d   1      25.108 -16.213  -0.672  0.00  0.00     0.124 C 
ENDBRANCH   9  10
ENDBRANCH   5   9
BRANCH   6  16
ATOM     16  C   UNL d   1      29.104 -14.042   2.789  0.00  0.00     0.055 A 
ATOM     17  C   UNL d   1      27.960 -13.579   3.481  0.00  0.00     0.031 A 
ATOM     18  C   UNL d   1      27.907 -13.550   4.892  0.00  0.00     0.009 A 
ATOM     19  C   UNL d   1      28.954 -14.070   5.650  0.00  0.00    -0.061 A 
ATOM     20  C   UNL d   1      28.885 -14.203   7.144  0.00  0.00     0.048 C 
ATOM     21  C   UNL d   1      30.093 -14.507   4.983  0.00  0.00     0.015 A 
ATOM     22  C   UNL d   1      30.199 -14.450   3.580  0.00  0.00    -0.034 A 
ATOM     23  C   UNL d   1      31.531 -14.820   3.010  0.00  0.00     0.050 C 
ENDBRANCH   6  16
BRANCH   1  24
ATOM     24  C   UNL d   1      28.948 -16.101  -3.087  0.00  0.00     0.037 A 
ATOM     25  C   UNL d   1      30.253 -16.536  -3.437  0.00  0.00     0.020 A 
ATOM     26  C   UNL d   1      30.718 -16.418  -4.734  0.00  0.00     0.040 A 
ATOM     27  C   UNL d   1      29.849 -15.966  -5.736  0.00  0.00     0.101 A 
ATOM     28  C   UNL d   1      28.531 -15.562  -5.362  0.00  0.00     0.102 A 
ATOM     29  C   UNL d   1      28.103 -15.622  -4.037  0.00  0.00     0.056 A 
BRANCH  27  30
ATOM     30  O   UNL d   1      30.343 -16.263  -6.984  0.00  0.00    -0.353 OA
ATOM     31  C   UNL d   1      31.054 -17.464  -7.244  0.00  0.00     0.210 C 
ENDBRANCH  27  30
BRANCH  28  32
ATOM     32  O   UNL d   1      27.452 -15.118  -6.078  0.00  0.00    -0.353 OA
ATOM     33  C   UNL d   1      26.250 -15.200  -5.392  0.00  0.00     0.210 C 
ENDBRANCH  28  32
ENDBRANCH   1  24
TORSDOF 6
ENDMDL
MODEL 2
REMARK VINA RESULT:    -8.304      2.790      8.134
REMARK INTER + INTRA:         -11.163
REMARK INTER:                 -10.094
REMARK INTRA:                  -1.069
REMARK CONF_INDEPENDENT:        1.790
REMARK UNBOUND:                -1.069
REMARK  6 active torsions:
REMARK  status: ('A' for Active; 'I' for Inactive)
REMARK    1  A    between atoms: O_2  and  C_3 
REMARK    2  A    between atoms: C_6  and  C_7 
REMARK       I    between atoms: C_7  and  N_9 
REMARK       I    between atoms: C_10  and  N_11 
REMARK       I    between atoms: C_10  and  N_19 
REMARK    3  A    between atoms: N_11  and  C_12 
REMARK    4  A    between atoms: C_12  and  C_13 
REMARK    5  A    between atoms: N_19  and  C_20 
REMARK    6  A    between atoms: C_29  and  O_30 
ROOT
ATOM      1  C   UNL d   1      27.780 -14.961   1.440  0.00  0.00     0.294 C 
ATOM      2  O   UNL d   1      26.667 -14.826   0.977  0.00  0.00    -0.265 OA
ATOM      3  N   UNL d   1      28.921 -15.572   0.898  0.00  0.00    -0.023 NA
ATOM      4  C   UNL d   1      28.869 -16.433  -0.097  0.00  0.00     0.704 C 
ATOM      5  N   UNL d   1      27.752 -16.946  -0.725  0.00  0.00    -0.220 N 
ATOM      6  N   UNL d   1      30.044 -17.024  -0.594  0.00  0.00    -0.190 N 
ATOM      7  H   UNL d   1      27.909 -17.587  -1.489  0.00  0.00     0.178 HD
ATOM      8  H   UNL d   1      30.897 -16.730  -0.129  0.00  0.00     0.184 HD
ENDROOT
BRANCH   5   9
ATOM      9  C   UNL d   1      26.504 -16.232  -0.771  0.00  0.00     0.178 C 
BRANCH   9  10
ATOM     10  C   UNL d   1      25.216 -16.948  -0.719  0.00  0.00    -0.022 C 
ATOM     11  C   UNL d   1      24.006 -16.325  -1.018  0.00  0.00     0.012 C 
ATOM     12  C   UNL d   1      22.842 -17.051  -0.894  0.00  0.00     0.020 C 
ATOM     13  C   UNL d   1      22.940 -18.343  -0.403  0.00  0.00     0.116 C 
ATOM     14  N   UNL d   1      24.084 -18.927   0.012  0.00  0.00    -0.273 NA
ATOM     15  C   UNL d   1      25.201 -18.209  -0.146  0.00  0.00     0.124 C 
ENDBRANCH   9  10
ENDBRANCH   5   9
BRANCH   6  16
ATOM     16  C   UNL d   1      30.318 -17.571  -1.892  0.00  0.00     0.055 A 
ATOM     17  C   UNL d   1      31.040 -18.783  -2.005  0.00  0.00     0.031 A 
ATOM     18  C   UNL d   1      31.325 -19.363  -3.260  0.00  0.00     0.009 A 
ATOM     19  C   UNL d   1      30.817 -18.803  -4.431  0.00  0.00    -0.061 A 
ATOM     20  C   UNL d   1      30.960 -19.459  -5.773  0.00  0.00     0.048 C 
ATOM     21  C   UNL d   1      30.125 -17.599  -4.335  0.00  0.00     0.015 A 
ATOM     22  C   UNL d   1      29.919 -16.958  -3.099  0.00  0.00    -0.034 A 
ATOM     23  C   UNL d   1      29.285 -15.605  -3.162  0.00  0.00     0.050 C 
ENDBRANCH   6  16
BRANCH   1  24
ATOM     24  C   UNL d   1      27.768 -14.178   2.666  0.00  0.00     0.037 A 
ATOM     25  C   UNL d   1      27.414 -12.806   2.585  0.00  0.00     0.020 A 
ATOM     26  C   UNL d   1      27.554 -11.970   3.677  0.00  0.00     0.040 A 
ATOM     27  C   UNL d   1      27.944 -12.510   4.909  0.00  0.00     0.101 A 
ATOM     28  C   UNL d   1      28.268 -13.900   4.971  0.00  0.00     0.102 A 
ATOM     29  C   UNL d   1      28.188 -14.714   3.843  0.00  0.00     0.056 A 
BRANCH  27  30
ATOM     30  O   UNL d   1      27.672 -11.637   5.936  0.00  0.00    -0.353 OA
ATOM     31  C   UNL d   1      28.527 -11.511   7.062  0.00  0.00     0.210 C 
ENDBRANCH  27  30
BRANCH  28  32
ATOM     32  O   UNL d   1      28.638 -14.727   5.997  0.00  0.00    -0.353 OA
ATOM     33  C   UNL d   1      29.892 -14.449   6.517  0.00  0.00     0.210 C 
ENDBRANCH  28  32
ENDBRANCH   1  24
TORSDOF 6
ENDMDL
MODEL 3
REMARK VINA RESULT:    -8.182      2.808      8.001
REMARK INTER + INTRA:         -11.068
REMARK INTER:                  -9.972
REMARK INTRA:                  -1.096
REMARK CONF_INDEPENDENT:        1.790
REMARK UNBOUND:                -1.096
REMARK  6 active torsions:
REMARK  status: ('A' for Active; 'I' for Inactive)
REMARK    1  A    between atoms: O_2  and  C_3 
REMARK    2  A    between atoms: C_6  and  C_7 
REMARK       I    between atoms: C_7  and  N_9 
REMARK       I    between atoms: C_10  and  N_11 
REMARK       I    between atoms: C_10  and  N_19 
REMARK    3  A    between atoms: N_11  and  C_12 
REMARK    4  A    between atoms: C_12  and  C_13 
REMARK    5  A    between atoms: N_19  and  C_20 
REMARK    6  A    between atoms: C_29  and  O_30 
ROOT
ATOM      1  C   UNL d   1      27.902 -14.910   1.435  0.00  0.00     0.294 C 
ATOM      2  O   UNL d   1      26.766 -14.793   1.027  0.00  0.00    -0.265 OA
ATOM      3  N   UNL d   1      29.026 -15.498   0.832  0.00  0.00    -0.023 NA
ATOM      4  C   UNL d   1      28.940 -16.354  -0.165  0.00  0.00     0.704 C 
ATOM      5  N   UNL d   1      27.802 -16.882  -0.741  0.00  0.00    -0.220 N 
ATOM      6  N   UNL d   1      30.098 -16.921  -0.723  0.00  0.00    -0.190 N 
ATOM      7  H   UNL d   1      27.932 -17.516  -1.516  0.00  0.00     0.178 HD
ATOM      8  H   UNL d   1      30.968 -16.614  -0.299  0.00  0.00     0.184 HD
ENDROOT
BRANCH   5   9
ATOM      9  C   UNL d   1      26.540 -16.191  -0.720  0.00  0.00     0.178 C 
BRANCH   9  10
ATOM     10  C   UNL d   1      25.267 -16.932  -0.696  0.00  0.00    -0.022 C 
ATOM     11  C   UNL d   1      24.047 -16.326  -0.990  0.00  0.00     0.012 C 
ATOM     12  C   UNL d   1      22.897 -17.077  -0.894  0.00  0.00     0.020 C 
ATOM     13  C   UNL d   1      23.016 -18.378  -0.432  0.00  0.00     0.116 C 
ATOM     14  N   UNL d   1      24.167 -18.950  -0.022  0.00  0.00    -0.273 NA
ATOM     15  C   UNL d   1      25.272 -18.207  -0.154  0.00  0.00     0.124 C 
ENDBRANCH   9  10
ENDBRANCH   5   9
BRANCH   6  16
ATOM     16  C   UNL d   1      30.317 -17.455  -2.037  0.00  0.00     0.055 A 
ATOM     17  C   UNL d   1      31.024 -18.671  -2.192  0.00  0.00     0.031 A 
ATOM     18  C   UNL d   1      31.256 -19.238  -3.464  0.00  0.00     0.009 A 
ATOM     19  C   UNL d   1      30.707 -18.661  -4.607  0.00  0.00    -0.061 A 
ATOM     20  C   UNL d   1      30.793 -19.303  -5.961  0.00  0.00     0.048 C 
ATOM     21  C   UNL d   1      30.030 -17.453  -4.471  0.00  0.00     0.015 A 
ATOM     22  C   UNL d   1      29.877 -16.824  -3.221  0.00  0.00    -0.034 A 
ATOM     23  C   UNL d   1      29.253 -15.466  -3.244  0.00  0.00     0.050 C 
ENDBRANCH   6  16
BRANCH   1  24
ATOM     24  C   UNL d   1      27.937 -14.136   2.665  0.00  0.00     0.037 A 
ATOM     25  C   UNL d   1      28.155 -14.825   3.887  0.00  0.00     0.020 A 
ATOM     26  C   UNL d   1      28.024 -14.177   5.101  0.00  0.00     0.040 A 
ATOM     27  C   UNL d   1      27.782 -12.797   5.121  0.00  0.00     0.101 A 
ATOM     28  C   UNL d   1      27.595 -12.122   3.875  0.00  0.00     0.102 A 
ATOM     29  C   UNL d   1      27.662 -12.805   2.663  0.00  0.00     0.056 A 
BRANCH  27  30
ATOM     30  O   UNL d   1      28.052 -12.269   6.361  0.00  0.00    -0.353 OA
ATOM     31  C   UNL d   1      28.907 -12.923   7.286  0.00  0.00     0.210 C 
ENDBRANCH  27  30
BRANCH  28  32
ATOM     32  O   UNL d   1      27.384 -10.810   3.548  0.00  0.00    -0.353 OA
ATOM     33  C   UNL d   1      27.775  -9.915   4.532  0.00  0.00     0.210 C 
ENDBRANCH  28  32
ENDBRANCH   1  24
TORSDOF 6
ENDMDL
MODEL 4
REMARK VINA RESULT:    -7.954      4.084      8.861
REMARK INTER + INTRA:         -11.088
REMARK INTER:                  -9.744
REMARK INTRA:                  -1.344
REMARK CONF_INDEPENDENT:        1.790
REMARK UNBOUND:                -1.344
REMARK  6 active torsions:
REMARK  status: ('A' for Active; 'I' for Inactive)
REMARK    1  A    between atoms: O_2  and  C_3 
REMARK    2  A    between atoms: C_6  and  C_7 
REMARK       I    between atoms: C_7  and  N_9 
REMARK       I    between atoms: C_10  and  N_11 
REMARK       I    between atoms: C_10  and  N_19 
REMARK    3  A    between atoms: N_11  and  C_12 
REMARK    4  A    between atoms: C_12  and  C_13 
REMARK    5  A    between atoms: N_19  and  C_20 
REMARK    6  A    between atoms: C_29  and  O_30 
ROOT
ATOM      1  C   UNL d   1      25.874 -15.215  -2.532  0.00  0.00     0.294 C 
ATOM      2  O   UNL d   1      27.001 -15.664  -2.517  0.00  0.00    -0.265 OA
ATOM      3  N   UNL d   1      25.338 -14.132  -3.246  0.00  0.00    -0.023 NA
ATOM      4  C   UNL d   1      26.082 -13.180  -3.770  0.00  0.00     0.704 C 
ATOM      5  N   UNL d   1      27.449 -13.011  -3.670  0.00  0.00    -0.220 N 
ATOM      6  N   UNL d   1      25.491 -12.111  -4.466  0.00  0.00    -0.190 N 
ATOM      7  H   UNL d   1      27.850 -12.225  -4.159  0.00  0.00     0.178 HD
ATOM      8  H   UNL d   1      24.478 -12.149  -4.522  0.00  0.00     0.184 HD
ENDROOT
BRANCH   5   9
ATOM      9  C   UNL d   1      28.342 -14.116  -3.445  0.00  0.00     0.178 C 
BRANCH   9  10
ATOM     10  C   UNL d   1      28.969 -14.829  -4.572  0.00  0.00    -0.022 C 
ATOM     11  C   UNL d   1      28.795 -14.428  -5.895  0.00  0.00     0.012 C 
ATOM     12  C   UNL d   1      29.372 -15.180  -6.894  0.00  0.00     0.020 C 
ATOM     13  C   UNL d   1      30.031 -16.342  -6.525  0.00  0.00     0.116 C 
ATOM     14  N   UNL d   1      30.107 -16.819  -5.264  0.00  0.00    -0.273 NA
ATOM     15  C   UNL d   1      29.562 -16.053  -4.312  0.00  0.00     0.124 C 
ENDBRANCH   9  10
ENDBRANCH   5   9
BRANCH   6  16
ATOM     16  C   UNL d   1      26.040 -11.266  -5.488  0.00  0.00     0.055 A 
ATOM     17  C   UNL d   1      26.844 -11.829  -6.507  0.00  0.00     0.031 A 
ATOM     18  C   UNL d   1      27.398 -11.038  -7.537  0.00  0.00     0.009 A 
ATOM     19  C   UNL d   1      27.087  -9.683  -7.634  0.00  0.00    -0.061 A 
ATOM     20  C   UNL d   1      27.523  -8.832  -8.791  0.00  0.00     0.048 C 
ATOM     21  C   UNL d   1      26.316  -9.113  -6.626  0.00  0.00     0.015 A 
ATOM     22  C   UNL d   1      25.839  -9.870  -5.539  0.00  0.00    -0.034 A 
ATOM     23  C   UNL d   1      25.146  -9.100  -4.461  0.00  0.00     0.050 C 
ENDBRANCH   6  16
BRANCH   1  24
ATOM     24  C   UNL d   1      25.087 -16.163  -1.759  0.00  0.00     0.037 A 
ATOM     25  C   UNL d   1      23.690 -15.941  -1.645  0.00  0.00     0.020 A 
ATOM     26  C   UNL d   1      22.917 -16.699  -0.784  0.00  0.00     0.040 A 
ATOM     27  C   UNL d   1      23.504 -17.772  -0.100  0.00  0.00     0.101 A 
ATOM     28  C   UNL d   1      24.907 -17.991  -0.254  0.00  0.00     0.102 A 
ATOM     29  C   UNL d   1      25.683 -17.173  -1.073  0.00  0.00     0.056 A 
BRANCH  27  30
ATOM     30  O   UNL d   1      22.543 -18.621   0.397  0.00  0.00    -0.353 OA
ATOM     31  C   UNL d   1      21.488 -19.116  -0.412  0.00  0.00     0.210 C 
ENDBRANCH  27  30
BRANCH  28  32
ATOM     32  O   UNL d   1      25.762 -18.945   0.230  0.00  0.00    -0.353 OA
ATOM     33  C   UNL d   1      27.026 -18.464   0.534  0.00  0.00     0.210 C 
ENDBRANCH  28  32
ENDBRANCH   1  24
TORSDOF 6
ENDMDL
MODEL 5
REMARK VINA RESULT:    -7.830      3.063      5.693
REMARK INTER + INTRA:         -10.751
REMARK INTER:                  -9.620
REMARK INTRA:                  -1.131
REMARK CONF_INDEPENDENT:        1.790
REMARK UNBOUND:                -1.131
REMARK  6 active torsions:
REMARK  status: ('A' for Active; 'I' for Inactive)
REMARK    1  A    between atoms: O_2  and  C_3 
REMARK    2  A    between atoms: C_6  and  C_7 
REMARK       I    between atoms: C_7  and  N_9 
REMARK       I    between atoms: C_10  and  N_11 
REMARK       I    between atoms: C_10  and  N_19 
REMARK    3  A    between atoms: N_11  and  C_12 
REMARK    4  A    between atoms: C_12  and  C_13 
REMARK    5  A    between atoms: N_19  and  C_20 
REMARK    6  A    between atoms: C_29  and  O_30 
ROOT
ATOM      1  C   UNL d   1      26.941 -13.866   0.940  0.00  0.00     0.294 C 
ATOM      2  O   UNL d   1      26.251 -12.870   1.006  0.00  0.00    -0.265 OA
ATOM      3  N   UNL d   1      27.803 -14.436   1.889  0.00  0.00    -0.023 NA
ATOM      4  C   UNL d   1      28.284 -13.766   2.917  0.00  0.00     0.704 C 
ATOM      5  N   UNL d   1      28.117 -12.429   3.216  0.00  0.00    -0.220 N 
ATOM      6  N   UNL d   1      29.154 -14.385   3.831  0.00  0.00    -0.190 N 
ATOM      7  H   UNL d   1      28.550 -12.093   4.065  0.00  0.00     0.178 HD
ATOM      8  H   UNL d   1      29.362 -15.358   3.628  0.00  0.00     0.184 HD
ENDROOT
BRANCH   5   9
ATOM      9  C   UNL d   1      26.972 -11.681   2.773  0.00  0.00     0.178 C 
BRANCH   9  10
ATOM     10  C   UNL d   1      27.050 -10.224   2.563  0.00  0.00    -0.022 C 
ATOM     11  C   UNL d   1      27.511  -9.667   1.372  0.00  0.00     0.012 C 
ATOM     12  C   UNL d   1      27.603  -8.296   1.277  0.00  0.00     0.020 C 
ATOM     13  C   UNL d   1      27.302  -7.552   2.405  0.00  0.00     0.116 C 
ATOM     14  N   UNL d   1      26.973  -8.070   3.608  0.00  0.00    -0.273 NA
ATOM     15  C   UNL d   1      26.864  -9.403   3.663  0.00  0.00     0.124 C 
ENDBRANCH   9  10
ENDBRANCH   5   9
BRANCH   6  16
ATOM     16  C   UNL d   1      29.414 -14.071   5.206  0.00  0.00     0.055 A 
ATOM     17  C   UNL d   1      28.678 -14.721   6.226  0.00  0.00     0.031 A 
ATOM     18  C   UNL d   1      28.905 -14.450   7.593  0.00  0.00     0.009 A 
ATOM     19  C   UNL d   1      29.936 -13.597   7.984  0.00  0.00    -0.061 A 
ATOM     20  C   UNL d   1      30.319 -13.394   9.421  0.00  0.00     0.048 C 
ATOM     21  C   UNL d   1      30.651 -12.935   6.991  0.00  0.00     0.015 A 
ATOM     22  C   UNL d   1      30.369 -13.120   5.625  0.00  0.00    -0.034 A 
ATOM     23  C   UNL d   1      31.119 -12.239   4.677  0.00  0.00     0.050 C 
ENDBRANCH   6  16
BRANCH   1  24
ATOM     24  C   UNL d   1      26.563 -14.497  -0.314  0.00  0.00     0.037 A 
ATOM     25  C   UNL d   1      26.666 -13.736  -1.508  0.00  0.00     0.020 A 
ATOM     26  C   UNL d   1      26.159 -14.214  -2.702  0.00  0.00     0.040 A 
ATOM     27  C   UNL d   1      25.636 -15.513  -2.755  0.00  0.00     0.101 A 
ATOM     28  C   UNL d   1      25.570 -16.269  -1.545  0.00  0.00     0.102 A 
ATOM     29  C   UNL d   1      26.022 -15.744  -0.336  0.00  0.00     0.056 A 
BRANCH  27  30
ATOM     30  O   UNL d   1      25.532 -15.947  -4.056  0.00  0.00    -0.353 OA
ATOM     31  C   UNL d   1      26.060 -15.200  -5.141  0.00  0.00     0.210 C 
ENDBRANCH  27  30
BRANCH  28  32
ATOM     32  O   UNL d   1      25.161 -17.544  -1.262  0.00  0.00    -0.353 OA
ATOM     33  C   UNL d   1      23.820 -17.642  -0.923  0.00  0.00     0.210 C 
ENDBRANCH  28  32
ENDBRANCH   1  24
TORSDOF 6
ENDMDL
MODEL 6
REMARK VINA RESULT:    -7.672      1.302      2.166
REMARK INTER + INTRA:         -10.556
REMARK INTER:                  -9.461
REMARK INTRA:                  -1.094
REMARK CONF_INDEPENDENT:        1.790
REMARK UNBOUND:                -1.094
REMARK  6 active torsions:
REMARK  status: ('A' for Active; 'I' for Inactive)
REMARK    1  A    between atoms: O_2  and  C_3 
REMARK    2  A    between atoms: C_6  and  C_7 
REMARK       I    between atoms: C_7  and  N_9 
REMARK       I    between atoms: C_10  and  N_11 
REMARK       I    between atoms: C_10  and  N_19 
REMARK    3  A    between atoms: N_11  and  C_12 
REMARK    4  A    between atoms: C_12  and  C_13 
REMARK    5  A    between atoms: N_19  and  C_20 
REMARK    6  A    between atoms: C_29  and  O_30 
ROOT
ATOM      1  C   UNL d   1      28.010 -15.142  -2.122  0.00  0.00     0.294 C 
ATOM      2  O   UNL d   1      27.582 -16.275  -2.060  0.00  0.00    -0.265 OA
ATOM      3  N   UNL d   1      28.408 -14.264  -1.101  0.00  0.00    -0.023 NA
ATOM      4  C   UNL d   1      28.041 -14.413   0.155  0.00  0.00     0.704 C 
ATOM      5  N   UNL d   1      27.181 -15.352   0.688  0.00  0.00    -0.220 N 
ATOM      6  N   UNL d   1      28.460 -13.497   1.135  0.00  0.00    -0.190 N 
ATOM      7  H   UNL d   1      27.032 -15.322   1.686  0.00  0.00     0.178 HD
ATOM      8  H   UNL d   1      29.049 -12.745   0.791  0.00  0.00     0.184 HD
ENDROOT
BRANCH   5   9
ATOM      9  C   UNL d   1      26.973 -16.636   0.074  0.00  0.00     0.178 C 
BRANCH   9  10
ATOM     10  C   UNL d   1      25.615 -17.127  -0.220  0.00  0.00    -0.022 C 
ATOM     11  C   UNL d   1      24.616 -16.296  -0.723  0.00  0.00     0.012 C 
ATOM     12  C   UNL d   1      23.358 -16.821  -0.921  0.00  0.00     0.020 C 
ATOM     13  C   UNL d   1      23.141 -18.133  -0.532  0.00  0.00     0.116 C 
ATOM     14  N   UNL d   1      24.055 -18.921   0.072  0.00  0.00    -0.273 NA
ATOM     15  C   UNL d   1      25.276 -18.394   0.225  0.00  0.00     0.124 C 
ENDBRANCH   9  10
ENDBRANCH   5   9
BRANCH   6  16
ATOM     16  C   UNL d   1      28.613 -13.674   2.551  0.00  0.00     0.055 A 
ATOM     17  C   UNL d   1      27.522 -13.412   3.413  0.00  0.00     0.031 A 
ATOM     18  C   UNL d   1      27.624 -13.581   4.812  0.00  0.00     0.009 A 
ATOM     19  C   UNL d   1      28.783 -14.107   5.379  0.00  0.00    -0.061 A 
ATOM     20  C   UNL d   1      28.890 -14.449   6.836  0.00  0.00     0.048 C 
ATOM     21  C   UNL d   1      29.870 -14.347   4.545  0.00  0.00     0.015 A 
ATOM     22  C   UNL d   1      29.816 -14.089   3.162  0.00  0.00    -0.034 A 
ATOM     23  C   UNL d   1      31.099 -14.260   2.414  0.00  0.00     0.050 C 
ENDBRANCH   6  16
BRANCH   1  24
ATOM     24  C   UNL d   1      28.210 -14.898  -3.542  0.00  0.00     0.037 A 
ATOM     25  C   UNL d   1      27.588 -13.763  -4.124  0.00  0.00     0.020 A 
ATOM     26  C   UNL d   1      27.592 -13.573  -5.493  0.00  0.00     0.040 A 
ATOM     27  C   UNL d   1      28.315 -14.456  -6.306  0.00  0.00     0.101 A 
ATOM     28  C   UNL d   1      28.956 -15.576  -5.692  0.00  0.00     0.102 A 
ATOM     29  C   UNL d   1      28.883 -15.789  -4.317  0.00  0.00     0.056 A 
BRANCH  27  30
ATOM     30  O   UNL d   1      28.518 -13.918  -7.556  0.00  0.00    -0.353 OA
ATOM     31  C   UNL d   1      28.315 -12.539  -7.821  0.00  0.00     0.210 C 
ENDBRANCH  27  30
BRANCH  28  32
ATOM     32  O   UNL d   1      29.749 -16.579  -6.179  0.00  0.00    -0.353 OA
ATOM     33  C   UNL d   1      30.531 -17.195  -5.215  0.00  0.00     0.210 C 
ENDBRANCH  28  32
ENDBRANCH   1  24
TORSDOF 6
ENDMDL
MODEL 7
REMARK VINA RESULT:    -7.649      3.025      4.826
REMARK INTER + INTRA:         -10.528
REMARK INTER:                  -9.438
REMARK INTRA:                  -1.089
REMARK CONF_INDEPENDENT:        1.790
REMARK UNBOUND:                -1.089
REMARK  6 active torsions:
REMARK  status: ('A' for Active; 'I' for Inactive)
REMARK    1  A    between atoms: O_2  and  C_3 
REMARK    2  A    between atoms: C_6  and  C_7 
REMARK       I    between atoms: C_7  and  N_9 
REMARK       I    between atoms: C_10  and  N_11 
REMARK       I    between atoms: C_10  and  N_19 
REMARK    3  A    between atoms: N_11  and  C_12 
REMARK    4  A    between atoms: C_12  and  C_13 
REMARK    5  A    between atoms: N_19  and  C_20 
REMARK    6  A    between atoms: C_29  and  O_30 
ROOT
ATOM      1  C   UNL d   1      27.711 -13.490  -0.814  0.00  0.00     0.294 C 
ATOM      2  O   UNL d   1      26.963 -12.535  -0.767  0.00  0.00    -0.265 OA
ATOM      3  N   UNL d   1      28.398 -14.156   0.212  0.00  0.00    -0.023 NA
ATOM      4  C   UNL d   1      28.623 -13.617   1.393  0.00  0.00     0.704 C 
ATOM      5  N   UNL d   1      28.320 -12.339   1.819  0.00  0.00    -0.220 N 
ATOM      6  N   UNL d   1      29.327 -14.326   2.381  0.00  0.00    -0.190 N 
ATOM      7  H   UNL d   1      28.553 -12.107   2.774  0.00  0.00     0.178 HD
ATOM      8  H   UNL d   1      29.629 -15.254   2.104  0.00  0.00     0.184 HD
ENDROOT
BRANCH   5   9
ATOM      9  C   UNL d   1      27.244 -11.575   1.247  0.00  0.00     0.178 C 
BRANCH   9  10
ATOM     10  C   UNL d   1      27.118 -10.129   1.504  0.00  0.00    -0.022 C 
ATOM     11  C   UNL d   1      27.996  -9.197   0.956  0.00  0.00     0.012 C 
ATOM     12  C   UNL d   1      27.841  -7.869   1.288  0.00  0.00     0.020 C 
ATOM     13  C   UNL d   1      26.862  -7.549   2.214  0.00  0.00     0.116 C 
ATOM     14  N   UNL d   1      26.081  -8.445   2.855  0.00  0.00    -0.273 NA
ATOM     15  C   UNL d   1      26.234  -9.723   2.491  0.00  0.00     0.124 C 
ENDBRANCH   9  10
ENDBRANCH   5   9
BRANCH   6  16
ATOM     16  C   UNL d   1      29.287 -14.194   3.809  0.00  0.00     0.055 A 
ATOM     17  C   UNL d   1      28.352 -14.946   4.558  0.00  0.00     0.031 A 
ATOM     18  C   UNL d   1      28.282 -14.855   5.965  0.00  0.00     0.009 A 
ATOM     19  C   UNL d   1      29.205 -14.086   6.672  0.00  0.00    -0.061 A 
ATOM     20  C   UNL d   1      29.272 -14.074   8.171  0.00  0.00     0.048 C 
ATOM     21  C   UNL d   1      30.115 -13.324   5.946  0.00  0.00     0.015 A 
ATOM     22  C   UNL d   1      30.131 -13.328   4.539  0.00  0.00    -0.034 A 
ATOM     23  C   UNL d   1      31.065 -12.356   3.893  0.00  0.00     0.050 C 
ENDBRANCH   6  16
BRANCH   1  24
ATOM     24  C   UNL d   1      27.630 -13.956  -2.189  0.00  0.00     0.037 A 
ATOM     25  C   UNL d   1      28.832 -14.060  -2.936  0.00  0.00     0.020 A 
ATOM     26  C   UNL d   1      28.806 -14.326  -4.292  0.00  0.00     0.040 A 
ATOM     27  C   UNL d   1      27.582 -14.604  -4.914  0.00  0.00     0.101 A 
ATOM     28  C   UNL d   1      26.388 -14.520  -4.133  0.00  0.00     0.102 A 
ATOM     29  C   UNL d   1      26.428 -14.183  -2.782  0.00  0.00     0.056 A 
BRANCH  27  30
ATOM     30  O   UNL d   1      27.777 -15.200  -6.138  0.00  0.00    -0.353 OA
ATOM     31  C   UNL d   1      28.965 -15.001  -6.888  0.00  0.00     0.210 C 
ENDBRANCH  27  30
BRANCH  28  32
ATOM     32  O   UNL d   1      25.070 -14.759  -4.415  0.00  0.00    -0.353 OA
ATOM     33  C   UNL d   1      24.187 -14.075  -3.594  0.00  0.00     0.210 C 
ENDBRANCH  28  32
ENDBRANCH   1  24
TORSDOF 6
ENDMDL
MODEL 8
REMARK VINA RESULT:    -7.625      4.470      9.956
REMARK INTER + INTRA:         -10.499
REMARK INTER:                  -9.415
REMARK INTRA:                  -1.084
REMARK CONF_INDEPENDENT:        1.790
REMARK UNBOUND:                -1.084
REMARK  6 active torsions:
REMARK  status: ('A' for Active; 'I' for Inactive)
REMARK    1  A    between atoms: O_2  and  C_3 
REMARK    2  A    between atoms: C_6  and  C_7 
REMARK       I    between atoms: C_7  and  N_9 
REMARK       I    between atoms: C_10  and  N_11 
REMARK       I    between atoms: C_10  and  N_19 
REMARK    3  A    between atoms: N_11  and  C_12 
REMARK    4  A    between atoms: C_12  and  C_13 
REMARK    5  A    between atoms: N_19  and  C_20 
REMARK    6  A    between atoms: C_29  and  O_30 
ROOT
ATOM      1  C   UNL d   1      28.380 -13.131   5.016  0.00  0.00     0.294 C 
ATOM      2  O   UNL d   1      28.102 -11.956   4.899  0.00  0.00    -0.265 OA
ATOM      3  N   UNL d   1      28.391 -14.161   4.063  0.00  0.00    -0.023 NA
ATOM      4  C   UNL d   1      27.744 -14.086   2.918  0.00  0.00     0.704 C 
ATOM      5  N   UNL d   1      26.908 -13.081   2.475  0.00  0.00    -0.220 N 
ATOM      6  N   UNL d   1      27.780 -15.153   2.004  0.00  0.00    -0.190 N 
ATOM      7  H   UNL d   1      26.511 -13.189   1.552  0.00  0.00     0.178 HD
ATOM      8  H   UNL d   1      28.334 -15.950   2.303  0.00  0.00     0.184 HD
ENDROOT
BRANCH   5   9
ATOM      9  C   UNL d   1      27.030 -11.723   2.935  0.00  0.00     0.178 C 
BRANCH   9  10
ATOM     10  C   UNL d   1      26.698 -10.589   2.055  0.00  0.00    -0.022 C 
ATOM     11  C   UNL d   1      27.366 -10.359   0.854  0.00  0.00     0.012 C 
ATOM     12  C   UNL d   1      27.031  -9.246   0.115  0.00  0.00     0.020 C 
ATOM     13  C   UNL d   1      26.099  -8.374   0.654  0.00  0.00     0.116 C 
ATOM     14  N   UNL d   1      25.530  -8.506   1.871  0.00  0.00    -0.273 NA
ATOM     15  C   UNL d   1      25.852  -9.611   2.553  0.00  0.00     0.124 C 
ENDBRANCH   9  10
ENDBRANCH   5   9
BRANCH   6  16
ATOM     16  C   UNL d   1      27.595 -15.149   0.581  0.00  0.00     0.055 A 
ATOM     17  C   UNL d   1      27.888 -13.980  -0.161  0.00  0.00     0.031 A 
ATOM     18  C   UNL d   1      27.729 -13.932  -1.563  0.00  0.00     0.009 A 
ATOM     19  C   UNL d   1      27.368 -15.075  -2.274  0.00  0.00    -0.061 A 
ATOM     20  C   UNL d   1      27.334 -15.121  -3.774  0.00  0.00     0.048 C 
ATOM     21  C   UNL d   1      27.056 -16.224  -1.554  0.00  0.00     0.015 A 
ATOM     22  C   UNL d   1      27.114 -16.257  -0.148  0.00  0.00    -0.034 A 
ATOM     23  C   UNL d   1      26.617 -17.511   0.497  0.00  0.00     0.050 C 
ENDBRANCH   6  16
BRANCH   1  24
ATOM     24  C   UNL d   1      28.896 -13.256   6.370  0.00  0.00     0.037 A 
ATOM     25  C   UNL d   1      30.036 -14.075   6.582  0.00  0.00     0.020 A 
ATOM     26  C   UNL d   1      30.467 -14.376   7.861  0.00  0.00     0.040 A 
ATOM     27  C   UNL d   1      29.836 -13.774   8.958  0.00  0.00     0.101 A 
ATOM     28  C   UNL d   1      28.708 -12.931   8.715  0.00  0.00     0.102 A 
ATOM     29  C   UNL d   1      28.245 -12.694   7.422  0.00  0.00     0.056 A 
BRANCH  27  30
ATOM     30  O   UNL d   1      30.610 -13.883  10.090  0.00  0.00    -0.353 OA
ATOM     31  C   UNL d   1      31.802 -14.653  10.113  0.00  0.00     0.210 C 
ENDBRANCH  27  30
BRANCH  28  32
ATOM     32  O   UNL d   1      27.909 -12.182   9.536  0.00  0.00    -0.353 OA
ATOM     33  C   UNL d   1      27.780 -12.697  10.816  0.00  0.00     0.210 C 
ENDBRANCH  28  32
ENDBRANCH   1  24
TORSDOF 6
ENDMDL
MODEL 9
REMARK VINA RESULT:    -7.398      3.034      8.223
REMARK INTER + INTRA:         -10.603
REMARK INTER:                  -9.188
REMARK INTRA:                  -1.415
REMARK CONF_INDEPENDENT:        1.790
REMARK UNBOUND:                -1.415
REMARK  6 active torsions:
REMARK  status: ('A' for Active; 'I' for Inactive)
REMARK    1  A    between atoms: O_2  and  C_3 
REMARK    2  A    between atoms: C_6  and  C_7 
REMARK       I    between atoms: C_7  and  N_9 
REMARK       I    between atoms: C_10  and  N_11 
REMARK       I    between atoms: C_10  and  N_19 
REMARK    3  A    between atoms: N_11  and  C_12 
REMARK    4  A    between atoms: C_12  and  C_13 
REMARK    5  A    between atoms: N_19  and  C_20 
REMARK    6  A    between atoms: C_29  and  O_30 
ROOT
ATOM      1  C   UNL d   1      27.917 -14.808   1.501  0.00  0.00     0.294 C 
ATOM      2  O   UNL d   1      26.804 -14.607   1.064  0.00  0.00    -0.265 OA
ATOM      3  N   UNL d   1      29.023 -15.440   0.911  0.00  0.00    -0.023 NA
ATOM      4  C   UNL d   1      28.919 -16.253  -0.120  0.00  0.00     0.704 C 
ATOM      5  N   UNL d   1      27.771 -16.689  -0.750  0.00  0.00    -0.220 N 
ATOM      6  N   UNL d   1      30.060 -16.868  -0.664  0.00  0.00    -0.190 N 
ATOM      7  H   UNL d   1      27.889 -17.302  -1.545  0.00  0.00     0.178 HD
ATOM      8  H   UNL d   1      30.932 -16.630  -0.202  0.00  0.00     0.184 HD
ENDROOT
BRANCH   5   9
ATOM      9  C   UNL d   1      26.553 -15.924  -0.741  0.00  0.00     0.178 C 
BRANCH   9  10
ATOM     10  C   UNL d   1      26.212 -15.024  -1.857  0.00  0.00    -0.022 C 
ATOM     11  C   UNL d   1      26.311 -13.638  -1.752  0.00  0.00     0.012 C 
ATOM     12  C   UNL d   1      25.922 -12.866  -2.824  0.00  0.00     0.020 C 
ATOM     13  C   UNL d   1      25.380 -13.515  -3.921  0.00  0.00     0.116 C 
ATOM     14  N   UNL d   1      25.157 -14.844  -4.000  0.00  0.00    -0.273 NA
ATOM     15  C   UNL d   1      25.571 -15.572  -2.956  0.00  0.00     0.124 C 
ENDBRANCH   9  10
ENDBRANCH   5   9
BRANCH   6  16
ATOM     16  C   UNL d   1      30.290 -17.365  -1.990  0.00  0.00     0.055 A 
ATOM     17  C   UNL d   1      30.956 -18.601  -2.171  0.00  0.00     0.031 A 
ATOM     18  C   UNL d   1      31.196 -19.134  -3.456  0.00  0.00     0.009 A 
ATOM     19  C   UNL d   1      30.695 -18.500  -4.591  0.00  0.00    -0.061 A 
ATOM     20  C   UNL d   1      30.789 -19.099  -5.963  0.00  0.00     0.048 C 
ATOM     21  C   UNL d   1      30.059 -17.273  -4.429  0.00  0.00     0.015 A 
ATOM     22  C   UNL d   1      29.899 -16.681  -3.161  0.00  0.00    -0.034 A 
ATOM     23  C   UNL d   1      29.325 -15.301  -3.152  0.00  0.00     0.050 C 
ENDBRANCH   6  16
BRANCH   1  24
ATOM     24  C   UNL d   1      27.958 -14.083   2.761  0.00  0.00     0.037 A 
ATOM     25  C   UNL d   1      28.155 -14.822   3.956  0.00  0.00     0.020 A 
ATOM     26  C   UNL d   1      28.028 -14.220   5.194  0.00  0.00     0.040 A 
ATOM     27  C   UNL d   1      27.810 -12.837   5.266  0.00  0.00     0.101 A 
ATOM     28  C   UNL d   1      27.643 -12.111   4.047  0.00  0.00     0.102 A 
ATOM     29  C   UNL d   1      27.706 -12.748   2.809  0.00  0.00     0.056 A 
BRANCH  27  30
ATOM     30  O   UNL d   1      28.081 -12.362   6.528  0.00  0.00    -0.353 OA
ATOM     31  C   UNL d   1      29.400 -12.336   7.052  0.00  0.00     0.210 C 
ENDBRANCH  27  30
BRANCH  28  32
ATOM     32  O   UNL d   1      27.457 -10.784   3.769  0.00  0.00    -0.353 OA
ATOM     33  C   UNL d   1      28.085  -9.930   4.662  0.00  0.00     0.210 C 
ENDBRANCH  28  32
ENDBRANCH   1  24
TORSDOF 6
ENDMDL
