MODEL 1
REMARK VINA RESULT:    -9.047      0.000      0.000
REMARK INTER + INTRA:         -13.467
REMARK INTER:                 -12.030
REMARK INTRA:                  -1.437
REMARK CONF_INDEPENDENT:        2.983
REMARK UNBOUND:                -1.437
REMARK  10 active torsions:
REMARK  status: ('A' for Active; 'I' for Inactive)
REMARK    1  A    between atoms: C_2  and  O_3 
REMARK    2  A    between atoms: O_3  and  C_4 
REMARK    3  A    between atoms: C_7  and  N_8 
REMARK    4  A    between atoms: N_8  and  S_9 
REMARK    5  A    between atoms: S_9  and  C_12 
REMARK    6  A    between atoms: C_20  and  C_21 
REMARK       I    between atoms: C_21  and  N_23 
REMARK    7  A    between atoms: N_23  and  C_24 
REMARK    8  A    between atoms: C_24  and  C_25 
REMARK    9  A    between atoms: C_25  and  C_26 
REMARK   10  A    between atoms: C_26  and  N_27 
ROOT
ATOM      1  C   UNL d   1      27.272 -14.589  -0.497  0.00  0.00     0.080 A 
ATOM      2  C   UNL d   1      27.092 -13.571  -1.437  0.00  0.00     0.027 A 
ATOM      3  C   UNL d   1      27.140 -12.219  -1.039  0.00  0.00     0.032 A 
ATOM      4  C   UNL d   1      27.312 -11.895   0.313  0.00  0.00     0.045 A 
ATOM      5  N   UNL d   1      27.079 -10.601   0.829  0.00  0.00    -0.326 N 
ATOM      6  C   UNL d   1      26.745 -10.600   2.197  0.00  0.00     0.232 C 
ATOM      7  O   UNL d   1      25.744 -10.209   2.708  0.00  0.00    -0.272 OA
ATOM      8  C   UNL d   1      27.918 -11.125   3.079  0.00  0.00     0.135 C 
ATOM      9  C   UNL d   1      27.848 -12.428   2.690  0.00  0.00     0.036 C 
ATOM     10  C   UNL d   1      27.560 -12.893   1.263  0.00  0.00     0.005 A 
ATOM     11  C   UNL d   1      27.474 -14.241   0.833  0.00  0.00     0.039 A 
ATOM     12  H   UNL d   1      26.650  -9.911   0.222  0.00  0.00     0.169 HD
ENDROOT
BRANCH   1  13
ATOM     13  S   UNL d   1      27.317 -16.309  -1.025  0.00  0.00     0.263 S 
ATOM     14  O   UNL d   1      28.688 -16.731  -0.822  0.00  0.00    -0.200 OA
ATOM     15  O   UNL d   1      26.704 -16.357  -2.336  0.00  0.00    -0.200 OA
BRANCH  13  16
ATOM     16  N   UNL d   1      26.349 -17.232   0.028  0.00  0.00    -0.281 N 
ATOM     17  H   UNL d   1      26.794 -17.840   0.709  0.00  0.00     0.179 HD
BRANCH  16  18
ATOM     18  C   UNL d   1      24.925 -17.381  -0.212  0.00  0.00     0.042 A 
ATOM     19  C   UNL d   1      24.321 -18.645  -0.116  0.00  0.00     0.033 A 
ATOM     20  C   UNL d   1      22.953 -18.821  -0.425  0.00  0.00     0.039 A 
ATOM     21  C   UNL d   1      22.149 -17.728  -0.762  0.00  0.00     0.068 A 
ATOM     22  C   UNL d   1      22.729 -16.467  -0.792  0.00  0.00     0.039 A 
ATOM     23  C   UNL d   1      24.096 -16.301  -0.519  0.00  0.00     0.033 A 
BRANCH  21  24
ATOM     24  O   UNL d   1      20.811 -17.966  -0.934  0.00  0.00    -0.352 OA
BRANCH  24  25
ATOM     25  C   UNL d   1      20.446 -19.326  -1.207  0.00  0.00     0.171 C 
ATOM     26  C   UNL d   1      19.164 -19.656  -0.459  0.00  0.00     0.034 C 
ENDBRANCH  24  25
ENDBRANCH  21  24
ENDBRANCH  16  18
ENDBRANCH  13  16
ENDBRANCH   1  13
BRANCH   9  27
ATOM     27  C   UNL d   1      28.077 -13.532   3.719  0.00  0.00     0.249 C 
ATOM     28  O   UNL d   1      27.134 -13.981   4.370  0.00  0.00    -0.268 OA
ATOM     29  N   UNL d   1      29.295 -14.083   4.002  0.00  0.00    -0.357 N 
ATOM     30  H   UNL d   1      30.138 -13.737   3.563  0.00  0.00     0.162 HD
BRANCH  29  31
ATOM     31  C   UNL d   1      29.345 -15.078   5.097  0.00  0.00     0.124 C 
BRANCH  31  32
ATOM     32  C   UNL d   1      29.913 -14.449   6.342  0.00  0.00     0.040 C 
BRANCH  32  33
ATOM     33  C   UNL d   1      28.906 -14.067   7.424  0.00  0.00     0.130 C 
BRANCH  33  34
ATOM     34  N   UNL d   1      28.992 -12.620   7.742  0.00  0.00    -0.352 N 
ATOM     35  C   UNL d   1      29.354 -11.589   6.871  0.00  0.00     0.108 A 
ATOM     36  C   UNL d   1      29.290 -10.424   7.571  0.00  0.00     0.106 A 
ATOM     37  N   UNL d   1      28.902 -10.764   8.842  0.00  0.00    -0.361 N 
ATOM     38  C   UNL d   1      28.724 -12.086   8.948  0.00  0.00     0.182 A 
ATOM     39  H   UNL d   1      28.764 -10.105   9.604  0.00  0.00     0.166 HD
ENDBRANCH  33  34
ENDBRANCH  32  33
ENDBRANCH  31  32
ENDBRANCH  29  31
ENDBRANCH   9  27
TORSDOF 10
ENDMDL
MODEL 2
REMARK VINA RESULT:    -8.972      5.669      8.543
REMARK INTER + INTRA:         -13.501
REMARK INTER:                 -11.955
REMARK INTRA:                  -1.546
REMARK CONF_INDEPENDENT:        2.983
REMARK UNBOUND:                -1.546
REMARK  10 active torsions:
REMARK  status: ('A' for Active; 'I' for Inactive)
REMARK    1  A    between atoms: C_2  and  O_3 
REMARK    2  A    between atoms: O_3  and  C_4 
REMARK    3  A    between atoms: C_7  and  N_8 
REMARK    4  A    between atoms: N_8  and  S_9 
REMARK    5  A    between atoms: S_9  and  C_12 
REMARK    6  A    between atoms: C_20  and  C_21 
REMARK       I    between atoms: C_21  and  N_23 
REMARK    7  A    between atoms: N_23  and  C_24 
REMARK    8  A    between atoms: C_24  and  C_25 
REMARK    9  A    between atoms: C_25  and  C_26 
REMARK   10  A    between atoms: C_26  and  N_27 
ROOT
ATOM      1  C   UNL d   1      28.145 -16.978  -0.873  0.00  0.00     0.080 A 
ATOM      2  C   UNL d   1      29.350 -17.617  -0.571  0.00  0.00     0.027 A 
ATOM      3  C   UNL d   1      30.376 -17.690  -1.536  0.00  0.00     0.032 A 
ATOM      4  C   UNL d   1      30.167 -17.170  -2.819  0.00  0.00     0.045 A 
ATOM      5  N   UNL d   1      31.013 -17.458  -3.913  0.00  0.00    -0.326 N 
ATOM      6  C   UNL d   1      30.366 -17.349  -5.159  0.00  0.00     0.232 C 
ATOM      7  O   UNL d   1      30.203 -18.197  -5.979  0.00  0.00    -0.272 OA
ATOM      8  C   UNL d   1      29.906 -15.888  -5.446  0.00  0.00     0.135 C 
ATOM      9  C   UNL d   1      28.911 -15.841  -4.517  0.00  0.00     0.036 C 
ATOM     10  C   UNL d   1      28.994 -16.468  -3.126  0.00  0.00     0.005 A 
ATOM     11  C   UNL d   1      27.973 -16.441  -2.143  0.00  0.00     0.039 A 
ATOM     12  H   UNL d   1      31.726 -18.169  -3.795  0.00  0.00     0.169 HD
ENDROOT
BRANCH   1  13
ATOM     13  S   UNL d   1      26.879 -16.792   0.393  0.00  0.00     0.263 S 
ATOM     14  O   UNL d   1      27.415 -15.821   1.325  0.00  0.00    -0.200 OA
ATOM     15  O   UNL d   1      26.523 -18.128   0.824  0.00  0.00    -0.200 OA
BRANCH  13  16
ATOM     16  N   UNL d   1      25.494 -16.096  -0.313  0.00  0.00    -0.281 N 
ATOM     17  H   UNL d   1      25.413 -15.085  -0.355  0.00  0.00     0.179 HD
BRANCH  16  18
ATOM     18  C   UNL d   1      24.320 -16.901  -0.595  0.00  0.00     0.042 A 
ATOM     19  C   UNL d   1      24.454 -18.269  -0.884  0.00  0.00     0.033 A 
ATOM     20  C   UNL d   1      23.330 -19.048  -1.241  0.00  0.00     0.039 A 
ATOM     21  C   UNL d   1      22.046 -18.496  -1.241  0.00  0.00     0.068 A 
ATOM     22  C   UNL d   1      21.903 -17.161  -0.889  0.00  0.00     0.039 A 
ATOM     23  C   UNL d   1      23.026 -16.379  -0.571  0.00  0.00     0.033 A 
BRANCH  21  24
ATOM     24  O   UNL d   1      21.000 -19.346  -1.485  0.00  0.00    -0.352 OA
BRANCH  24  25
ATOM     25  C   UNL d   1      19.842 -19.168  -0.658  0.00  0.00     0.171 C 
ATOM     26  C   UNL d   1      19.861 -20.207   0.453  0.00  0.00     0.034 C 
ENDBRANCH  24  25
ENDBRANCH  21  24
ENDBRANCH  16  18
ENDBRANCH  13  16
ENDBRANCH   1  13
BRANCH   9  27
ATOM     27  C   UNL d   1      27.610 -15.114  -4.845  0.00  0.00     0.249 C 
ATOM     28  O   UNL d   1      26.866 -15.539  -5.729  0.00  0.00    -0.268 OA
ATOM     29  N   UNL d   1      27.184 -13.974  -4.224  0.00  0.00    -0.357 N 
ATOM     30  H   UNL d   1      27.757 -13.516  -3.527  0.00  0.00     0.162 HD
BRANCH  29  31
ATOM     31  C   UNL d   1      25.942 -13.352  -4.735  0.00  0.00     0.124 C 
BRANCH  31  32
ATOM     32  C   UNL d   1      26.248 -12.006  -5.337  0.00  0.00     0.040 C 
BRANCH  32  33
ATOM     33  C   UNL d   1      27.684 -11.511  -5.188  0.00  0.00     0.130 C 
BRANCH  33  34
ATOM     34  N   UNL d   1      28.567 -12.124  -6.210  0.00  0.00    -0.352 N 
ATOM     35  C   UNL d   1      29.952 -11.976  -6.319  0.00  0.00     0.108 A 
ATOM     36  C   UNL d   1      30.357 -12.716  -7.387  0.00  0.00     0.106 A 
ATOM     37  N   UNL d   1      29.223 -13.287  -7.906  0.00  0.00    -0.361 N 
ATOM     38  C   UNL d   1      28.144 -12.931  -7.201  0.00  0.00     0.182 A 
ATOM     39  H   UNL d   1      29.201 -13.901  -8.716  0.00  0.00     0.166 HD
ENDBRANCH  33  34
ENDBRANCH  32  33
ENDBRANCH  31  32
ENDBRANCH  29  31
ENDBRANCH   9  27
TORSDOF 10
ENDMDL
MODEL 3
REMARK VINA RESULT:    -8.572      4.690      7.233
REMARK INTER + INTRA:         -14.256
REMARK INTER:                 -11.555
REMARK INTRA:                  -2.702
REMARK CONF_INDEPENDENT:        2.983
REMARK UNBOUND:                -2.702
REMARK  10 active torsions:
REMARK  status: ('A' for Active; 'I' for Inactive)
REMARK    1  A    between atoms: C_2  and  O_3 
REMARK    2  A    between atoms: O_3  and  C_4 
REMARK    3  A    between atoms: C_7  and  N_8 
REMARK    4  A    between atoms: N_8  and  S_9 
REMARK    5  A    between atoms: S_9  and  C_12 
REMARK    6  A    between atoms: C_20  and  C_21 
REMARK       I    between atoms: C_21  and  N_23 
REMARK    7  A    between atoms: N_23  and  C_24 
REMARK    8  A    between atoms: C_24  and  C_25 
REMARK    9  A    between atoms: C_25  and  C_26 
REMARK   10  A    between atoms: C_26  and  N_27 
ROOT
ATOM      1  C   UNL d   1      28.149 -16.948  -0.801  0.00  0.00     0.080 A 
ATOM      2  C   UNL d   1      29.414 -17.465  -0.514  0.00  0.00     0.027 A 
ATOM      3  C   UNL d   1      30.414 -17.490  -1.508  0.00  0.00     0.032 A 
ATOM      4  C   UNL d   1      30.121 -17.046  -2.804  0.00  0.00     0.045 A 
ATOM      5  N   UNL d   1      30.957 -17.307  -3.913  0.00  0.00    -0.326 N 
ATOM      6  C   UNL d   1      30.267 -17.310  -5.140  0.00  0.00     0.232 C 
ATOM      7  O   UNL d   1      30.155 -18.203  -5.918  0.00  0.00    -0.272 OA
ATOM      8  C   UNL d   1      29.670 -15.909  -5.471  0.00  0.00     0.135 C 
ATOM      9  C   UNL d   1      28.703 -15.908  -4.511  0.00  0.00     0.036 C 
ATOM     10  C   UNL d   1      28.883 -16.464  -3.099  0.00  0.00     0.005 A 
ATOM     11  C   UNL d   1      27.893 -16.484  -2.085  0.00  0.00     0.039 A 
ATOM     12  H   UNL d   1      31.733 -17.947  -3.789  0.00  0.00     0.169 HD
ENDROOT
BRANCH   1  13
ATOM     13  S   UNL d   1      26.910 -16.819   0.498  0.00  0.00     0.263 S 
ATOM     14  O   UNL d   1      27.434 -15.838   1.426  0.00  0.00    -0.200 OA
ATOM     15  O   UNL d   1      26.612 -18.170   0.924  0.00  0.00    -0.200 OA
BRANCH  13  16
ATOM     16  N   UNL d   1      25.484 -16.166  -0.166  0.00  0.00    -0.281 N 
ATOM     17  H   UNL d   1      25.351 -15.159  -0.166  0.00  0.00     0.179 HD
BRANCH  16  18
ATOM     18  C   UNL d   1      24.349 -17.018  -0.471  0.00  0.00     0.042 A 
ATOM     19  C   UNL d   1      23.079 -16.456  -0.676  0.00  0.00     0.033 A 
ATOM     20  C   UNL d   1      21.949 -17.278  -0.893  0.00  0.00     0.039 A 
ATOM     21  C   UNL d   1      22.079 -18.666  -0.984  0.00  0.00     0.068 A 
ATOM     22  C   UNL d   1      23.345 -19.220  -0.847  0.00  0.00     0.039 A 
ATOM     23  C   UNL d   1      24.460 -18.404  -0.597  0.00  0.00     0.033 A 
BRANCH  21  24
ATOM     24  O   UNL d   1      20.956 -19.379  -1.310  0.00  0.00    -0.352 OA
BRANCH  24  25
ATOM     25  C   UNL d   1      19.852 -19.258  -0.404  0.00  0.00     0.171 C 
ATOM     26  C   UNL d   1      20.287 -19.727   0.976  0.00  0.00     0.034 C 
ENDBRANCH  24  25
ENDBRANCH  21  24
ENDBRANCH  16  18
ENDBRANCH  13  16
ENDBRANCH   1  13
BRANCH   9  27
ATOM     27  C   UNL d   1      27.333 -15.313  -4.826  0.00  0.00     0.249 C 
ATOM     28  O   UNL d   1      26.958 -15.197  -5.992  0.00  0.00    -0.268 OA
ATOM     29  N   UNL d   1      26.450 -14.867  -3.883  0.00  0.00    -0.357 N 
ATOM     30  H   UNL d   1      26.694 -14.864  -2.901  0.00  0.00     0.162 HD
BRANCH  29  31
ATOM     31  C   UNL d   1      25.206 -14.232  -4.373  0.00  0.00     0.124 C 
BRANCH  31  32
ATOM     32  C   UNL d   1      25.171 -12.782  -3.968  0.00  0.00     0.040 C 
BRANCH  32  33
ATOM     33  C   UNL d   1      26.511 -12.152  -3.600  0.00  0.00     0.130 C 
BRANCH  33  34
ATOM     34  N   UNL d   1      27.041 -12.728  -2.339  0.00  0.00    -0.352 N 
ATOM     35  C   UNL d   1      28.384 -12.923  -2.006  0.00  0.00     0.108 A 
ATOM     36  C   UNL d   1      28.418 -13.465  -0.758  0.00  0.00     0.106 A 
ATOM     37  N   UNL d   1      27.111 -13.595  -0.363  0.00  0.00    -0.361 N 
ATOM     38  C   UNL d   1      26.280 -13.155  -1.315  0.00  0.00     0.182 A 
ATOM     39  H   UNL d   1      26.808 -13.974   0.531  0.00  0.00     0.166 HD
ENDBRANCH  33  34
ENDBRANCH  32  33
ENDBRANCH  31  32
ENDBRANCH  29  31
ENDBRANCH   9  27
TORSDOF 10
ENDMDL
MODEL 4
REMARK VINA RESULT:    -8.440      5.581      8.329
REMARK INTER + INTRA:         -14.588
REMARK INTER:                 -11.423
REMARK INTRA:                  -3.165
REMARK CONF_INDEPENDENT:        2.983
REMARK UNBOUND:                -3.165
REMARK  10 active torsions:
REMARK  status: ('A' for Active; 'I' for Inactive)
REMARK    1  A    between atoms: C_2  and  O_3 
REMARK    2  A    between atoms: O_3  and  C_4 
REMARK    3  A    between atoms: C_7  and  N_8 
REMARK    4  A    between atoms: N_8  and  S_9 
REMARK    5  A    between atoms: S_9  and  C_12 
REMARK    6  A    between atoms: C_20  and  C_21 
REMARK       I    between atoms: C_21  and  N_23 
REMARK    7  A    between atoms: N_23  and  C_24 
REMARK    8  A    between atoms: C_24  and  C_25 
REMARK    9  A    between atoms: C_25  and  C_26 
REMARK   10  A    between atoms: C_26  and  N_27 
ROOT
ATOM      1  C   UNL d   1      27.449 -15.900  -2.163  0.00  0.00     0.080 A 
ATOM      2  C   UNL d   1      28.288 -16.699  -1.384  0.00  0.00     0.027 A 
ATOM      3  C   UNL d   1      29.524 -17.143  -1.897  0.00  0.00     0.032 A 
ATOM      4  C   UNL d   1      29.887 -16.830  -3.213  0.00  0.00     0.045 A 
ATOM      5  N   UNL d   1      30.948 -17.470  -3.891  0.00  0.00    -0.326 N 
ATOM      6  C   UNL d   1      30.799 -17.460  -5.291  0.00  0.00     0.232 C 
ATOM      7  O   UNL d   1      30.712 -18.392  -6.027  0.00  0.00    -0.272 OA
ATOM      8  C   UNL d   1      30.836 -16.013  -5.867  0.00  0.00     0.135 C 
ATOM      9  C   UNL d   1      29.634 -15.606  -5.372  0.00  0.00     0.036 C 
ATOM     10  C   UNL d   1      29.094 -15.977  -3.992  0.00  0.00     0.005 A 
ATOM     11  C   UNL d   1      27.846 -15.575  -3.455  0.00  0.00     0.039 A 
ATOM     12  H   UNL d   1      31.382 -18.275  -3.453  0.00  0.00     0.169 HD
ENDROOT
BRANCH   1  13
ATOM     13  S   UNL d   1      25.923 -15.245  -1.468  0.00  0.00     0.263 S 
ATOM     14  O   UNL d   1      24.964 -15.288  -2.553  0.00  0.00    -0.200 OA
ATOM     15  O   UNL d   1      26.265 -13.997  -0.818  0.00  0.00    -0.200 OA
BRANCH  13  16
ATOM     16  N   UNL d   1      25.365 -16.313  -0.265  0.00  0.00    -0.281 N 
ATOM     17  H   UNL d   1      25.966 -16.531   0.524  0.00  0.00     0.179 HD
BRANCH  16  18
ATOM     18  C   UNL d   1      24.181 -17.124  -0.483  0.00  0.00     0.042 A 
ATOM     19  C   UNL d   1      24.281 -18.524  -0.518  0.00  0.00     0.033 A 
ATOM     20  C   UNL d   1      23.152 -19.324  -0.810  0.00  0.00     0.039 A 
ATOM     21  C   UNL d   1      21.893 -18.747  -0.996  0.00  0.00     0.068 A 
ATOM     22  C   UNL d   1      21.780 -17.367  -0.895  0.00  0.00     0.039 A 
ATOM     23  C   UNL d   1      22.909 -16.572  -0.641  0.00  0.00     0.033 A 
BRANCH  21  24
ATOM     24  O   UNL d   1      20.833 -19.598  -1.160  0.00  0.00    -0.352 OA
BRANCH  24  25
ATOM     25  C   UNL d   1      19.757 -19.446  -0.224  0.00  0.00     0.171 C 
ATOM     26  C   UNL d   1      20.281 -19.705   1.180  0.00  0.00     0.034 C 
ENDBRANCH  24  25
ENDBRANCH  21  24
ENDBRANCH  16  18
ENDBRANCH  13  16
ENDBRANCH   1  13
BRANCH   9  27
ATOM     27  C   UNL d   1      28.738 -14.707  -6.220  0.00  0.00     0.249 C 
ATOM     28  O   UNL d   1      27.587 -15.051  -6.487  0.00  0.00    -0.268 OA
ATOM     29  N   UNL d   1      29.123 -13.504  -6.742  0.00  0.00    -0.357 N 
ATOM     30  H   UNL d   1      30.069 -13.166  -6.628  0.00  0.00     0.162 HD
BRANCH  29  31
ATOM     31  C   UNL d   1      28.154 -12.811  -7.620  0.00  0.00     0.124 C 
BRANCH  31  32
ATOM     32  C   UNL d   1      27.889 -11.422  -7.102  0.00  0.00     0.040 C 
BRANCH  32  33
ATOM     33  C   UNL d   1      26.517 -11.185  -6.478  0.00  0.00     0.130 C 
BRANCH  33  34
ATOM     34  N   UNL d   1      26.486 -11.650  -5.069  0.00  0.00    -0.352 N 
ATOM     35  C   UNL d   1      27.366 -11.287  -4.047  0.00  0.00     0.108 A 
ATOM     36  C   UNL d   1      26.968 -11.935  -2.918  0.00  0.00     0.106 A 
ATOM     37  N   UNL d   1      25.871 -12.677  -3.272  0.00  0.00    -0.361 N 
ATOM     38  C   UNL d   1      25.580 -12.509  -4.567  0.00  0.00     0.182 A 
ATOM     39  H   UNL d   1      25.344 -13.275  -2.640  0.00  0.00     0.166 HD
ENDBRANCH  33  34
ENDBRANCH  32  33
ENDBRANCH  31  32
ENDBRANCH  29  31
ENDBRANCH   9  27
TORSDOF 10
ENDMDL
MODEL 5
REMARK VINA RESULT:    -8.041      5.685      7.381
REMARK INTER + INTRA:         -13.288
REMARK INTER:                 -11.024
REMARK INTRA:                  -2.264
REMARK CONF_INDEPENDENT:        2.983
REMARK UNBOUND:                -2.264
REMARK  10 active torsions:
REMARK  status: ('A' for Active; 'I' for Inactive)
REMARK    1  A    between atoms: C_2  and  O_3 
REMARK    2  A    between atoms: O_3  and  C_4 
REMARK    3  A    between atoms: C_7  and  N_8 
REMARK    4  A    between atoms: N_8  and  S_9 
REMARK    5  A    between atoms: S_9  and  C_12 
REMARK    6  A    between atoms: C_20  and  C_21 
REMARK       I    between atoms: C_21  and  N_23 
REMARK    7  A    between atoms: N_23  and  C_24 
REMARK    8  A    between atoms: C_24  and  C_25 
REMARK    9  A    between atoms: C_25  and  C_26 
REMARK   10  A    between atoms: C_26  and  N_27 
ROOT
ATOM      1  C   UNL d   1      26.757 -15.702  -1.733  0.00  0.00     0.080 A 
ATOM      2  C   UNL d   1      25.578 -14.989  -1.965  0.00  0.00     0.027 A 
ATOM      3  C   UNL d   1      25.340 -14.398  -3.223  0.00  0.00     0.032 A 
ATOM      4  C   UNL d   1      26.314 -14.478  -4.227  0.00  0.00     0.045 A 
ATOM      5  N   UNL d   1      26.284 -13.678  -5.391  0.00  0.00    -0.326 N 
ATOM      6  C   UNL d   1      27.557 -13.474  -5.958  0.00  0.00     0.232 C 
ATOM      7  O   UNL d   1      28.130 -12.445  -6.126  0.00  0.00    -0.272 OA
ATOM      8  C   UNL d   1      28.186 -14.808  -6.463  0.00  0.00     0.135 C 
ATOM      9  C   UNL d   1      28.418 -15.357  -5.238  0.00  0.00     0.036 C 
ATOM     10  C   UNL d   1      27.473 -15.241  -4.043  0.00  0.00     0.005 A 
ATOM     11  C   UNL d   1      27.693 -15.794  -2.757  0.00  0.00     0.039 A 
ATOM     12  H   UNL d   1      25.603 -12.929  -5.443  0.00  0.00     0.169 HD
ENDROOT
BRANCH   1  13
ATOM     13  S   UNL d   1      27.010 -16.545  -0.164  0.00  0.00     0.263 S 
ATOM     14  O   UNL d   1      26.469 -15.650   0.839  0.00  0.00    -0.200 OA
ATOM     15  O   UNL d   1      28.399 -16.955  -0.132  0.00  0.00    -0.200 OA
BRANCH  13  16
ATOM     16  N   UNL d   1      26.059 -17.957  -0.139  0.00  0.00    -0.281 N 
ATOM     17  H   UNL d   1      26.514 -18.864  -0.177  0.00  0.00     0.179 HD
BRANCH  16  18
ATOM     18  C   UNL d   1      24.625 -17.890  -0.348  0.00  0.00     0.042 A 
ATOM     19  C   UNL d   1      23.907 -19.044  -0.700  0.00  0.00     0.033 A 
ATOM     20  C   UNL d   1      22.524 -18.979  -0.987  0.00  0.00     0.039 A 
ATOM     21  C   UNL d   1      21.820 -17.779  -0.853  0.00  0.00     0.068 A 
ATOM     22  C   UNL d   1      22.515 -16.650  -0.440  0.00  0.00     0.039 A 
ATOM     23  C   UNL d   1      23.895 -16.709  -0.191  0.00  0.00     0.033 A 
BRANCH  21  24
ATOM     24  O   UNL d   1      20.464 -17.826  -1.037  0.00  0.00    -0.352 OA
BRANCH  24  25
ATOM     25  C   UNL d   1      19.856 -19.116  -0.891  0.00  0.00     0.171 C 
ATOM     26  C   UNL d   1      19.569 -19.366   0.582  0.00  0.00     0.034 C 
ENDBRANCH  24  25
ENDBRANCH  21  24
ENDBRANCH  16  18
ENDBRANCH  13  16
ENDBRANCH   1  13
BRANCH   9  27
ATOM     27  C   UNL d   1      29.695 -16.159  -5.005  0.00  0.00     0.249 C 
ATOM     28  O   UNL d   1      30.363 -15.984  -3.986  0.00  0.00    -0.268 OA
ATOM     29  N   UNL d   1      30.191 -17.091  -5.873  0.00  0.00    -0.357 N 
ATOM     30  H   UNL d   1      29.745 -17.261  -6.765  0.00  0.00     0.162 HD
BRANCH  29  31
ATOM     31  C   UNL d   1      31.493 -17.706  -5.529  0.00  0.00     0.124 C 
BRANCH  31  32
ATOM     32  C   UNL d   1      31.275 -18.986  -4.766  0.00  0.00     0.040 C 
BRANCH  32  33
ATOM     33  C   UNL d   1      32.239 -19.257  -3.615  0.00  0.00     0.130 C 
BRANCH  33  34
ATOM     34  N   UNL d   1      31.821 -18.532  -2.389  0.00  0.00    -0.352 N 
ATOM     35  C   UNL d   1      32.315 -17.309  -1.929  0.00  0.00     0.108 A 
ATOM     36  C   UNL d   1      31.649 -17.009  -0.780  0.00  0.00     0.106 A 
ATOM     37  N   UNL d   1      30.780 -18.046  -0.562  0.00  0.00    -0.361 N 
ATOM     38  C   UNL d   1      30.883 -18.966  -1.527  0.00  0.00     0.182 A 
ATOM     39  H   UNL d   1      30.139 -18.112   0.226  0.00  0.00     0.166 HD
ENDBRANCH  33  34
ENDBRANCH  32  33
ENDBRANCH  31  32
ENDBRANCH  29  31
ENDBRANCH   9  27
TORSDOF 10
ENDMDL
MODEL 6
REMARK VINA RESULT:    -8.029      5.818      7.707
REMARK INTER + INTRA:         -14.036
REMARK INTER:                 -11.012
REMARK INTRA:                  -3.024
REMARK CONF_INDEPENDENT:        2.983
REMARK UNBOUND:                -3.024
REMARK  10 active torsions:
REMARK  status: ('A' for Active; 'I' for Inactive)
REMARK    1  A    between atoms: C_2  and  O_3 
REMARK    2  A    between atoms: O_3  and  C_4 
REMARK    3  A    between atoms: C_7  and  N_8 
REMARK    4  A    between atoms: N_8  and  S_9 
REMARK    5  A    between atoms: S_9  and  C_12 
REMARK    6  A    between atoms: C_20  and  C_21 
REMARK       I    between atoms: C_21  and  N_23 
REMARK    7  A    between atoms: N_23  and  C_24 
REMARK    8  A    between atoms: C_24  and  C_25 
REMARK    9  A    between atoms: C_25  and  C_26 
REMARK   10  A    between atoms: C_26  and  N_27 
ROOT
ATOM      1  C   UNL d   1      26.354 -14.888  -2.488  0.00  0.00     0.080 A 
ATOM      2  C   UNL d   1      25.161 -14.163  -2.545  0.00  0.00     0.027 A 
ATOM      3  C   UNL d   1      24.915 -13.284  -3.620  0.00  0.00     0.032 A 
ATOM      4  C   UNL d   1      25.894 -13.092  -4.604  0.00  0.00     0.045 A 
ATOM      5  N   UNL d   1      25.852 -12.029  -5.534  0.00  0.00    -0.326 N 
ATOM      6  C   UNL d   1      27.122 -11.667  -6.021  0.00  0.00     0.232 C 
ATOM      7  O   UNL d   1      27.673 -10.616  -5.924  0.00  0.00    -0.272 OA
ATOM      8  C   UNL d   1      27.780 -12.821  -6.835  0.00  0.00     0.135 C 
ATOM      9  C   UNL d   1      28.020 -13.652  -5.783  0.00  0.00     0.036 C 
ATOM     10  C   UNL d   1      27.069 -13.854  -4.604  0.00  0.00     0.005 A 
ATOM     11  C   UNL d   1      27.296 -14.705  -3.494  0.00  0.00     0.039 A 
ATOM     12  H   UNL d   1      25.154 -11.305  -5.404  0.00  0.00     0.169 HD
ENDROOT
BRANCH   1  13
ATOM     13  S   UNL d   1      26.620 -16.089  -1.174  0.00  0.00     0.263 S 
ATOM     14  O   UNL d   1      27.702 -15.548  -0.378  0.00  0.00    -0.200 OA
ATOM     15  O   UNL d   1      26.732 -17.384  -1.812  0.00  0.00    -0.200 OA
BRANCH  13  16
ATOM     16  N   UNL d   1      25.239 -16.128  -0.179  0.00  0.00    -0.281 N 
ATOM     17  H   UNL d   1      25.256 -15.646   0.716  0.00  0.00     0.179 HD
BRANCH  16  18
ATOM     18  C   UNL d   1      24.155 -17.055  -0.448  0.00  0.00     0.042 A 
ATOM     19  C   UNL d   1      22.863 -16.574  -0.711  0.00  0.00     0.033 A 
ATOM     20  C   UNL d   1      21.780 -17.465  -0.895  0.00  0.00     0.039 A 
ATOM     21  C   UNL d   1      21.982 -18.847  -0.895  0.00  0.00     0.068 A 
ATOM     22  C   UNL d   1      23.272 -19.325  -0.701  0.00  0.00     0.039 A 
ATOM     23  C   UNL d   1      24.339 -18.439  -0.483  0.00  0.00     0.033 A 
BRANCH  21  24
ATOM     24  O   UNL d   1      20.904 -19.637  -1.195  0.00  0.00    -0.352 OA
BRANCH  24  25
ATOM     25  C   UNL d   1      19.688 -19.325  -0.503  0.00  0.00     0.171 C 
ATOM     26  C   UNL d   1      19.352 -20.464   0.448  0.00  0.00     0.034 C 
ENDBRANCH  24  25
ENDBRANCH  21  24
ENDBRANCH  16  18
ENDBRANCH  13  16
ENDBRANCH   1  13
BRANCH   9  27
ATOM     27  C   UNL d   1      29.312 -14.462  -5.745  0.00  0.00     0.249 C 
ATOM     28  O   UNL d   1      30.035 -14.434  -4.749  0.00  0.00    -0.268 OA
ATOM     29  N   UNL d   1      29.765 -15.243  -6.771  0.00  0.00    -0.357 N 
ATOM     30  H   UNL d   1      29.271 -15.281  -7.653  0.00  0.00     0.162 HD
BRANCH  29  31
ATOM     31  C   UNL d   1      31.087 -15.884  -6.597  0.00  0.00     0.124 C 
BRANCH  31  32
ATOM     32  C   UNL d   1      30.919 -17.363  -6.370  0.00  0.00     0.040 C 
BRANCH  32  33
ATOM     33  C   UNL d   1      31.643 -17.947  -5.160  0.00  0.00     0.130 C 
BRANCH  33  34
ATOM     34  N   UNL d   1      31.021 -17.486  -3.894  0.00  0.00    -0.352 N 
ATOM     35  C   UNL d   1      31.653 -17.322  -2.660  0.00  0.00     0.108 A 
ATOM     36  C   UNL d   1      30.716 -16.875  -1.780  0.00  0.00     0.106 A 
ATOM     37  N   UNL d   1      29.544 -16.783  -2.485  0.00  0.00    -0.361 N 
ATOM     38  C   UNL d   1      29.724 -17.153  -3.758  0.00  0.00     0.182 A 
ATOM     39  H   UNL d   1      28.655 -16.475  -2.098  0.00  0.00     0.166 HD
ENDBRANCH  33  34
ENDBRANCH  32  33
ENDBRANCH  31  32
ENDBRANCH  29  31
ENDBRANCH   9  27
TORSDOF 10
ENDMDL
MODEL 7
REMARK VINA RESULT:    -7.991      6.173      8.565
REMARK INTER + INTRA:         -13.488
REMARK INTER:                 -10.974
REMARK INTRA:                  -2.514
REMARK CONF_INDEPENDENT:        2.983
REMARK UNBOUND:                -2.514
REMARK  10 active torsions:
REMARK  status: ('A' for Active; 'I' for Inactive)
REMARK    1  A    between atoms: C_2  and  O_3 
REMARK    2  A    between atoms: O_3  and  C_4 
REMARK    3  A    between atoms: C_7  and  N_8 
REMARK    4  A    between atoms: N_8  and  S_9 
REMARK    5  A    between atoms: S_9  and  C_12 
REMARK    6  A    between atoms: C_20  and  C_21 
REMARK       I    between atoms: C_21  and  N_23 
REMARK    7  A    between atoms: N_23  and  C_24 
REMARK    8  A    between atoms: C_24  and  C_25 
REMARK    9  A    between atoms: C_25  and  C_26 
REMARK   10  A    between atoms: C_26  and  N_27 
ROOT
ATOM      1  C   UNL d   1      26.618 -14.069  -4.358  0.00  0.00     0.080 A 
ATOM      2  C   UNL d   1      27.666 -14.964  -4.584  0.00  0.00     0.027 A 
ATOM      3  C   UNL d   1      28.595 -14.725  -5.617  0.00  0.00     0.032 A 
ATOM      4  C   UNL d   1      28.435 -13.615  -6.457  0.00  0.00     0.045 A 
ATOM      5  N   UNL d   1      29.133 -13.467  -7.677  0.00  0.00    -0.326 N 
ATOM      6  C   UNL d   1      28.458 -12.654  -8.608  0.00  0.00     0.232 C 
ATOM      7  O   UNL d   1      28.065 -12.950  -9.691  0.00  0.00    -0.272 OA
ATOM      8  C   UNL d   1      28.319 -11.187  -8.101  0.00  0.00     0.135 C 
ATOM      9  C   UNL d   1      27.413 -11.437  -7.114  0.00  0.00     0.036 C 
ATOM     10  C   UNL d   1      27.433 -12.669  -6.211  0.00  0.00     0.005 A 
ATOM     11  C   UNL d   1      26.500 -12.957  -5.184  0.00  0.00     0.039 A 
ATOM     12  H   UNL d   1      29.675 -14.252  -8.019  0.00  0.00     0.169 HD
ENDROOT
BRANCH   1  13
ATOM     13  S   UNL d   1      25.498 -14.319  -2.971  0.00  0.00     0.263 S 
ATOM     14  O   UNL d   1      24.176 -14.382  -3.559  0.00  0.00    -0.200 OA
ATOM     15  O   UNL d   1      25.832 -13.316  -1.981  0.00  0.00    -0.200 OA
BRANCH  13  16
ATOM     16  N   UNL d   1      25.812 -15.844  -2.280  0.00  0.00    -0.281 N 
ATOM     17  H   UNL d   1      26.648 -16.351  -2.554  0.00  0.00     0.179 HD
BRANCH  16  18
ATOM     18  C   UNL d   1      24.784 -16.547  -1.535  0.00  0.00     0.042 A 
ATOM     19  C   UNL d   1      25.039 -17.825  -1.014  0.00  0.00     0.033 A 
ATOM     20  C   UNL d   1      24.023 -18.556  -0.356  0.00  0.00     0.039 A 
ATOM     21  C   UNL d   1      22.761 -17.995  -0.142  0.00  0.00     0.068 A 
ATOM     22  C   UNL d   1      22.527 -16.705  -0.597  0.00  0.00     0.039 A 
ATOM     23  C   UNL d   1      23.527 -15.995  -1.282  0.00  0.00     0.033 A 
BRANCH  21  24
ATOM     24  O   UNL d   1      21.872 -18.723   0.603  0.00  0.00    -0.352 OA
BRANCH  24  25
ATOM     25  C   UNL d   1      20.780 -19.308  -0.119  0.00  0.00     0.171 C 
ATOM     26  C   UNL d   1      20.018 -20.244   0.806  0.00  0.00     0.034 C 
ENDBRANCH  24  25
ENDBRANCH  21  24
ENDBRANCH  16  18
ENDBRANCH  13  16
ENDBRANCH   1  13
BRANCH   9  27
ATOM     27  C   UNL d   1      26.290 -10.436  -6.855  0.00  0.00     0.249 C 
ATOM     28  O   UNL d   1      25.154 -10.830  -6.592  0.00  0.00    -0.268 OA
ATOM     29  N   UNL d   1      26.439  -9.079  -6.903  0.00  0.00    -0.357 N 
ATOM     30  H   UNL d   1      27.320  -8.661  -7.171  0.00  0.00     0.162 HD
BRANCH  29  31
ATOM     31  C   UNL d   1      25.220  -8.260  -6.718  0.00  0.00     0.124 C 
BRANCH  31  32
ATOM     32  C   UNL d   1      25.199  -7.668  -5.334  0.00  0.00     0.040 C 
BRANCH  32  33
ATOM     33  C   UNL d   1      24.799  -8.610  -4.203  0.00  0.00     0.130 C 
BRANCH  33  34
ATOM     34  N   UNL d   1      25.967  -9.392  -3.724  0.00  0.00    -0.352 N 
ATOM     35  C   UNL d   1      27.310  -9.014  -3.782  0.00  0.00     0.108 A 
ATOM     36  C   UNL d   1      28.039 -10.020  -3.226  0.00  0.00     0.106 A 
ATOM     37  N   UNL d   1      27.137 -10.982  -2.851  0.00  0.00    -0.361 N 
ATOM     38  C   UNL d   1      25.889 -10.608  -3.152  0.00  0.00     0.182 A 
ATOM     39  H   UNL d   1      27.379 -11.863  -2.403  0.00  0.00     0.166 HD
ENDBRANCH  33  34
ENDBRANCH  32  33
ENDBRANCH  31  32
ENDBRANCH  29  31
ENDBRANCH   9  27
TORSDOF 10
ENDMDL
MODEL 8
REMARK VINA RESULT:    -7.625      4.692      7.075
REMARK INTER + INTRA:         -13.294
REMARK INTER:                 -10.608
REMARK INTRA:                  -2.686
REMARK CONF_INDEPENDENT:        2.983
REMARK UNBOUND:                -2.686
REMARK  10 active torsions:
REMARK  status: ('A' for Active; 'I' for Inactive)
REMARK    1  A    between atoms: C_2  and  O_3 
REMARK    2  A    between atoms: O_3  and  C_4 
REMARK    3  A    between atoms: C_7  and  N_8 
REMARK    4  A    between atoms: N_8  and  S_9 
REMARK    5  A    between atoms: S_9  and  C_12 
REMARK    6  A    between atoms: C_20  and  C_21 
REMARK       I    between atoms: C_21  and  N_23 
REMARK    7  A    between atoms: N_23  and  C_24 
REMARK    8  A    between atoms: C_24  and  C_25 
REMARK    9  A    between atoms: C_25  and  C_26 
REMARK   10  A    between atoms: C_26  and  N_27 
ROOT
ATOM      1  C   UNL d   1      27.309 -14.704  -4.538  0.00  0.00     0.080 A 
ATOM      2  C   UNL d   1      27.203 -13.865  -5.650  0.00  0.00     0.027 A 
ATOM      3  C   UNL d   1      28.155 -13.937  -6.688  0.00  0.00     0.032 A 
ATOM      4  C   UNL d   1      29.243 -14.811  -6.578  0.00  0.00     0.045 A 
ATOM      5  N   UNL d   1      30.379 -14.734  -7.415  0.00  0.00    -0.326 N 
ATOM      6  C   UNL d   1      31.543 -15.260  -6.822  0.00  0.00     0.232 C 
ATOM      7  O   UNL d   1      32.564 -14.697  -6.583  0.00  0.00    -0.272 OA
ATOM      8  C   UNL d   1      31.412 -16.788  -6.546  0.00  0.00     0.135 C 
ATOM      9  C   UNL d   1      30.501 -16.698  -5.537  0.00  0.00     0.036 C 
ATOM     10  C   UNL d   1      29.337 -15.708  -5.506  0.00  0.00     0.005 A 
ATOM     11  C   UNL d   1      28.380 -15.587  -4.468  0.00  0.00     0.039 A 
ATOM     12  H   UNL d   1      30.466 -13.937  -8.036  0.00  0.00     0.169 HD
ENDROOT
BRANCH   1  13
ATOM     13  S   UNL d   1      26.035 -14.687  -3.268  0.00  0.00     0.263 S 
ATOM     14  O   UNL d   1      24.783 -14.819  -3.985  0.00  0.00    -0.200 OA
ATOM     15  O   UNL d   1      26.300 -13.537  -2.429  0.00  0.00    -0.200 OA
BRANCH  13  16
ATOM     16  N   UNL d   1      26.206 -16.077  -2.299  0.00  0.00    -0.281 N 
ATOM     17  H   UNL d   1      27.041 -16.648  -2.391  0.00  0.00     0.179 HD
BRANCH  16  18
ATOM     18  C   UNL d   1      25.077 -16.611  -1.561  0.00  0.00     0.042 A 
ATOM     19  C   UNL d   1      25.200 -17.820  -0.858  0.00  0.00     0.033 A 
ATOM     20  C   UNL d   1      24.087 -18.395  -0.202  0.00  0.00     0.039 A 
ATOM     21  C   UNL d   1      22.855 -17.736  -0.171  0.00  0.00     0.068 A 
ATOM     22  C   UNL d   1      22.749 -16.507  -0.809  0.00  0.00     0.039 A 
ATOM     23  C   UNL d   1      23.845 -15.956  -1.490  0.00  0.00     0.033 A 
BRANCH  21  24
ATOM     24  O   UNL d   1      21.862 -18.303   0.583  0.00  0.00    -0.352 OA
BRANCH  24  25
ATOM     25  C   UNL d   1      21.204 -19.436   0.002  0.00  0.00     0.171 C 
ATOM     26  C   UNL d   1      20.075 -18.950  -0.895  0.00  0.00     0.034 C 
ENDBRANCH  24  25
ENDBRANCH  21  24
ENDBRANCH  16  18
ENDBRANCH  13  16
ENDBRANCH   1  13
BRANCH   9  27
ATOM     27  C   UNL d   1      30.609 -17.639  -4.342  0.00  0.00     0.249 C 
ATOM     28  O   UNL d   1      30.301 -18.826  -4.454  0.00  0.00    -0.268 OA
ATOM     29  N   UNL d   1      31.025 -17.262  -3.096  0.00  0.00    -0.357 N 
ATOM     30  H   UNL d   1      31.241 -16.295  -2.890  0.00  0.00     0.162 HD
BRANCH  29  31
ATOM     31  C   UNL d   1      30.978 -18.288  -2.030  0.00  0.00     0.124 C 
BRANCH  31  32
ATOM     32  C   UNL d   1      29.998 -17.880  -0.962  0.00  0.00     0.040 C 
BRANCH  32  33
ATOM     33  C   UNL d   1      30.294 -16.569  -0.240  0.00  0.00     0.130 C 
BRANCH  33  34
ATOM     34  N   UNL d   1      29.062 -15.755  -0.089  0.00  0.00    -0.352 N 
ATOM     35  C   UNL d   1      27.902 -16.110   0.604  0.00  0.00     0.108 A 
ATOM     36  C   UNL d   1      27.030 -15.071   0.497  0.00  0.00     0.106 A 
ATOM     37  N   UNL d   1      27.665 -14.118  -0.257  0.00  0.00    -0.361 N 
ATOM     38  C   UNL d   1      28.888 -14.528  -0.613  0.00  0.00     0.182 A 
ATOM     39  H   UNL d   1      27.266 -13.218  -0.513  0.00  0.00     0.166 HD
ENDBRANCH  33  34
ENDBRANCH  32  33
ENDBRANCH  31  32
ENDBRANCH  29  31
ENDBRANCH   9  27
TORSDOF 10
ENDMDL
MODEL 9
REMARK VINA RESULT:    -7.350      2.785      4.839
REMARK INTER + INTRA:         -13.255
REMARK INTER:                 -10.333
REMARK INTRA:                  -2.922
REMARK CONF_INDEPENDENT:        2.983
REMARK UNBOUND:                -2.922
REMARK  10 active torsions:
REMARK  status: ('A' for Active; 'I' for Inactive)
REMARK    1  A    between atoms: C_2  and  O_3 
REMARK    2  A    between atoms: O_3  and  C_4 
REMARK    3  A    between atoms: C_7  and  N_8 
REMARK    4  A    between atoms: N_8  and  S_9 
REMARK    5  A    between atoms: S_9  and  C_12 
REMARK    6  A    between atoms: C_20  and  C_21 
REMARK       I    between atoms: C_21  and  N_23 
REMARK    7  A    between atoms: N_23  and  C_24 
REMARK    8  A    between atoms: C_24  and  C_25 
REMARK    9  A    between atoms: C_25  and  C_26 
REMARK   10  A    between atoms: C_26  and  N_27 
ROOT
ATOM      1  C   UNL d   1      26.364 -14.198  -1.873  0.00  0.00     0.080 A 
ATOM      2  C   UNL d   1      25.701 -14.598  -3.036  0.00  0.00     0.027 A 
ATOM      3  C   UNL d   1      25.534 -13.694  -4.105  0.00  0.00     0.032 A 
ATOM      4  C   UNL d   1      25.982 -12.373  -3.980  0.00  0.00     0.045 A 
ATOM      5  N   UNL d   1      25.597 -11.343  -4.867  0.00  0.00    -0.326 N 
ATOM      6  C   UNL d   1      25.653 -10.061  -4.288  0.00  0.00     0.232 C 
ATOM      7  O   UNL d   1      24.764  -9.286  -4.132  0.00  0.00    -0.272 OA
ATOM      8  C   UNL d   1      27.110  -9.665  -3.900  0.00  0.00     0.135 C 
ATOM      9  C   UNL d   1      27.249 -10.537  -2.862  0.00  0.00     0.036 C 
ATOM     10  C   UNL d   1      26.706 -11.966  -2.852  0.00  0.00     0.005 A 
ATOM     11  C   UNL d   1      26.829 -12.891  -1.786  0.00  0.00     0.039 A 
ATOM     12  H   UNL d   1      24.869 -11.540  -5.545  0.00  0.00     0.169 HD
ENDROOT
BRANCH   1  13
ATOM     13  S   UNL d   1      26.671 -15.383  -0.554  0.00  0.00     0.263 S 
ATOM     14  O   UNL d   1      25.814 -14.967   0.537  0.00  0.00    -0.200 OA
ATOM     15  O   UNL d   1      28.108 -15.460  -0.392  0.00  0.00    -0.200 OA
BRANCH  13  16
ATOM     16  N   UNL d   1      26.130 -16.917  -1.058  0.00  0.00    -0.281 N 
ATOM     17  H   UNL d   1      26.740 -17.498  -1.627  0.00  0.00     0.179 HD
BRANCH  16  18
ATOM     18  C   UNL d   1      24.734 -17.291  -0.932  0.00  0.00     0.042 A 
ATOM     19  C   UNL d   1      23.728 -16.322  -1.075  0.00  0.00     0.033 A 
ATOM     20  C   UNL d   1      22.368 -16.653  -0.874  0.00  0.00     0.039 A 
ATOM     21  C   UNL d   1      21.983 -17.968  -0.603  0.00  0.00     0.068 A 
ATOM     22  C   UNL d   1      22.971 -18.941  -0.527  0.00  0.00     0.039 A 
ATOM     23  C   UNL d   1      24.324 -18.603  -0.691  0.00  0.00     0.033 A 
BRANCH  21  24
ATOM     24  O   UNL d   1      20.640 -18.226  -0.537  0.00  0.00    -0.352 OA
BRANCH  24  25
ATOM     25  C   UNL d   1      20.273 -19.601  -0.365  0.00  0.00     0.171 C 
ATOM     26  C   UNL d   1      19.757 -19.804   1.052  0.00  0.00     0.034 C 
ENDBRANCH  24  25
ENDBRANCH  21  24
ENDBRANCH  16  18
ENDBRANCH  13  16
ENDBRANCH   1  13
BRANCH   9  27
ATOM     27  C   UNL d   1      28.001 -10.100  -1.609  0.00  0.00     0.249 C 
ATOM     28  O   UNL d   1      29.230 -10.044  -1.608  0.00  0.00    -0.268 OA
ATOM     29  N   UNL d   1      27.402  -9.760  -0.428  0.00  0.00    -0.357 N 
ATOM     30  H   UNL d   1      26.400  -9.834  -0.312  0.00  0.00     0.162 HD
BRANCH  29  31
ATOM     31  C   UNL d   1      28.292  -9.451   0.714  0.00  0.00     0.124 C 
BRANCH  31  32
ATOM     32  C   UNL d   1      27.476  -9.027   1.905  0.00  0.00     0.040 C 
BRANCH  32  33
ATOM     33  C   UNL d   1      26.436 -10.027   2.401  0.00  0.00     0.130 C 
BRANCH  33  34
ATOM     34  N   UNL d   1      27.003 -11.396   2.468  0.00  0.00    -0.352 N 
ATOM     35  C   UNL d   1      27.647 -11.986   3.558  0.00  0.00     0.108 A 
ATOM     36  C   UNL d   1      27.997 -13.248   3.189  0.00  0.00     0.106 A 
ATOM     37  N   UNL d   1      27.571 -13.399   1.895  0.00  0.00    -0.361 N 
ATOM     38  C   UNL d   1      26.974 -12.284   1.457  0.00  0.00     0.182 A 
ATOM     39  H   UNL d   1      27.688 -14.242   1.338  0.00  0.00     0.166 HD
ENDBRANCH  33  34
ENDBRANCH  32  33
ENDBRANCH  31  32
ENDBRANCH  29  31
ENDBRANCH   9  27
TORSDOF 10
ENDMDL
