MODEL 1
REMARK VINA RESULT:    -6.284      0.000      0.000
REMARK INTER + INTRA:         -10.343
REMARK INTER:                  -7.478
REMARK INTRA:                  -2.866
REMARK CONF_INDEPENDENT:        1.193
REMARK UNBOUND:                -2.866
REMARK  4 active torsions:
REMARK  status: ('A' for Active; 'I' for Inactive)
REMARK    1  A    between atoms: C_4  and  C_5 
REMARK    2  A    between atoms: C_13  and  C_14 
REMARK    3  A    between atoms: N_24  and  C_25 
REMARK    4  A    between atoms: C_30  and  C_31 
ROOT
ATOM      1  C   UNL d   1      30.948 -21.306  -4.186  0.00  0.00     0.063 C 
ATOM      2  C   UNL d   1      30.405 -20.026  -4.998  0.00  0.00     0.004 C 
ATOM      3  C   UNL d   1      30.669 -18.793  -4.515  0.00  0.00    -0.008 C 
ATOM      4  C   UNL d   1      31.194 -18.398  -3.170  0.00  0.00     0.126 C 
ATOM      5  C   UNL d   1      30.170 -17.450  -2.679  0.00  0.00     0.026 C 
ATOM      6  C   UNL d   1      29.433 -16.713  -3.540  0.00  0.00     0.018 C 
ATOM      7  C   UNL d   1      28.349 -15.843  -3.038  0.00  0.00     0.067 C 
ATOM      8  C   UNL d   1      28.071 -15.907  -1.524  0.00  0.00     0.038 C 
ATOM      9  C   UNL d   1      29.021 -16.641  -0.582  0.00  0.00     0.094 C 
ATOM     10  C   UNL d   1      30.031 -17.497  -1.221  0.00  0.00     0.159 C 
ATOM     11  O   UNL d   1      30.784 -18.194  -0.537  0.00  0.00    -0.293 OA
ATOM     12  N   UNL d   1      29.623 -16.763  -4.947  0.00  0.00    -0.371 N 
ATOM     13  C   UNL d   1      30.666 -17.627  -5.540  0.00  0.00     0.210 C 
ATOM     14  N   UNL d   1      30.536 -18.296  -6.926  0.00  0.00    -0.185 NA
ATOM     15  N   UNL d   1      30.141 -19.837  -6.428  0.00  0.00    -0.222 NA
ATOM     16  H   UNL d   1      28.821 -16.567  -5.544  0.00  0.00     0.161 HD
ATOM     17  H   UNL d   1      30.615 -20.558  -7.000  0.00  0.00     0.147 HD
ENDROOT
BRANCH  14  18
ATOM     18  C   UNL d   1      31.889 -18.254  -7.695  0.00  0.00     0.045 C 
ATOM     19  C   UNL d   1      33.193 -17.757  -7.427  0.00  0.00     0.026 C 
ATOM     20  C   UNL d   1      34.128 -17.586  -8.554  0.00  0.00     0.002 C 
ATOM     21  C   UNL d   1      33.843 -17.984  -9.874  0.00  0.00     0.001 C 
ATOM     22  C   UNL d   1      32.655 -18.575 -10.089  0.00  0.00     0.020 C 
ATOM     23  C   UNL d   1      31.807 -18.749  -9.004  0.00  0.00     0.063 C 
BRANCH  23  24
ATOM     24  C   UNL d   1      31.068 -19.959  -9.185  0.00  0.00     0.211 C 
ATOM     25  O   UNL d   1      30.162 -19.885 -10.107  0.00  0.00    -0.644 OA
ATOM     26  O   UNL d   1      31.463 -20.938  -8.542  0.00  0.00    -0.644 OA
ENDBRANCH  23  24
ENDBRANCH  14  18
BRANCH   4  27
ATOM     27  C   UNL d   1      32.583 -17.721  -3.023  0.00  0.00     0.094 A 
ATOM     28  N   UNL d   1      33.379 -17.244  -4.012  0.00  0.00    -0.354 N 
ATOM     29  C   UNL d   1      34.464 -16.567  -3.520  0.00  0.00     0.106 A 
ATOM     30  H   UNL d   1      33.210 -17.452  -4.987  0.00  0.00     0.166 HD
ATOM     31  C   UNL d   1      34.302 -16.516  -2.171  0.00  0.00     0.106 A 
ATOM     32  N   UNL d   1      33.143 -17.207  -1.896  0.00  0.00    -0.354 N 
ATOM     33  H   UNL d   1      32.743 -17.357  -0.974  0.00  0.00     0.166 HD
ENDBRANCH   4  27
BRANCH   8  34
ATOM     34  C   UNL d   1      26.734 -16.556  -1.374  0.00  0.00    -0.013 A 
ATOM     35  C   UNL d   1      25.622 -16.299  -2.151  0.00  0.00     0.015 A 
ATOM     36  C   UNL d   1      24.492 -17.005  -1.686  0.00  0.00     0.008 A 
ATOM     37  C   UNL d   1      24.795 -17.792  -0.598  0.00  0.00     0.050 A 
ATOM     38  S   UNL d   1      26.439 -17.690  -0.145  0.00  0.00    -0.106 SA
ENDBRANCH   8  34
TORSDOF 4
ENDMDL
MODEL 2
REMARK VINA RESULT:    -6.256      3.956      8.771
REMARK INTER + INTRA:         -10.217
REMARK INTER:                  -7.449
REMARK INTRA:                  -2.768
REMARK CONF_INDEPENDENT:        1.193
REMARK UNBOUND:                -2.768
REMARK  4 active torsions:
REMARK  status: ('A' for Active; 'I' for Inactive)
REMARK    1  A    between atoms: C_4  and  C_5 
REMARK    2  A    between atoms: C_13  and  C_14 
REMARK    3  A    between atoms: N_24  and  C_25 
REMARK    4  A    between atoms: C_30  and  C_31 
ROOT
ATOM      1  C   UNL d   1      25.677 -17.075  -1.478  0.00  0.00     0.063 C 
ATOM      2  C   UNL d   1      27.187 -16.602  -1.176  0.00  0.00     0.004 C 
ATOM      3  C   UNL d   1      27.700 -15.578  -1.892  0.00  0.00    -0.008 C 
ATOM      4  C   UNL d   1      27.170 -14.935  -3.135  0.00  0.00     0.126 C 
ATOM      5  C   UNL d   1      28.303 -15.053  -4.079  0.00  0.00     0.026 C 
ATOM      6  C   UNL d   1      29.579 -15.090  -3.633  0.00  0.00     0.018 C 
ATOM      7  C   UNL d   1      30.693 -15.305  -4.581  0.00  0.00     0.067 C 
ATOM      8  C   UNL d   1      30.299 -15.566  -6.047  0.00  0.00     0.038 C 
ATOM      9  C   UNL d   1      28.862 -15.370  -6.520  0.00  0.00     0.094 C 
ATOM     10  C   UNL d   1      27.852 -15.200  -5.465  0.00  0.00     0.159 C 
ATOM     11  O   UNL d   1      26.655 -15.123  -5.751  0.00  0.00    -0.293 OA
ATOM     12  N   UNL d   1      29.913 -14.972  -2.258  0.00  0.00    -0.371 N 
ATOM     13  C   UNL d   1      28.862 -14.783  -1.236  0.00  0.00     0.210 C 
ATOM     14  N   UNL d   1      28.966 -15.319   0.208  0.00  0.00    -0.185 NA
ATOM     15  N   UNL d   1      27.983 -16.657   0.055  0.00  0.00    -0.222 NA
ATOM     16  H   UNL d   1      30.766 -15.425  -1.933  0.00  0.00     0.161 HD
ATOM     17  H   UNL d   1      27.383 -16.790   0.888  0.00  0.00     0.147 HD
ENDROOT
BRANCH  14  18
ATOM     18  C   UNL d   1      28.401 -14.288   1.229  0.00  0.00     0.045 C 
ATOM     19  C   UNL d   1      27.728 -14.363   2.478  0.00  0.00     0.026 C 
ATOM     20  C   UNL d   1      27.030 -13.164   2.977  0.00  0.00     0.002 C 
ATOM     21  C   UNL d   1      27.076 -11.911   2.337  0.00  0.00     0.001 C 
ATOM     22  C   UNL d   1      27.826 -11.821   1.225  0.00  0.00     0.020 C 
ATOM     23  C   UNL d   1      28.495 -12.958   0.796  0.00  0.00     0.063 C 
BRANCH  23  24
ATOM     24  C   UNL d   1      29.731 -12.568   0.193  0.00  0.00     0.211 C 
ATOM     25  O   UNL d   1      29.588 -11.923  -0.921  0.00  0.00    -0.644 OA
ATOM     26  O   UNL d   1      30.750 -12.778   0.860  0.00  0.00    -0.644 OA
ENDBRANCH  23  24
ENDBRANCH  14  18
BRANCH   4  27
ATOM     27  C   UNL d   1      26.701 -13.456  -3.132  0.00  0.00     0.094 A 
ATOM     28  N   UNL d   1      27.096 -12.466  -2.293  0.00  0.00    -0.354 N 
ATOM     29  C   UNL d   1      26.603 -11.244  -2.669  0.00  0.00     0.106 A 
ATOM     30  H   UNL d   1      27.622 -12.652  -1.450  0.00  0.00     0.166 HD
ATOM     31  C   UNL d   1      25.959 -11.440  -3.851  0.00  0.00     0.106 A 
ATOM     32  N   UNL d   1      26.049 -12.787  -4.119  0.00  0.00    -0.354 N 
ATOM     33  H   UNL d   1      25.662 -13.261  -4.931  0.00  0.00     0.166 HD
ENDBRANCH   4  27
BRANCH   8  34
ATOM     34  C   UNL d   1      30.651 -16.991  -6.324  0.00  0.00    -0.013 A 
ATOM     35  C   UNL d   1      31.155 -17.480  -7.513  0.00  0.00     0.015 A 
ATOM     36  C   UNL d   1      31.285 -18.885  -7.480  0.00  0.00     0.008 A 
ATOM     37  C   UNL d   1      30.906 -19.404  -6.263  0.00  0.00     0.050 A 
ATOM     38  S   UNL d   1      30.405 -18.201  -5.159  0.00  0.00    -0.106 SA
ENDBRANCH   8  34
TORSDOF 4
ENDMDL
MODEL 3
REMARK VINA RESULT:    -6.212      6.520     10.325
REMARK INTER + INTRA:         -10.484
REMARK INTER:                  -7.406
REMARK INTRA:                  -3.078
REMARK CONF_INDEPENDENT:        1.193
REMARK UNBOUND:                -3.078
REMARK  4 active torsions:
REMARK  status: ('A' for Active; 'I' for Inactive)
REMARK    1  A    between atoms: C_4  and  C_5 
REMARK    2  A    between atoms: C_13  and  C_14 
REMARK    3  A    between atoms: N_24  and  C_25 
REMARK    4  A    between atoms: C_30  and  C_31 
ROOT
ATOM      1  C   UNL d   1      26.280 -10.797   1.766  0.00  0.00     0.063 C 
ATOM      2  C   UNL d   1      26.878 -12.129   2.446  0.00  0.00     0.004 C 
ATOM      3  C   UNL d   1      27.630 -12.960   1.692  0.00  0.00    -0.008 C 
ATOM      4  C   UNL d   1      27.811 -12.982   0.207  0.00  0.00     0.126 C 
ATOM      5  C   UNL d   1      27.432 -14.366  -0.154  0.00  0.00     0.026 C 
ATOM      6  C   UNL d   1      27.587 -15.382   0.724  0.00  0.00     0.018 C 
ATOM      7  C   UNL d   1      27.114 -16.741   0.384  0.00  0.00     0.067 C 
ATOM      8  C   UNL d   1      26.375 -16.887  -0.958  0.00  0.00     0.038 C 
ATOM      9  C   UNL d   1      26.354 -15.747  -1.972  0.00  0.00     0.094 C 
ATOM     10  C   UNL d   1      26.824 -14.441  -1.485  0.00  0.00     0.159 C 
ATOM     11  O   UNL d   1      26.761 -13.444  -2.207  0.00  0.00    -0.293 OA
ATOM     12  N   UNL d   1      28.160 -15.200   2.011  0.00  0.00    -0.371 N 
ATOM     13  C   UNL d   1      28.636 -13.870   2.448  0.00  0.00     0.210 C 
ATOM     14  N   UNL d   1      28.605 -13.389   3.915  0.00  0.00    -0.185 NA
ATOM     15  N   UNL d   1      27.257 -12.412   3.834  0.00  0.00    -0.222 NA
ATOM     16  H   UNL d   1      27.869 -15.829   2.757  0.00  0.00     0.161 HD
ATOM     17  H   UNL d   1      27.382 -11.540   4.378  0.00  0.00     0.147 HD
ENDROOT
BRANCH  14  18
ATOM     18  C   UNL d   1      29.893 -12.588   4.267  0.00  0.00     0.045 C 
ATOM     19  C   UNL d   1      31.141 -12.344   3.633  0.00  0.00     0.026 C 
ATOM     20  C   UNL d   1      32.255 -11.822   4.444  0.00  0.00     0.002 C 
ATOM     21  C   UNL d   1      32.130 -11.450   5.797  0.00  0.00     0.001 C 
ATOM     22  C   UNL d   1      30.909 -11.561   6.349  0.00  0.00     0.020 C 
ATOM     23  C   UNL d   1      29.873 -12.028   5.553  0.00  0.00     0.063 C 
BRANCH  23  24
ATOM     24  C   UNL d   1      28.658 -11.389   5.953  0.00  0.00     0.211 C 
ATOM     25  O   UNL d   1      28.568 -10.155   5.571  0.00  0.00    -0.644 OA
ATOM     26  O   UNL d   1      27.814 -12.115   6.489  0.00  0.00    -0.644 OA
ENDBRANCH  23  24
ENDBRANCH  14  18
BRANCH   4  27
ATOM     27  C   UNL d   1      29.193 -12.683  -0.434  0.00  0.00     0.094 A 
ATOM     28  N   UNL d   1      30.383 -12.536   0.200  0.00  0.00    -0.354 N 
ATOM     29  C   UNL d   1      31.428 -12.435  -0.681  0.00  0.00     0.106 A 
ATOM     30  H   UNL d   1      30.449 -12.432   1.204  0.00  0.00     0.166 HD
ATOM     31  C   UNL d   1      30.903 -12.632  -1.919  0.00  0.00     0.106 A 
ATOM     32  N   UNL d   1      29.548 -12.798  -1.741  0.00  0.00    -0.354 N 
ATOM     33  H   UNL d   1      28.865 -12.962  -2.476  0.00  0.00     0.166 HD
ENDBRANCH   4  27
BRANCH   8  34
ATOM     34  C   UNL d   1      24.951 -17.183  -0.618  0.00  0.00    -0.013 A 
ATOM     35  C   UNL d   1      24.513 -18.211   0.193  0.00  0.00     0.015 A 
ATOM     36  C   UNL d   1      23.104 -18.276   0.230  0.00  0.00     0.008 A 
ATOM     37  C   UNL d   1      22.527 -17.281  -0.526  0.00  0.00     0.050 A 
ATOM     38  S   UNL d   1      23.681 -16.264  -1.270  0.00  0.00    -0.106 SA
ENDBRANCH   8  34
TORSDOF 4
ENDMDL
MODEL 4
REMARK VINA RESULT:    -6.186      6.181     10.366
REMARK INTER + INTRA:         -10.056
REMARK INTER:                  -7.379
REMARK INTRA:                  -2.677
REMARK CONF_INDEPENDENT:        1.193
REMARK UNBOUND:                -2.677
REMARK  4 active torsions:
REMARK  status: ('A' for Active; 'I' for Inactive)
REMARK    1  A    between atoms: C_4  and  C_5 
REMARK    2  A    between atoms: C_13  and  C_14 
REMARK    3  A    between atoms: N_24  and  C_25 
REMARK    4  A    between atoms: C_30  and  C_31 
ROOT
ATOM      1  C   UNL d   1      27.403 -10.656  -1.071  0.00  0.00     0.063 C 
ATOM      2  C   UNL d   1      27.197 -11.367   0.359  0.00  0.00     0.004 C 
ATOM      3  C   UNL d   1      28.013 -12.389   0.698  0.00  0.00    -0.008 C 
ATOM      4  C   UNL d   1      28.961 -13.165  -0.161  0.00  0.00     0.126 C 
ATOM      5  C   UNL d   1      28.520 -14.563   0.039  0.00  0.00     0.026 C 
ATOM      6  C   UNL d   1      27.926 -14.948   1.190  0.00  0.00     0.018 C 
ATOM      7  C   UNL d   1      27.405 -16.324   1.336  0.00  0.00     0.067 C 
ATOM      8  C   UNL d   1      27.505 -17.225   0.091  0.00  0.00     0.038 C 
ATOM      9  C   UNL d   1      28.311 -16.791  -1.130  0.00  0.00     0.094 C 
ATOM     10  C   UNL d   1      28.737 -15.384  -1.156  0.00  0.00     0.159 C 
ATOM     11  O   UNL d   1      29.317 -14.924  -2.141  0.00  0.00    -0.293 OA
ATOM     12  N   UNL d   1      27.731 -14.064   2.284  0.00  0.00    -0.371 N 
ATOM     13  C   UNL d   1      28.194 -12.661   2.216  0.00  0.00     0.210 C 
ATOM     14  N   UNL d   1      27.487 -11.491   2.934  0.00  0.00    -0.185 NA
ATOM     15  N   UNL d   1      26.680 -10.843   1.627  0.00  0.00    -0.222 NA
ATOM     16  H   UNL d   1      26.940 -14.236   2.903  0.00  0.00     0.161 HD
ATOM     17  H   UNL d   1      26.693  -9.807   1.643  0.00  0.00     0.147 HD
ENDROOT
BRANCH  14  18
ATOM     18  C   UNL d   1      28.523 -10.498   3.537  0.00  0.00     0.045 C 
ATOM     19  C   UNL d   1      29.941 -10.424   3.597  0.00  0.00     0.026 C 
ATOM     20  C   UNL d   1      30.560  -9.508   4.572  0.00  0.00     0.002 C 
ATOM     21  C   UNL d   1      29.828  -8.620   5.383  0.00  0.00     0.001 C 
ATOM     22  C   UNL d   1      28.493  -8.605   5.221  0.00  0.00     0.020 C 
ATOM     23  C   UNL d   1      27.941  -9.458   4.276  0.00  0.00     0.063 C 
BRANCH  23  24
ATOM     24  C   UNL d   1      26.795  -8.828   3.699  0.00  0.00     0.211 C 
ATOM     25  O   UNL d   1      27.030  -7.645   3.229  0.00  0.00    -0.644 OA
ATOM     26  O   UNL d   1      25.779  -9.526   3.610  0.00  0.00    -0.644 OA
ENDBRANCH  23  24
ENDBRANCH  14  18
BRANCH   4  27
ATOM     27  C   UNL d   1      30.493 -13.106   0.084  0.00  0.00     0.094 A 
ATOM     28  N   UNL d   1      31.470 -13.682  -0.658  0.00  0.00    -0.354 N 
ATOM     29  C   UNL d   1      32.721 -13.298  -0.251  0.00  0.00     0.106 A 
ATOM     30  H   UNL d   1      31.271 -14.375  -1.367  0.00  0.00     0.166 HD
ATOM     31  C   UNL d   1      32.536 -12.360   0.716  0.00  0.00     0.106 A 
ATOM     32  N   UNL d   1      31.174 -12.248   0.888  0.00  0.00    -0.354 N 
ATOM     33  H   UNL d   1      30.705 -11.630   1.544  0.00  0.00     0.166 HD
ENDBRANCH   4  27
BRANCH   8  34
ATOM     34  C   UNL d   1      26.103 -17.443  -0.378  0.00  0.00    -0.013 A 
ATOM     35  C   UNL d   1      25.168 -18.259   0.227  0.00  0.00     0.015 A 
ATOM     36  C   UNL d   1      23.974 -18.321  -0.521  0.00  0.00     0.008 A 
ATOM     37  C   UNL d   1      24.035 -17.529  -1.645  0.00  0.00     0.050 A 
ATOM     38  S   UNL d   1      25.523 -16.704  -1.792  0.00  0.00    -0.106 SA
ENDBRANCH   8  34
TORSDOF 4
ENDMDL
MODEL 5
REMARK VINA RESULT:    -6.133      5.713      9.933
REMARK INTER + INTRA:          -9.960
REMARK INTER:                  -7.326
REMARK INTRA:                  -2.634
REMARK CONF_INDEPENDENT:        1.193
REMARK UNBOUND:                -2.634
REMARK  4 active torsions:
REMARK  status: ('A' for Active; 'I' for Inactive)
REMARK    1  A    between atoms: C_4  and  C_5 
REMARK    2  A    between atoms: C_13  and  C_14 
REMARK    3  A    between atoms: N_24  and  C_25 
REMARK    4  A    between atoms: C_30  and  C_31 
ROOT
ATOM      1  C   UNL d   1      31.282 -14.178  -0.585  0.00  0.00     0.063 C 
ATOM      2  C   UNL d   1      29.955 -13.345  -0.214  0.00  0.00     0.004 C 
ATOM      3  C   UNL d   1      28.750 -13.905  -0.456  0.00  0.00    -0.008 C 
ATOM      4  C   UNL d   1      28.418 -15.120  -1.265  0.00  0.00     0.126 C 
ATOM      5  C   UNL d   1      27.434 -14.607  -2.244  0.00  0.00     0.026 C 
ATOM      6  C   UNL d   1      26.638 -13.557  -1.945  0.00  0.00     0.018 C 
ATOM      7  C   UNL d   1      25.728 -12.997  -2.967  0.00  0.00     0.067 C 
ATOM      8  C   UNL d   1      25.818 -13.619  -4.373  0.00  0.00     0.038 C 
ATOM      9  C   UNL d   1      26.624 -14.892  -4.618  0.00  0.00     0.094 C 
ATOM     10  C   UNL d   1      27.513 -15.314  -3.525  0.00  0.00     0.159 C 
ATOM     11  O   UNL d   1      28.265 -16.280  -3.668  0.00  0.00    -0.293 OA
ATOM     12  N   UNL d   1      26.659 -12.916  -0.678  0.00  0.00    -0.371 N 
ATOM     13  C   UNL d   1      27.558 -13.390   0.396  0.00  0.00     0.210 C 
ATOM     14  N   UNL d   1      28.182 -12.462   1.461  0.00  0.00    -0.185 NA
ATOM     15  N   UNL d   1      29.714 -12.331   0.818  0.00  0.00    -0.222 NA
ATOM     16  H   UNL d   1      26.407 -11.930  -0.637  0.00  0.00     0.161 HD
ATOM     17  H   UNL d   1      30.442 -12.357   1.553  0.00  0.00     0.147 HD
ENDROOT
BRANCH  14  18
ATOM     18  C   UNL d   1      28.188 -13.144   2.861  0.00  0.00     0.045 C 
ATOM     19  C   UNL d   1      28.155 -14.483   3.336  0.00  0.00     0.026 C 
ATOM     20  C   UNL d   1      27.812 -14.722   4.750  0.00  0.00     0.002 C 
ATOM     21  C   UNL d   1      27.615 -13.692   5.691  0.00  0.00     0.001 C 
ATOM     22  C   UNL d   1      27.780 -12.431   5.257  0.00  0.00     0.020 C 
ATOM     23  C   UNL d   1      28.131 -12.238   3.929  0.00  0.00     0.063 C 
BRANCH  23  24
ATOM     24  C   UNL d   1      28.973 -11.086   3.835  0.00  0.00     0.211 C 
ATOM     25  O   UNL d   1      28.455 -10.018   4.352  0.00  0.00    -0.644 OA
ATOM     26  O   UNL d   1      30.112 -11.280   3.397  0.00  0.00    -0.644 OA
ENDBRANCH  23  24
ENDBRANCH  14  18
BRANCH   4  27
ATOM     27  C   UNL d   1      27.817 -16.385  -0.598  0.00  0.00     0.094 A 
ATOM     28  N   UNL d   1      27.772 -16.679   0.725  0.00  0.00    -0.354 N 
ATOM     29  C   UNL d   1      27.030 -17.802   0.980  0.00  0.00     0.106 A 
ATOM     30  H   UNL d   1      28.304 -16.159   1.411  0.00  0.00     0.166 HD
ATOM     31  C   UNL d   1      26.491 -18.181  -0.210  0.00  0.00     0.106 A 
ATOM     32  N   UNL d   1      26.969 -17.293  -1.148  0.00  0.00    -0.354 N 
ATOM     33  H   UNL d   1      26.756 -17.304  -2.142  0.00  0.00     0.166 HD
ENDBRANCH   4  27
BRANCH   8  34
ATOM     34  C   UNL d   1      26.403 -12.566  -5.257  0.00  0.00    -0.013 A 
ATOM     35  C   UNL d   1      25.899 -11.293  -5.435  0.00  0.00     0.015 A 
ATOM     36  C   UNL d   1      26.628 -10.581  -6.411  0.00  0.00     0.008 A 
ATOM     37  C   UNL d   1      27.672 -11.325  -6.912  0.00  0.00     0.050 A 
ATOM     38  S   UNL d   1      27.780 -12.874  -6.200  0.00  0.00    -0.106 SA
ENDBRANCH   8  34
TORSDOF 4
ENDMDL
MODEL 6
REMARK VINA RESULT:    -6.074      2.459      3.393
REMARK INTER + INTRA:         -10.366
REMARK INTER:                  -7.267
REMARK INTRA:                  -3.100
REMARK CONF_INDEPENDENT:        1.193
REMARK UNBOUND:                -3.100
REMARK  4 active torsions:
REMARK  status: ('A' for Active; 'I' for Inactive)
REMARK    1  A    between atoms: C_4  and  C_5 
REMARK    2  A    between atoms: C_13  and  C_14 
REMARK    3  A    between atoms: N_24  and  C_25 
REMARK    4  A    between atoms: C_30  and  C_31 
ROOT
ATOM      1  C   UNL d   1      31.235 -18.068  -2.226  0.00  0.00     0.063 C 
ATOM      2  C   UNL d   1      30.207 -17.613  -3.379  0.00  0.00     0.004 C 
ATOM      3  C   UNL d   1      29.595 -16.415  -3.266  0.00  0.00    -0.008 C 
ATOM      4  C   UNL d   1      29.520 -15.501  -2.083  0.00  0.00     0.126 C 
ATOM      5  C   UNL d   1      28.064 -15.314  -1.900  0.00  0.00     0.026 C 
ATOM      6  C   UNL d   1      27.214 -15.400  -2.947  0.00  0.00     0.018 C 
ATOM      7  C   UNL d   1      25.754 -15.306  -2.732  0.00  0.00     0.067 C 
ATOM      8  C   UNL d   1      25.288 -15.200  -1.268  0.00  0.00     0.038 C 
ATOM      9  C   UNL d   1      26.288 -14.961  -0.141  0.00  0.00     0.094 C 
ATOM     10  C   UNL d   1      27.707 -15.120  -0.492  0.00  0.00     0.159 C 
ATOM     11  O   UNL d   1      28.580 -15.032   0.374  0.00  0.00    -0.293 OA
ATOM     12  N   UNL d   1      27.658 -15.624  -4.278  0.00  0.00    -0.371 N 
ATOM     13  C   UNL d   1      29.099 -15.758  -4.583  0.00  0.00     0.210 C 
ATOM     14  N   UNL d   1      29.654 -16.643  -5.720  0.00  0.00    -0.185 NA
ATOM     15  N   UNL d   1      30.159 -17.943  -4.807  0.00  0.00    -0.222 NA
ATOM     16  H   UNL d   1      27.027 -16.102  -4.918  0.00  0.00     0.161 HD
ATOM     17  H   UNL d   1      31.065 -18.317  -5.141  0.00  0.00     0.147 HD
ENDROOT
BRANCH  14  18
ATOM     18  C   UNL d   1      30.837 -15.940  -6.448  0.00  0.00     0.045 C 
ATOM     19  C   UNL d   1      31.405 -14.637  -6.435  0.00  0.00     0.026 C 
ATOM     20  C   UNL d   1      32.304 -14.248  -7.536  0.00  0.00     0.002 C 
ATOM     21  C   UNL d   1      32.720 -15.129  -8.554  0.00  0.00     0.001 C 
ATOM     22  C   UNL d   1      32.279 -16.397  -8.480  0.00  0.00     0.020 C 
ATOM     23  C   UNL d   1      31.457 -16.741  -7.416  0.00  0.00     0.063 C 
BRANCH  23  24
ATOM     24  C   UNL d   1      31.719 -18.098  -7.051  0.00  0.00     0.211 C 
ATOM     25  O   UNL d   1      32.834 -18.261  -6.412  0.00  0.00    -0.644 OA
ATOM     26  O   UNL d   1      30.811 -18.906  -7.274  0.00  0.00    -0.644 OA
ENDBRANCH  23  24
ENDBRANCH  14  18
BRANCH   4  27
ATOM     27  C   UNL d   1      30.183 -14.097  -2.114  0.00  0.00     0.094 A 
ATOM     28  N   UNL d   1      30.795 -13.497  -3.165  0.00  0.00    -0.354 N 
ATOM     29  C   UNL d   1      31.130 -12.196  -2.892  0.00  0.00     0.106 A 
ATOM     30  H   UNL d   1      31.038 -14.000  -4.007  0.00  0.00     0.166 HD
ATOM     31  C   UNL d   1      30.619 -11.921  -1.662  0.00  0.00     0.106 A 
ATOM     32  N   UNL d   1      30.033 -13.086  -1.220  0.00  0.00    -0.354 N 
ATOM     33  H   UNL d   1      29.562 -13.215  -0.328  0.00  0.00     0.166 HD
ENDBRANCH   4  27
BRANCH   8  34
ATOM     34  C   UNL d   1      24.593 -16.486  -0.959  0.00  0.00    -0.013 A 
ATOM     35  C   UNL d   1      23.226 -16.682  -0.953  0.00  0.00     0.015 A 
ATOM     36  C   UNL d   1      22.893 -17.984  -0.523  0.00  0.00     0.008 A 
ATOM     37  C   UNL d   1      24.014 -18.733  -0.250  0.00  0.00     0.050 A 
ATOM     38  S   UNL d   1      25.465 -17.875  -0.522  0.00  0.00    -0.106 SA
ENDBRANCH   8  34
TORSDOF 4
ENDMDL
MODEL 7
REMARK VINA RESULT:    -6.021      3.160      4.213
REMARK INTER + INTRA:          -9.938
REMARK INTER:                  -7.214
REMARK INTRA:                  -2.724
REMARK CONF_INDEPENDENT:        1.193
REMARK UNBOUND:                -2.724
REMARK  4 active torsions:
REMARK  status: ('A' for Active; 'I' for Inactive)
REMARK    1  A    between atoms: C_4  and  C_5 
REMARK    2  A    between atoms: C_13  and  C_14 
REMARK    3  A    between atoms: N_24  and  C_25 
REMARK    4  A    between atoms: C_30  and  C_31 
ROOT
ATOM      1  C   UNL d   1      31.152 -17.987  -2.821  0.00  0.00     0.063 C 
ATOM      2  C   UNL d   1      30.044 -17.466  -3.868  0.00  0.00     0.004 C 
ATOM      3  C   UNL d   1      29.417 -16.296  -3.620  0.00  0.00    -0.008 C 
ATOM      4  C   UNL d   1      29.400 -15.482  -2.365  0.00  0.00     0.126 C 
ATOM      5  C   UNL d   1      27.955 -15.346  -2.078  0.00  0.00     0.026 C 
ATOM      6  C   UNL d   1      27.042 -15.368  -3.074  0.00  0.00     0.018 C 
ATOM      7  C   UNL d   1      25.597 -15.328  -2.763  0.00  0.00     0.067 C 
ATOM      8  C   UNL d   1      25.222 -15.350  -1.270  0.00  0.00     0.038 C 
ATOM      9  C   UNL d   1      26.287 -15.179  -0.190  0.00  0.00     0.094 C 
ATOM     10  C   UNL d   1      27.683 -15.274  -0.639  0.00  0.00     0.159 C 
ATOM     11  O   UNL d   1      28.607 -15.235   0.176  0.00  0.00    -0.293 OA
ATOM     12  N   UNL d   1      27.406 -15.474  -4.443  0.00  0.00    -0.371 N 
ATOM     13  C   UNL d   1      28.826 -15.548  -4.846  0.00  0.00     0.210 C 
ATOM     14  N   UNL d   1      29.325 -16.325  -6.084  0.00  0.00    -0.185 NA
ATOM     15  N   UNL d   1      29.912 -17.682  -5.313  0.00  0.00    -0.222 NA
ATOM     16  H   UNL d   1      26.744 -15.914  -5.081  0.00  0.00     0.161 HD
ATOM     17  H   UNL d   1      30.802 -18.006  -5.731  0.00  0.00     0.147 HD
ENDROOT
BRANCH  14  18
ATOM     18  C   UNL d   1      30.446 -15.538  -6.823  0.00  0.00     0.045 C 
ATOM     19  C   UNL d   1      31.625 -15.883  -7.537  0.00  0.00     0.026 C 
ATOM     20  C   UNL d   1      32.630 -14.834  -7.791  0.00  0.00     0.002 C 
ATOM     21  C   UNL d   1      32.445 -13.478  -7.456  0.00  0.00     0.001 C 
ATOM     22  C   UNL d   1      31.268 -13.142  -6.901  0.00  0.00     0.020 C 
ATOM     23  C   UNL d   1      30.331 -14.146  -6.701  0.00  0.00     0.063 C 
BRANCH  23  24
ATOM     24  C   UNL d   1      29.022 -13.596  -6.868  0.00  0.00     0.211 C 
ATOM     25  O   UNL d   1      28.593 -12.946  -5.833  0.00  0.00    -0.644 OA
ATOM     26  O   UNL d   1      28.530 -13.699  -7.996  0.00  0.00    -0.644 OA
ENDBRANCH  23  24
ENDBRANCH  14  18
BRANCH   4  27
ATOM     27  C   UNL d   1      30.032 -14.065  -2.322  0.00  0.00     0.094 A 
ATOM     28  N   UNL d   1      30.192 -13.201  -3.355  0.00  0.00    -0.354 N 
ATOM     29  C   UNL d   1      30.642 -11.976  -2.937  0.00  0.00     0.106 A 
ATOM     30  H   UNL d   1      30.066 -13.482  -4.318  0.00  0.00     0.166 HD
ATOM     31  C   UNL d   1      30.669 -12.022  -1.578  0.00  0.00     0.106 A 
ATOM     32  N   UNL d   1      30.277 -13.295  -1.229  0.00  0.00    -0.354 N 
ATOM     33  H   UNL d   1      30.196 -13.656  -0.283  0.00  0.00     0.166 HD
ENDBRANCH   4  27
BRANCH   8  34
ATOM     34  C   UNL d   1      24.573 -16.673  -1.024  0.00  0.00    -0.013 A 
ATOM     35  C   UNL d   1      23.227 -16.948  -1.159  0.00  0.00     0.015 A 
ATOM     36  C   UNL d   1      22.925 -18.265  -0.756  0.00  0.00     0.008 A 
ATOM     37  C   UNL d   1      24.052 -18.949  -0.361  0.00  0.00     0.050 A 
ATOM     38  S   UNL d   1      25.473 -18.009  -0.487  0.00  0.00    -0.106 SA
ENDBRANCH   8  34
TORSDOF 4
ENDMDL
MODEL 8
REMARK VINA RESULT:    -6.006      5.499     10.148
REMARK INTER + INTRA:         -10.192
REMARK INTER:                  -7.199
REMARK INTRA:                  -2.993
REMARK CONF_INDEPENDENT:        1.193
REMARK UNBOUND:                -2.993
REMARK  4 active torsions:
REMARK  status: ('A' for Active; 'I' for Inactive)
REMARK    1  A    between atoms: C_4  and  C_5 
REMARK    2  A    between atoms: C_13  and  C_14 
REMARK    3  A    between atoms: N_24  and  C_25 
REMARK    4  A    between atoms: C_30  and  C_31 
ROOT
ATOM      1  C   UNL d   1      30.315 -11.155   0.802  0.00  0.00     0.063 C 
ATOM      2  C   UNL d   1      29.078 -12.025   1.355  0.00  0.00     0.004 C 
ATOM      3  C   UNL d   1      29.102 -13.365   1.188  0.00  0.00    -0.008 C 
ATOM      4  C   UNL d   1      30.004 -14.193   0.329  0.00  0.00     0.126 C 
ATOM      5  C   UNL d   1      29.055 -14.954  -0.513  0.00  0.00     0.026 C 
ATOM      6  C   UNL d   1      27.815 -15.254  -0.067  0.00  0.00     0.018 C 
ATOM      7  C   UNL d   1      26.846 -15.930  -0.955  0.00  0.00     0.067 C 
ATOM      8  C   UNL d   1      27.307 -16.173  -2.405  0.00  0.00     0.038 C 
ATOM      9  C   UNL d   1      28.759 -15.948  -2.815  0.00  0.00     0.094 C 
ATOM     10  C   UNL d   1      29.601 -15.233  -1.844  0.00  0.00     0.159 C 
ATOM     11  O   UNL d   1      30.762 -14.931  -2.126  0.00  0.00    -0.293 OA
ATOM     12  N   UNL d   1      27.366 -14.909   1.236  0.00  0.00    -0.371 N 
ATOM     13  C   UNL d   1      28.258 -14.207   2.183  0.00  0.00     0.210 C 
ATOM     14  N   UNL d   1      27.757 -13.207   3.249  0.00  0.00    -0.185 NA
ATOM     15  N   UNL d   1      28.161 -11.787   2.475  0.00  0.00    -0.222 NA
ATOM     16  H   UNL d   1      26.369 -14.750   1.371  0.00  0.00     0.161 HD
ATOM     17  H   UNL d   1      28.542 -11.086   3.134  0.00  0.00     0.147 HD
ENDROOT
BRANCH  14  18
ATOM     18  C   UNL d   1      28.529 -13.387   4.589  0.00  0.00     0.045 C 
ATOM     19  C   UNL d   1      29.431 -14.349   5.118  0.00  0.00     0.026 C 
ATOM     20  C   UNL d   1      29.675 -14.363   6.572  0.00  0.00     0.002 C 
ATOM     21  C   UNL d   1      29.145 -13.409   7.463  0.00  0.00     0.001 C 
ATOM     22  C   UNL d   1      28.400 -12.425   6.930  0.00  0.00     0.020 C 
ATOM     23  C   UNL d   1      28.211 -12.422   5.555  0.00  0.00     0.063 C 
BRANCH  23  24
ATOM     24  C   UNL d   1      28.131 -11.068   5.103  0.00  0.00     0.211 C 
ATOM     25  O   UNL d   1      29.272 -10.456   5.084  0.00  0.00    -0.644 OA
ATOM     26  O   UNL d   1      27.030 -10.701   4.678  0.00  0.00    -0.644 OA
ENDBRANCH  23  24
ENDBRANCH  14  18
BRANCH   4  27
ATOM     27  C   UNL d   1      31.002 -15.203   0.957  0.00  0.00     0.094 A 
ATOM     28  N   UNL d   1      32.077 -15.778   0.365  0.00  0.00    -0.354 N 
ATOM     29  C   UNL d   1      32.832 -16.499   1.254  0.00  0.00     0.106 A 
ATOM     30  H   UNL d   1      32.232 -15.732  -0.633  0.00  0.00     0.166 HD
ATOM     31  C   UNL d   1      32.280 -16.289   2.480  0.00  0.00     0.106 A 
ATOM     32  N   UNL d   1      31.181 -15.485   2.275  0.00  0.00    -0.354 N 
ATOM     33  H   UNL d   1      30.547 -15.148   2.993  0.00  0.00     0.166 HD
ENDBRANCH   4  27
BRANCH   8  34
ATOM     34  C   UNL d   1      26.476 -15.275  -3.262  0.00  0.00    -0.013 A 
ATOM     35  C   UNL d   1      26.857 -14.739  -4.475  0.00  0.00     0.015 A 
ATOM     36  C   UNL d   1      25.882 -13.854  -4.979  0.00  0.00     0.008 A 
ATOM     37  C   UNL d   1      24.787 -13.775  -4.149  0.00  0.00     0.050 A 
ATOM     38  S   UNL d   1      24.930 -14.774  -2.771  0.00  0.00    -0.106 SA
ENDBRANCH   8  34
TORSDOF 4
ENDMDL
MODEL 9
REMARK VINA RESULT:    -5.688      5.002      6.753
REMARK INTER + INTRA:          -9.907
REMARK INTER:                  -6.881
REMARK INTRA:                  -3.025
REMARK CONF_INDEPENDENT:        1.193
REMARK UNBOUND:                -3.025
REMARK  4 active torsions:
REMARK  status: ('A' for Active; 'I' for Inactive)
REMARK    1  A    between atoms: C_4  and  C_5 
REMARK    2  A    between atoms: C_13  and  C_14 
REMARK    3  A    between atoms: N_24  and  C_25 
REMARK    4  A    between atoms: C_30  and  C_31 
ROOT
ATOM      1  C   UNL d   1      30.427 -11.226  -3.211  0.00  0.00     0.063 C 
ATOM      2  C   UNL d   1      30.239 -12.519  -4.151  0.00  0.00     0.004 C 
ATOM      3  C   UNL d   1      29.039 -12.726  -4.736  0.00  0.00    -0.008 C 
ATOM      4  C   UNL d   1      27.726 -12.063  -4.459  0.00  0.00     0.126 C 
ATOM      5  C   UNL d   1      26.833 -13.205  -4.166  0.00  0.00     0.026 C 
ATOM      6  C   UNL d   1      27.058 -14.422  -4.709  0.00  0.00     0.018 C 
ATOM      7  C   UNL d   1      26.213 -15.575  -4.331  0.00  0.00     0.067 C 
ATOM      8  C   UNL d   1      25.155 -15.315  -3.242  0.00  0.00     0.038 C 
ATOM      9  C   UNL d   1      24.846 -13.897  -2.770  0.00  0.00     0.094 C 
ATOM     10  C   UNL d   1      25.791 -12.854  -3.197  0.00  0.00     0.159 C 
ATOM     11  O   UNL d   1      25.670 -11.696  -2.792  0.00  0.00    -0.293 OA
ATOM     12  N   UNL d   1      28.121 -14.670  -5.618  0.00  0.00    -0.371 N 
ATOM     13  C   UNL d   1      29.033 -13.582  -6.032  0.00  0.00     0.210 C 
ATOM     14  N   UNL d   1      30.520 -13.802  -6.388  0.00  0.00    -0.185 NA
ATOM     15  N   UNL d   1      31.204 -13.263  -4.967  0.00  0.00    -0.222 NA
ATOM     16  H   UNL d   1      28.513 -15.609  -5.649  0.00  0.00     0.161 HD
ATOM     17  H   UNL d   1      32.061 -12.708  -5.140  0.00  0.00     0.147 HD
ENDROOT
BRANCH  14  18
ATOM     18  C   UNL d   1      30.936 -12.931  -7.609  0.00  0.00     0.045 C 
ATOM     19  C   UNL d   1      30.251 -12.133  -8.565  0.00  0.00     0.026 C 
ATOM     20  C   UNL d   1      30.961 -11.743  -9.798  0.00  0.00     0.002 C 
ATOM     21  C   UNL d   1      32.318 -12.029 -10.041  0.00  0.00     0.001 C 
ATOM     22  C   UNL d   1      32.990 -12.670  -9.069  0.00  0.00     0.020 C 
ATOM     23  C   UNL d   1      32.304 -12.998  -7.908  0.00  0.00     0.063 C 
BRANCH  23  24
ATOM     24  C   UNL d   1      33.205 -12.921  -6.801  0.00  0.00     0.211 C 
ATOM     25  O   UNL d   1      33.486 -11.710  -6.441  0.00  0.00    -0.644 OA
ATOM     26  O   UNL d   1      33.493 -13.994  -6.260  0.00  0.00    -0.644 OA
ENDBRANCH  23  24
ENDBRANCH  14  18
BRANCH   4  27
ATOM     27  C   UNL d   1      27.036 -11.177  -5.531  0.00  0.00     0.094 A 
ATOM     28  N   UNL d   1      25.799 -10.624  -5.473  0.00  0.00    -0.354 N 
ATOM     29  C   UNL d   1      25.566  -9.771  -6.520  0.00  0.00     0.106 A 
ATOM     30  H   UNL d   1      25.121 -10.893  -4.773  0.00  0.00     0.166 HD
ATOM     31  C   UNL d   1      26.733  -9.692  -7.214  0.00  0.00     0.106 A 
ATOM     32  N   UNL d   1      27.615 -10.540  -6.583  0.00  0.00    -0.354 N 
ATOM     33  H   UNL d   1      28.577 -10.713  -6.859  0.00  0.00     0.166 HD
ENDBRANCH   4  27
BRANCH   8  34
ATOM     34  C   UNL d   1      25.600 -16.080  -2.039  0.00  0.00    -0.013 A 
ATOM     35  C   UNL d   1      26.881 -16.098  -1.524  0.00  0.00     0.015 A 
ATOM     36  C   UNL d   1      26.991 -16.997  -0.442  0.00  0.00     0.008 A 
ATOM     37  C   UNL d   1      25.787 -17.601  -0.157  0.00  0.00     0.050 A 
ATOM     38  S   UNL d   1      24.526 -17.079  -1.184  0.00  0.00    -0.106 SA
ENDBRANCH   8  34
TORSDOF 4
ENDMDL
