MODEL 1
REMARK VINA RESULT:   -10.199      0.000      0.000
REMARK INTER + INTRA:         -14.672
REMARK INTER:                 -12.883
REMARK INTRA:                  -1.788
REMARK CONF_INDEPENDENT:        2.685
REMARK UNBOUND:                -1.788
REMARK  9 active torsions:
REMARK  status: ('A' for Active; 'I' for Inactive)
REMARK    1  A    between atoms: C_2  and  C_3 
REMARK       I    between atoms: C_2  and  N_30 
REMARK    2  A    between atoms: C_3  and  S_4 
REMARK    3  A    between atoms: S_4  and  C_5 
REMARK    4  A    between atoms: N_15  and  N_16 
REMARK       I    between atoms: N_16  and  C_17 
REMARK    5  A    between atoms: C_17  and  C_19 
REMARK    6  A    between atoms: C_19  and  C_20 
REMARK    7  A    between atoms: C_20  and  C_21 
REMARK    8  A    between atoms: N_30  and  C_31 
REMARK    9  A    between atoms: C_31  and  C_32 
ROOT
ATOM      1  C   UNL d   1      27.142 -16.206  -0.830  0.00  0.00     0.274 C 
ATOM      2  N   UNL d   1      26.142 -16.034  -1.868  0.00  0.00    -0.358 N 
ATOM      3  C   UNL d   1      26.013 -14.829  -2.542  0.00  0.00     0.046 A 
ATOM      4  C   UNL d   1      25.216 -14.708  -3.684  0.00  0.00     0.030 A 
ATOM      5  C   UNL d   1      25.156 -13.502  -4.410  0.00  0.00     0.002 A 
ATOM      6  C   UNL d   1      25.878 -12.386  -3.997  0.00  0.00     0.001 A 
ATOM      7  C   UNL d   1      26.689 -12.493  -2.881  0.00  0.00     0.019 A 
ATOM      8  C   UNL d   1      26.771 -13.714  -2.195  0.00  0.00     0.060 A 
ATOM      9  C   UNL d   1      27.663 -13.808  -1.041  0.00  0.00     0.277 C 
ATOM     10  O   UNL d   1      28.486 -12.900  -0.907  0.00  0.00    -0.266 OA
ATOM     11  N   UNL d   1      27.466 -14.910  -0.206  0.00  0.00    -0.221 N 
ATOM     12  H   UNL d   1      25.341 -16.653  -1.834  0.00  0.00     0.162 HD
ENDROOT
BRANCH  11  13
ATOM     13  N   UNL d   1      28.189 -14.970   1.063  0.00  0.00    -0.262 N 
ATOM     14  C   UNL d   1      27.771 -14.144   2.105  0.00  0.00     0.236 C 
ATOM     15  O   UNL d   1      26.944 -13.239   2.044  0.00  0.00    -0.272 OA
ATOM     16  H   UNL d   1      28.457 -15.920   1.318  0.00  0.00     0.190 HD
BRANCH  14  17
ATOM     17  C   UNL d   1      28.365 -14.449   3.456  0.00  0.00     0.109 C 
BRANCH  17  18
ATOM     18  C   UNL d   1      28.004 -13.262   4.362  0.00  0.00     0.046 C 
BRANCH  18  19
ATOM     19  C   UNL d   1      28.393 -13.452   5.776  0.00  0.00    -0.050 A 
ATOM     20  C   UNL d   1      28.629 -12.474   6.650  0.00  0.00    -0.006 A 
ATOM     21  C   UNL d   1      28.572 -11.054   6.576  0.00  0.00     0.014 A 
ATOM     22  C   UNL d   1      29.038 -13.171   7.878  0.00  0.00     0.038 A 
ATOM     23  C   UNL d   1      28.926 -10.348   7.658  0.00  0.00     0.001 A 
ATOM     24  C   UNL d   1      29.361 -11.005   8.883  0.00  0.00     0.002 A 
ATOM     25  C   UNL d   1      29.429 -12.343   9.032  0.00  0.00     0.030 A 
ATOM     26  N   UNL d   1      29.012 -14.443   7.745  0.00  0.00    -0.385 N 
ATOM     27  C   UNL d   1      28.568 -14.805   6.387  0.00  0.00     0.155 A 
ATOM     28  H   UNL d   1      29.280 -15.094   8.478  0.00  0.00     0.160 HD
ENDBRANCH  18  19
ENDBRANCH  17  18
ENDBRANCH  14  17
ENDBRANCH  11  13
BRANCH   1  29
ATOM     29  S   UNL d   1      26.449 -17.379   0.396  0.00  0.00    -0.112 SA
BRANCH  29  30
ATOM     30  C   UNL d   1      25.036 -18.180  -0.497  0.00  0.00     0.180 C 
BRANCH  30  31
ATOM     31  C   UNL d   1      23.822 -17.216  -0.516  0.00  0.00     0.227 C 
ATOM     32  O   UNL d   1      23.904 -16.016  -0.253  0.00  0.00    -0.273 OA
ATOM     33  N   UNL d   1      22.581 -17.707  -0.816  0.00  0.00    -0.354 N 
ATOM     34  H   UNL d   1      21.842 -17.010  -0.809  0.00  0.00     0.162 HD
BRANCH  33  35
ATOM     35  C   UNL d   1      22.224 -19.076  -1.107  0.00  0.00     0.187 C 
BRANCH  35  36
ATOM     36  C   UNL d   1      20.923 -19.429  -0.482  0.00  0.00     0.070 A 
ATOM     37  C   UNL d   1      20.492 -19.374   0.826  0.00  0.00     0.036 A 
ATOM     38  C   UNL d   1      19.145 -19.803   0.831  0.00  0.00     0.027 A 
ATOM     39  C   UNL d   1      18.830 -20.084  -0.479  0.00  0.00     0.142 A 
ATOM     40  O   UNL d   1      19.906 -19.860  -1.287  0.00  0.00    -0.325 OA
ENDBRANCH  35  36
ENDBRANCH  33  35
ENDBRANCH  30  31
ENDBRANCH  29  30
ENDBRANCH   1  29
TORSDOF 9
ENDMDL
MODEL 2
REMARK VINA RESULT:    -8.904      2.634      7.922
REMARK INTER + INTRA:         -14.439
REMARK INTER:                 -11.588
REMARK INTRA:                  -2.851
REMARK CONF_INDEPENDENT:        2.685
REMARK UNBOUND:                -2.851
REMARK  9 active torsions:
REMARK  status: ('A' for Active; 'I' for Inactive)
REMARK    1  A    between atoms: C_2  and  C_3 
REMARK       I    between atoms: C_2  and  N_30 
REMARK    2  A    between atoms: C_3  and  S_4 
REMARK    3  A    between atoms: S_4  and  C_5 
REMARK    4  A    between atoms: N_15  and  N_16 
REMARK       I    between atoms: N_16  and  C_17 
REMARK    5  A    between atoms: C_17  and  C_19 
REMARK    6  A    between atoms: C_19  and  C_20 
REMARK    7  A    between atoms: C_20  and  C_21 
REMARK    8  A    between atoms: N_30  and  C_31 
REMARK    9  A    between atoms: C_31  and  C_32 
ROOT
ATOM      1  C   UNL d   1      27.041 -14.935   0.745  0.00  0.00     0.274 C 
ATOM      2  N   UNL d   1      27.790 -15.221   1.956  0.00  0.00    -0.358 N 
ATOM      3  C   UNL d   1      28.004 -14.240   2.912  0.00  0.00     0.046 A 
ATOM      4  C   UNL d   1      28.526 -14.542   4.173  0.00  0.00     0.030 A 
ATOM      5  C   UNL d   1      28.660 -13.553   5.166  0.00  0.00     0.002 A 
ATOM      6  C   UNL d   1      28.294 -12.234   4.912  0.00  0.00     0.001 A 
ATOM      7  C   UNL d   1      27.755 -11.919   3.677  0.00  0.00     0.019 A 
ATOM      8  C   UNL d   1      27.587 -12.925   2.714  0.00  0.00     0.060 A 
ATOM      9  C   UNL d   1      26.982 -12.570   1.431  0.00  0.00     0.277 C 
ATOM     10  O   UNL d   1      26.413 -11.478   1.375  0.00  0.00    -0.266 OA
ATOM     11  N   UNL d   1      27.138 -13.504   0.404  0.00  0.00    -0.221 N 
ATOM     12  H   UNL d   1      28.436 -16.001   1.917  0.00  0.00     0.162 HD
ENDROOT
BRANCH  11  13
ATOM     13  N   UNL d   1      26.728 -13.137  -0.950  0.00  0.00    -0.262 N 
ATOM     14  C   UNL d   1      27.704 -12.699  -1.843  0.00  0.00     0.236 C 
ATOM     15  O   UNL d   1      28.875 -12.432  -1.586  0.00  0.00    -0.272 OA
ATOM     16  H   UNL d   1      26.016 -13.760  -1.328  0.00  0.00     0.190 HD
BRANCH  14  17
ATOM     17  C   UNL d   1      27.273 -12.606  -3.284  0.00  0.00     0.109 C 
BRANCH  17  18
ATOM     18  C   UNL d   1      26.984 -14.045  -3.739  0.00  0.00     0.046 C 
BRANCH  18  19
ATOM     19  C   UNL d   1      27.821 -14.490  -4.875  0.00  0.00    -0.050 A 
ATOM     20  C   UNL d   1      28.745 -15.448  -4.823  0.00  0.00    -0.006 A 
ATOM     21  C   UNL d   1      29.199 -16.323  -3.796  0.00  0.00     0.014 A 
ATOM     22  C   UNL d   1      29.332 -15.463  -6.171  0.00  0.00     0.038 A 
ATOM     23  C   UNL d   1      30.205 -17.161  -4.078  0.00  0.00     0.001 A 
ATOM     24  C   UNL d   1      30.828 -17.186  -5.394  0.00  0.00     0.002 A 
ATOM     25  C   UNL d   1      30.444 -16.397  -6.418  0.00  0.00     0.030 A 
ATOM     26  N   UNL d   1      28.778 -14.614  -6.951  0.00  0.00    -0.385 N 
ATOM     27  C   UNL d   1      27.712 -13.887  -6.238  0.00  0.00     0.155 A 
ATOM     28  H   UNL d   1      29.060 -14.463  -7.916  0.00  0.00     0.160 HD
ENDBRANCH  18  19
ENDBRANCH  17  18
ENDBRANCH  14  17
ENDBRANCH  11  13
BRANCH   1  29
ATOM     29  S   UNL d   1      27.745 -15.984  -0.583  0.00  0.00    -0.112 SA
BRANCH  29  30
ATOM     30  C   UNL d   1      26.415 -17.229  -0.926  0.00  0.00     0.180 C 
BRANCH  30  31
ATOM     31  C   UNL d   1      25.075 -16.495  -1.189  0.00  0.00     0.227 C 
ATOM     32  O   UNL d   1      25.003 -15.320  -1.553  0.00  0.00    -0.273 OA
ATOM     33  N   UNL d   1      23.896 -17.161  -0.992  0.00  0.00    -0.354 N 
ATOM     34  H   UNL d   1      23.065 -16.610  -1.189  0.00  0.00     0.162 HD
BRANCH  33  35
ATOM     35  C   UNL d   1      23.719 -18.516  -0.522  0.00  0.00     0.187 C 
BRANCH  35  36
ATOM     36  C   UNL d   1      22.279 -18.870  -0.456  0.00  0.00     0.070 A 
ATOM     37  C   UNL d   1      21.408 -18.967   0.610  0.00  0.00     0.036 A 
ATOM     38  C   UNL d   1      20.146 -19.310   0.076  0.00  0.00     0.027 A 
ATOM     39  C   UNL d   1      20.317 -19.391  -1.287  0.00  0.00     0.142 A 
ATOM     40  O   UNL d   1      21.613 -19.126  -1.622  0.00  0.00    -0.325 OA
ENDBRANCH  35  36
ENDBRANCH  33  35
ENDBRANCH  30  31
ENDBRANCH  29  30
ENDBRANCH   1  29
TORSDOF 9
ENDMDL
MODEL 3
REMARK VINA RESULT:    -8.708      2.868      9.369
REMARK INTER + INTRA:         -14.721
REMARK INTER:                 -11.393
REMARK INTRA:                  -3.328
REMARK CONF_INDEPENDENT:        2.685
REMARK UNBOUND:                -3.328
REMARK  9 active torsions:
REMARK  status: ('A' for Active; 'I' for Inactive)
REMARK    1  A    between atoms: C_2  and  C_3 
REMARK       I    between atoms: C_2  and  N_30 
REMARK    2  A    between atoms: C_3  and  S_4 
REMARK    3  A    between atoms: S_4  and  C_5 
REMARK    4  A    between atoms: N_15  and  N_16 
REMARK       I    between atoms: N_16  and  C_17 
REMARK    5  A    between atoms: C_17  and  C_19 
REMARK    6  A    between atoms: C_19  and  C_20 
REMARK    7  A    between atoms: C_20  and  C_21 
REMARK    8  A    between atoms: N_30  and  C_31 
REMARK    9  A    between atoms: C_31  and  C_32 
ROOT
ATOM      1  C   UNL d   1      26.777 -16.326  -1.893  0.00  0.00     0.274 C 
ATOM      2  N   UNL d   1      26.309 -17.319  -0.943  0.00  0.00    -0.358 N 
ATOM      3  C   UNL d   1      24.961 -17.434  -0.637  0.00  0.00     0.046 A 
ATOM      4  C   UNL d   1      24.464 -18.514   0.099  0.00  0.00     0.030 A 
ATOM      5  C   UNL d   1      23.083 -18.665   0.334  0.00  0.00     0.002 A 
ATOM      6  C   UNL d   1      22.172 -17.728  -0.147  0.00  0.00     0.001 A 
ATOM      7  C   UNL d   1      22.643 -16.664  -0.895  0.00  0.00     0.019 A 
ATOM      8  C   UNL d   1      24.017 -16.552  -1.157  0.00  0.00     0.060 A 
ATOM      9  C   UNL d   1      24.482 -15.437  -1.981  0.00  0.00     0.277 C 
ATOM     10  O   UNL d   1      23.621 -14.825  -2.615  0.00  0.00    -0.266 OA
ATOM     11  N   UNL d   1      25.854 -15.178  -1.938  0.00  0.00    -0.221 N 
ATOM     12  H   UNL d   1      26.984 -17.656  -0.267  0.00  0.00     0.162 HD
ENDROOT
BRANCH  11  13
ATOM     13  N   UNL d   1      26.363 -13.968  -2.582  0.00  0.00    -0.262 N 
ATOM     14  C   UNL d   1      25.925 -13.668  -3.871  0.00  0.00     0.236 C 
ATOM     15  O   UNL d   1      25.263 -14.389  -4.613  0.00  0.00    -0.272 OA
ATOM     16  H   UNL d   1      26.442 -13.184  -1.937  0.00  0.00     0.190 HD
BRANCH  14  17
ATOM     17  C   UNL d   1      26.258 -12.285  -4.366  0.00  0.00     0.109 C 
BRANCH  17  18
ATOM     18  C   UNL d   1      27.788 -12.235  -4.500  0.00  0.00     0.046 C 
BRANCH  18  19
ATOM     19  C   UNL d   1      28.320 -13.094  -5.580  0.00  0.00    -0.050 A 
ATOM     20  C   UNL d   1      28.890 -14.285  -5.409  0.00  0.00    -0.006 A 
ATOM     21  C   UNL d   1      29.143 -15.100  -4.269  0.00  0.00     0.014 A 
ATOM     22  C   UNL d   1      29.302 -14.692  -6.760  0.00  0.00     0.038 A 
ATOM     23  C   UNL d   1      29.795 -16.256  -4.450  0.00  0.00     0.001 A 
ATOM     24  C   UNL d   1      30.241 -16.679  -5.770  0.00  0.00     0.002 A 
ATOM     25  C   UNL d   1      30.028 -15.967  -6.895  0.00  0.00     0.030 A 
ATOM     26  N   UNL d   1      28.973 -13.831  -7.647  0.00  0.00    -0.385 N 
ATOM     27  C   UNL d   1      28.272 -12.695  -7.021  0.00  0.00     0.155 A 
ATOM     28  H   UNL d   1      29.190 -13.926  -8.636  0.00  0.00     0.160 HD
ENDBRANCH  18  19
ENDBRANCH  17  18
ENDBRANCH  14  17
ENDBRANCH  11  13
BRANCH   1  29
ATOM     29  S   UNL d   1      28.451 -15.813  -1.353  0.00  0.00    -0.112 SA
BRANCH  29  30
ATOM     30  C   UNL d   1      28.321 -15.724   0.494  0.00  0.00     0.180 C 
BRANCH  30  31
ATOM     31  C   UNL d   1      27.587 -14.421   0.899  0.00  0.00     0.227 C 
ATOM     32  O   UNL d   1      27.100 -13.634   0.086  0.00  0.00    -0.273 OA
ATOM     33  N   UNL d   1      27.481 -14.095   2.225  0.00  0.00    -0.354 N 
ATOM     34  H   UNL d   1      26.984 -13.227   2.404  0.00  0.00     0.162 HD
BRANCH  33  35
ATOM     35  C   UNL d   1      28.011 -14.823   3.354  0.00  0.00     0.187 C 
BRANCH  35  36
ATOM     36  C   UNL d   1      28.061 -13.963   4.563  0.00  0.00     0.070 A 
ATOM     37  C   UNL d   1      28.543 -14.198   5.834  0.00  0.00     0.036 A 
ATOM     38  C   UNL d   1      28.358 -13.005   6.568  0.00  0.00     0.027 A 
ATOM     39  C   UNL d   1      27.783 -12.107   5.698  0.00  0.00     0.142 A 
ATOM     40  O   UNL d   1      27.597 -12.680   4.475  0.00  0.00    -0.325 OA
ENDBRANCH  35  36
ENDBRANCH  33  35
ENDBRANCH  30  31
ENDBRANCH  29  30
ENDBRANCH   1  29
TORSDOF 9
ENDMDL
MODEL 4
REMARK VINA RESULT:    -8.347      2.011      7.761
REMARK INTER + INTRA:         -14.807
REMARK INTER:                 -11.032
REMARK INTRA:                  -3.775
REMARK CONF_INDEPENDENT:        2.685
REMARK UNBOUND:                -3.775
REMARK  9 active torsions:
REMARK  status: ('A' for Active; 'I' for Inactive)
REMARK    1  A    between atoms: C_2  and  C_3 
REMARK       I    between atoms: C_2  and  N_30 
REMARK    2  A    between atoms: C_3  and  S_4 
REMARK    3  A    between atoms: S_4  and  C_5 
REMARK    4  A    between atoms: N_15  and  N_16 
REMARK       I    between atoms: N_16  and  C_17 
REMARK    5  A    between atoms: C_17  and  C_19 
REMARK    6  A    between atoms: C_19  and  C_20 
REMARK    7  A    between atoms: C_20  and  C_21 
REMARK    8  A    between atoms: N_30  and  C_31 
REMARK    9  A    between atoms: C_31  and  C_32 
ROOT
ATOM      1  C   UNL d   1      27.903 -14.142   2.437  0.00  0.00     0.274 C 
ATOM      2  N   UNL d   1      28.507 -14.669   3.648  0.00  0.00    -0.358 N 
ATOM      3  C   UNL d   1      28.562 -13.910   4.807  0.00  0.00     0.046 A 
ATOM      4  C   UNL d   1      28.935 -14.468   6.034  0.00  0.00     0.030 A 
ATOM      5  C   UNL d   1      28.907 -13.710   7.221  0.00  0.00     0.002 A 
ATOM      6  C   UNL d   1      28.523 -12.372   7.202  0.00  0.00     0.001 A 
ATOM      7  C   UNL d   1      28.129 -11.809   6.002  0.00  0.00     0.019 A 
ATOM      8  C   UNL d   1      28.121 -12.589   4.836  0.00  0.00     0.060 A 
ATOM      9  C   UNL d   1      27.666 -11.977   3.589  0.00  0.00     0.277 C 
ATOM     10  O   UNL d   1      27.066 -10.906   3.688  0.00  0.00    -0.266 OA
ATOM     11  N   UNL d   1      27.985 -12.670   2.418  0.00  0.00    -0.221 N 
ATOM     12  H   UNL d   1      29.183 -15.415   3.531  0.00  0.00     0.162 HD
ENDROOT
BRANCH  11  13
ATOM     13  N   UNL d   1      27.731 -12.028   1.129  0.00  0.00    -0.262 N 
ATOM     14  C   UNL d   1      28.522 -10.941   0.762  0.00  0.00     0.236 C 
ATOM     15  O   UNL d   1      29.329 -10.343   1.467  0.00  0.00    -0.272 OA
ATOM     16  H   UNL d   1      27.513 -12.698   0.393  0.00  0.00     0.190 HD
BRANCH  14  17
ATOM     17  C   UNL d   1      28.404 -10.507  -0.676  0.00  0.00     0.109 C 
BRANCH  17  18
ATOM     18  C   UNL d   1      28.524 -11.784  -1.522  0.00  0.00     0.046 C 
BRANCH  18  19
ATOM     19  C   UNL d   1      27.363 -12.025  -2.406  0.00  0.00    -0.050 A 
ATOM     20  C   UNL d   1      27.048 -13.193  -2.965  0.00  0.00    -0.006 A 
ATOM     21  C   UNL d   1      27.615 -14.497  -2.906  0.00  0.00     0.014 A 
ATOM     22  C   UNL d   1      25.868 -12.896  -3.791  0.00  0.00     0.038 A 
ATOM     23  C   UNL d   1      27.059 -15.463  -3.648  0.00  0.00     0.001 A 
ATOM     24  C   UNL d   1      25.907 -15.200  -4.498  0.00  0.00     0.002 A 
ATOM     25  C   UNL d   1      25.308 -13.995  -4.596  0.00  0.00     0.030 A 
ATOM     26  N   UNL d   1      25.505 -11.673  -3.697  0.00  0.00    -0.385 N 
ATOM     27  C   UNL d   1      26.396 -10.946  -2.774  0.00  0.00     0.155 A 
ATOM     28  H   UNL d   1      24.723 -11.274  -4.209  0.00  0.00     0.160 HD
ENDBRANCH  18  19
ENDBRANCH  17  18
ENDBRANCH  14  17
ENDBRANCH  11  13
BRANCH   1  29
ATOM     29  S   UNL d   1      28.806 -14.876   1.021  0.00  0.00    -0.112 SA
BRANCH  29  30
ATOM     30  C   UNL d   1      27.637 -16.148   0.352  0.00  0.00     0.180 C 
BRANCH  30  31
ATOM     31  C   UNL d   1      26.335 -15.454  -0.124  0.00  0.00     0.227 C 
ATOM     32  O   UNL d   1      26.217 -14.233  -0.235  0.00  0.00    -0.273 OA
ATOM     33  N   UNL d   1      25.238 -16.218  -0.421  0.00  0.00    -0.354 N 
ATOM     34  H   UNL d   1      24.429 -15.686  -0.728  0.00  0.00     0.162 HD
BRANCH  33  35
ATOM     35  C   UNL d   1      25.113 -17.653  -0.321  0.00  0.00     0.187 C 
BRANCH  35  36
ATOM     36  C   UNL d   1      23.707 -18.079  -0.537  0.00  0.00     0.070 A 
ATOM     37  C   UNL d   1      23.116 -19.325  -0.520  0.00  0.00     0.036 A 
ATOM     38  C   UNL d   1      21.737 -19.126  -0.758  0.00  0.00     0.027 A 
ATOM     39  C   UNL d   1      21.566 -17.767  -0.895  0.00  0.00     0.142 A 
ATOM     40  O   UNL d   1      22.759 -17.120  -0.762  0.00  0.00    -0.325 OA
ENDBRANCH  35  36
ENDBRANCH  33  35
ENDBRANCH  30  31
ENDBRANCH  29  30
ENDBRANCH   1  29
TORSDOF 9
ENDMDL
MODEL 5
REMARK VINA RESULT:    -8.344      3.079      6.799
REMARK INTER + INTRA:         -14.399
REMARK INTER:                 -11.029
REMARK INTRA:                  -3.371
REMARK CONF_INDEPENDENT:        2.685
REMARK UNBOUND:                -3.371
REMARK  9 active torsions:
REMARK  status: ('A' for Active; 'I' for Inactive)
REMARK    1  A    between atoms: C_2  and  C_3 
REMARK       I    between atoms: C_2  and  N_30 
REMARK    2  A    between atoms: C_3  and  S_4 
REMARK    3  A    between atoms: S_4  and  C_5 
REMARK    4  A    between atoms: N_15  and  N_16 
REMARK       I    between atoms: N_16  and  C_17 
REMARK    5  A    between atoms: C_17  and  C_19 
REMARK    6  A    between atoms: C_19  and  C_20 
REMARK    7  A    between atoms: C_20  and  C_21 
REMARK    8  A    between atoms: N_30  and  C_31 
REMARK    9  A    between atoms: C_31  and  C_32 
ROOT
ATOM      1  C   UNL d   1      26.192 -15.437  -0.243  0.00  0.00     0.274 C 
ATOM      2  N   UNL d   1      24.871 -15.570  -0.829  0.00  0.00    -0.358 N 
ATOM      3  C   UNL d   1      24.185 -16.774  -0.779  0.00  0.00     0.046 A 
ATOM      4  C   UNL d   1      22.837 -16.868  -1.137  0.00  0.00     0.030 A 
ATOM      5  C   UNL d   1      22.126 -18.077  -1.002  0.00  0.00     0.002 A 
ATOM      6  C   UNL d   1      22.756 -19.223  -0.525  0.00  0.00     0.001 A 
ATOM      7  C   UNL d   1      24.084 -19.145  -0.145  0.00  0.00     0.019 A 
ATOM      8  C   UNL d   1      24.765 -17.922  -0.244  0.00  0.00     0.060 A 
ATOM      9  C   UNL d   1      26.157 -17.860   0.198  0.00  0.00     0.277 C 
ATOM     10  O   UNL d   1      26.561 -18.806   0.877  0.00  0.00    -0.266 OA
ATOM     11  N   UNL d   1      26.880 -16.741  -0.220  0.00  0.00    -0.221 N 
ATOM     12  H   UNL d   1      24.630 -14.912  -1.561  0.00  0.00     0.162 HD
ENDROOT
BRANCH  11  13
ATOM     13  N   UNL d   1      28.322 -16.703   0.022  0.00  0.00    -0.262 N 
ATOM     14  C   UNL d   1      29.173 -16.517  -1.067  0.00  0.00     0.236 C 
ATOM     15  O   UNL d   1      28.866 -16.532  -2.255  0.00  0.00    -0.272 OA
ATOM     16  H   UNL d   1      28.563 -16.203   0.876  0.00  0.00     0.190 HD
BRANCH  14  17
ATOM     17  C   UNL d   1      30.607 -16.209  -0.725  0.00  0.00     0.109 C 
BRANCH  17  18
ATOM     18  C   UNL d   1      30.616 -14.781  -0.156  0.00  0.00     0.046 C 
BRANCH  18  19
ATOM     19  C   UNL d   1      30.617 -14.729   1.322  0.00  0.00    -0.050 A 
ATOM     20  C   UNL d   1      29.570 -14.411   2.083  0.00  0.00    -0.006 A 
ATOM     21  C   UNL d   1      28.216 -14.076   1.803  0.00  0.00     0.014 A 
ATOM     22  C   UNL d   1      30.095 -14.439   3.456  0.00  0.00     0.038 A 
ATOM     23  C   UNL d   1      27.417 -13.758   2.831  0.00  0.00     0.001 A 
ATOM     24  C   UNL d   1      27.910 -13.749   4.201  0.00  0.00     0.002 A 
ATOM     25  C   UNL d   1      29.175 -14.066   4.544  0.00  0.00     0.030 A 
ATOM     26  N   UNL d   1      31.329 -14.775   3.497  0.00  0.00    -0.385 N 
ATOM     27  C   UNL d   1      31.832 -15.036   2.136  0.00  0.00     0.155 A 
ATOM     28  H   UNL d   1      31.872 -14.830   4.355  0.00  0.00     0.160 HD
ENDBRANCH  18  19
ENDBRANCH  17  18
ENDBRANCH  14  17
ENDBRANCH  11  13
BRANCH   1  29
ATOM     29  S   UNL d   1      27.111 -14.218  -1.258  0.00  0.00    -0.112 SA
BRANCH  29  30
ATOM     30  C   UNL d   1      26.711 -14.693  -3.004  0.00  0.00     0.180 C 
BRANCH  30  31
ATOM     31  C   UNL d   1      25.453 -13.919  -3.475  0.00  0.00     0.227 C 
ATOM     32  O   UNL d   1      24.358 -14.450  -3.661  0.00  0.00    -0.273 OA
ATOM     33  N   UNL d   1      25.548 -12.577  -3.727  0.00  0.00    -0.354 N 
ATOM     34  H   UNL d   1      24.679 -12.145  -4.028  0.00  0.00     0.162 HD
BRANCH  33  35
ATOM     35  C   UNL d   1      26.726 -11.746  -3.633  0.00  0.00     0.187 C 
BRANCH  35  36
ATOM     36  C   UNL d   1      26.368 -10.307  -3.721  0.00  0.00     0.070 A 
ATOM     37  C   UNL d   1      27.071  -9.168  -3.389  0.00  0.00     0.036 A 
ATOM     38  C   UNL d   1      26.246  -8.069  -3.718  0.00  0.00     0.027 A 
ATOM     39  C   UNL d   1      25.092  -8.602  -4.244  0.00  0.00     0.142 A 
ATOM     40  O   UNL d   1      25.155  -9.965  -4.250  0.00  0.00    -0.325 OA
ENDBRANCH  35  36
ENDBRANCH  33  35
ENDBRANCH  30  31
ENDBRANCH  29  30
ENDBRANCH   1  29
TORSDOF 9
ENDMDL
MODEL 6
REMARK VINA RESULT:    -8.145      3.979      9.111
REMARK INTER + INTRA:         -14.507
REMARK INTER:                 -10.830
REMARK INTRA:                  -3.677
REMARK CONF_INDEPENDENT:        2.685
REMARK UNBOUND:                -3.677
REMARK  9 active torsions:
REMARK  status: ('A' for Active; 'I' for Inactive)
REMARK    1  A    between atoms: C_2  and  C_3 
REMARK       I    between atoms: C_2  and  N_30 
REMARK    2  A    between atoms: C_3  and  S_4 
REMARK    3  A    between atoms: S_4  and  C_5 
REMARK    4  A    between atoms: N_15  and  N_16 
REMARK       I    between atoms: N_16  and  C_17 
REMARK    5  A    between atoms: C_17  and  C_19 
REMARK    6  A    between atoms: C_19  and  C_20 
REMARK    7  A    between atoms: C_20  and  C_21 
REMARK    8  A    between atoms: N_30  and  C_31 
REMARK    9  A    between atoms: C_31  and  C_32 
ROOT
ATOM      1  C   UNL d   1      26.294 -15.881  -3.224  0.00  0.00     0.274 C 
ATOM      2  N   UNL d   1      27.683 -15.645  -3.576  0.00  0.00    -0.358 N 
ATOM      3  C   UNL d   1      28.712 -16.088  -2.759  0.00  0.00     0.046 A 
ATOM      4  C   UNL d   1      30.045 -16.069  -3.179  0.00  0.00     0.030 A 
ATOM      5  C   UNL d   1      31.073 -16.598  -2.375  0.00  0.00     0.002 A 
ATOM      6  C   UNL d   1      30.792 -17.140  -1.124  0.00  0.00     0.001 A 
ATOM      7  C   UNL d   1      29.476 -17.187  -0.700  0.00  0.00     0.019 A 
ATOM      8  C   UNL d   1      28.458 -16.696  -1.532  0.00  0.00     0.060 A 
ATOM      9  C   UNL d   1      27.073 -16.792  -1.072  0.00  0.00     0.277 C 
ATOM     10  O   UNL d   1      26.862 -17.537  -0.114  0.00  0.00    -0.266 OA
ATOM     11  N   UNL d   1      26.147 -16.007  -1.762  0.00  0.00    -0.221 N 
ATOM     12  H   UNL d   1      27.868 -14.871  -4.202  0.00  0.00     0.162 HD
ENDROOT
BRANCH  11  13
ATOM     13  N   UNL d   1      24.784 -15.906  -1.242  0.00  0.00    -0.262 N 
ATOM     14  C   UNL d   1      24.045 -17.077  -1.082  0.00  0.00     0.236 C 
ATOM     15  O   UNL d   1      24.348 -18.200  -1.473  0.00  0.00    -0.272 OA
ATOM     16  H   UNL d   1      24.697 -15.211  -0.502  0.00  0.00     0.190 HD
BRANCH  14  17
ATOM     17  C   UNL d   1      22.771 -16.939  -0.290  0.00  0.00     0.109 C 
BRANCH  17  18
ATOM     18  C   UNL d   1      22.503 -18.318   0.335  0.00  0.00     0.046 C 
BRANCH  18  19
ATOM     19  C   UNL d   1      21.228 -18.930  -0.097  0.00  0.00    -0.050 A 
ATOM     20  C   UNL d   1      20.349 -19.528   0.705  0.00  0.00    -0.006 A 
ATOM     21  C   UNL d   1      20.290 -19.749   2.110  0.00  0.00     0.014 A 
ATOM     22  C   UNL d   1      19.301 -20.020  -0.202  0.00  0.00     0.038 A 
ATOM     23  C   UNL d   1      19.256 -20.446   2.598  0.00  0.00     0.001 A 
ATOM     24  C   UNL d   1      18.214 -20.970   1.727  0.00  0.00     0.002 A 
ATOM     25  C   UNL d   1      18.195 -20.791   0.391  0.00  0.00     0.030 A 
ATOM     26  N   UNL d   1      19.530 -19.708  -1.422  0.00  0.00    -0.385 N 
ATOM     27  C   UNL d   1      20.785 -18.941  -1.525  0.00  0.00     0.155 A 
ATOM     28  H   UNL d   1      18.930 -19.976  -2.197  0.00  0.00     0.160 HD
ENDBRANCH  18  19
ENDBRANCH  17  18
ENDBRANCH  14  17
ENDBRANCH  11  13
BRANCH   1  29
ATOM     29  S   UNL d   1      25.328 -14.463  -3.869  0.00  0.00    -0.112 SA
BRANCH  29  30
ATOM     30  C   UNL d   1      25.798 -13.055  -2.759  0.00  0.00     0.180 C 
BRANCH  30  31
ATOM     31  C   UNL d   1      27.238 -12.590  -3.095  0.00  0.00     0.227 C 
ATOM     32  O   UNL d   1      27.779 -12.787  -4.183  0.00  0.00    -0.273 OA
ATOM     33  N   UNL d   1      27.974 -11.945  -2.138  0.00  0.00    -0.354 N 
ATOM     34  H   UNL d   1      28.905 -11.671  -2.440  0.00  0.00     0.162 HD
BRANCH  33  35
ATOM     35  C   UNL d   1      27.582 -11.645  -0.781  0.00  0.00     0.187 C 
BRANCH  35  36
ATOM     36  C   UNL d   1      27.727 -12.840   0.089  0.00  0.00     0.070 A 
ATOM     37  C   UNL d   1      28.792 -13.309   0.829  0.00  0.00     0.036 A 
ATOM     38  C   UNL d   1      28.348 -14.477   1.490  0.00  0.00     0.027 A 
ATOM     39  C   UNL d   1      27.033 -14.646   1.122  0.00  0.00     0.142 A 
ATOM     40  O   UNL d   1      26.644 -13.656   0.269  0.00  0.00    -0.325 OA
ENDBRANCH  35  36
ENDBRANCH  33  35
ENDBRANCH  30  31
ENDBRANCH  29  30
ENDBRANCH   1  29
TORSDOF 9
ENDMDL
MODEL 7
REMARK VINA RESULT:    -7.622      5.064      8.820
REMARK INTER + INTRA:         -14.595
REMARK INTER:                 -10.307
REMARK INTRA:                  -4.288
REMARK CONF_INDEPENDENT:        2.685
REMARK UNBOUND:                -4.288
REMARK  9 active torsions:
REMARK  status: ('A' for Active; 'I' for Inactive)
REMARK    1  A    between atoms: C_2  and  C_3 
REMARK       I    between atoms: C_2  and  N_30 
REMARK    2  A    between atoms: C_3  and  S_4 
REMARK    3  A    between atoms: S_4  and  C_5 
REMARK    4  A    between atoms: N_15  and  N_16 
REMARK       I    between atoms: N_16  and  C_17 
REMARK    5  A    between atoms: C_17  and  C_19 
REMARK    6  A    between atoms: C_19  and  C_20 
REMARK    7  A    between atoms: C_20  and  C_21 
REMARK    8  A    between atoms: N_30  and  C_31 
REMARK    9  A    between atoms: C_31  and  C_32 
ROOT
ATOM      1  C   UNL d   1      26.521 -15.567  -0.806  0.00  0.00     0.274 C 
ATOM      2  N   UNL d   1      25.102 -15.524  -1.110  0.00  0.00    -0.358 N 
ATOM      3  C   UNL d   1      24.288 -16.622  -0.876  0.00  0.00     0.046 A 
ATOM      4  C   UNL d   1      22.895 -16.535  -0.952  0.00  0.00     0.030 A 
ATOM      5  C   UNL d   1      22.074 -17.634  -0.632  0.00  0.00     0.002 A 
ATOM      6  C   UNL d   1      22.631 -18.850  -0.247  0.00  0.00     0.001 A 
ATOM      7  C   UNL d   1      24.007 -18.950  -0.145  0.00  0.00     0.019 A 
ATOM      8  C   UNL d   1      24.809 -17.833  -0.425  0.00  0.00     0.060 A 
ATOM      9  C   UNL d   1      26.257 -17.958  -0.275  0.00  0.00     0.277 C 
ATOM     10  O   UNL d   1      26.663 -18.943   0.345  0.00  0.00    -0.266 OA
ATOM     11  N   UNL d   1      27.021 -16.953  -0.872  0.00  0.00    -0.221 N 
ATOM     12  H   UNL d   1      24.806 -14.847  -1.803  0.00  0.00     0.162 HD
ENDROOT
BRANCH  11  13
ATOM     13  N   UNL d   1      28.474 -17.110  -0.926  0.00  0.00    -0.262 N 
ATOM     14  C   UNL d   1      29.259 -16.319  -0.089  0.00  0.00     0.236 C 
ATOM     15  O   UNL d   1      28.884 -15.374   0.599  0.00  0.00    -0.272 OA
ATOM     16  H   UNL d   1      28.760 -18.083  -1.028  0.00  0.00     0.190 HD
BRANCH  14  17
ATOM     17  C   UNL d   1      30.708 -16.718   0.012  0.00  0.00     0.109 C 
BRANCH  17  18
ATOM     18  C   UNL d   1      31.491 -15.715  -0.849  0.00  0.00     0.046 C 
BRANCH  18  19
ATOM     19  C   UNL d   1      30.937 -15.538  -2.209  0.00  0.00    -0.050 A 
ATOM     20  C   UNL d   1      30.777 -16.507  -3.110  0.00  0.00    -0.006 A 
ATOM     21  C   UNL d   1      31.016 -17.910  -3.098  0.00  0.00     0.014 A 
ATOM     22  C   UNL d   1      30.263 -15.817  -4.302  0.00  0.00     0.038 A 
ATOM     23  C   UNL d   1      30.780 -18.601  -4.221  0.00  0.00     0.001 A 
ATOM     24  C   UNL d   1      30.296 -17.947  -5.428  0.00  0.00     0.002 A 
ATOM     25  C   UNL d   1      30.036 -16.627  -5.511  0.00  0.00     0.030 A 
ATOM     26  N   UNL d   1      30.105 -14.563  -4.106  0.00  0.00    -0.385 N 
ATOM     27  C   UNL d   1      30.489 -14.209  -2.727  0.00  0.00     0.155 A 
ATOM     28  H   UNL d   1      29.777 -13.915  -4.818  0.00  0.00     0.160 HD
ENDBRANCH  18  19
ENDBRANCH  17  18
ENDBRANCH  14  17
ENDBRANCH  11  13
BRANCH   1  29
ATOM     29  S   UNL d   1      27.366 -14.497  -2.030  0.00  0.00    -0.112 SA
BRANCH  29  30
ATOM     30  C   UNL d   1      26.617 -14.990  -3.653  0.00  0.00     0.180 C 
BRANCH  30  31
ATOM     31  C   UNL d   1      25.406 -14.074  -3.963  0.00  0.00     0.227 C 
ATOM     32  O   UNL d   1      24.235 -14.450  -3.896  0.00  0.00    -0.273 OA
ATOM     33  N   UNL d   1      25.626 -12.782  -4.357  0.00  0.00    -0.354 N 
ATOM     34  H   UNL d   1      24.780 -12.250  -4.537  0.00  0.00     0.162 HD
BRANCH  33  35
ATOM     35  C   UNL d   1      26.899 -12.129  -4.558  0.00  0.00     0.187 C 
BRANCH  35  36
ATOM     36  C   UNL d   1      27.553 -12.614  -5.800  0.00  0.00     0.070 A 
ATOM     37  C   UNL d   1      27.831 -11.982  -6.994  0.00  0.00     0.036 A 
ATOM     38  C   UNL d   1      28.497 -12.924  -7.809  0.00  0.00     0.027 A 
ATOM     39  C   UNL d   1      28.597 -14.074  -7.060  0.00  0.00     0.142 A 
ATOM     40  O   UNL d   1      28.025 -13.896  -5.835  0.00  0.00    -0.325 OA
ENDBRANCH  35  36
ENDBRANCH  33  35
ENDBRANCH  30  31
ENDBRANCH  29  30
ENDBRANCH   1  29
TORSDOF 9
ENDMDL
MODEL 8
REMARK VINA RESULT:    -7.421      4.803      9.444
REMARK INTER + INTRA:         -14.548
REMARK INTER:                 -10.105
REMARK INTRA:                  -4.443
REMARK CONF_INDEPENDENT:        2.685
REMARK UNBOUND:                -4.443
REMARK  9 active torsions:
REMARK  status: ('A' for Active; 'I' for Inactive)
REMARK    1  A    between atoms: C_2  and  C_3 
REMARK       I    between atoms: C_2  and  N_30 
REMARK    2  A    between atoms: C_3  and  S_4 
REMARK    3  A    between atoms: S_4  and  C_5 
REMARK    4  A    between atoms: N_15  and  N_16 
REMARK       I    between atoms: N_16  and  C_17 
REMARK    5  A    between atoms: C_17  and  C_19 
REMARK    6  A    between atoms: C_19  and  C_20 
REMARK    7  A    between atoms: C_20  and  C_21 
REMARK    8  A    between atoms: N_30  and  C_31 
REMARK    9  A    between atoms: C_31  and  C_32 
ROOT
ATOM      1  C   UNL d   1      25.218 -14.489  -2.656  0.00  0.00     0.274 C 
ATOM      2  N   UNL d   1      23.952 -15.049  -2.220  0.00  0.00    -0.358 N 
ATOM      3  C   UNL d   1      23.905 -16.240  -1.511  0.00  0.00     0.046 A 
ATOM      4  C   UNL d   1      22.731 -16.684  -0.895  0.00  0.00     0.030 A 
ATOM      5  C   UNL d   1      22.713 -17.851  -0.108  0.00  0.00     0.002 A 
ATOM      6  C   UNL d   1      23.867 -18.611   0.064  0.00  0.00     0.001 A 
ATOM      7  C   UNL d   1      25.043 -18.177  -0.519  0.00  0.00     0.019 A 
ATOM      8  C   UNL d   1      25.054 -16.988  -1.264  0.00  0.00     0.060 A 
ATOM      9  C   UNL d   1      26.319 -16.535  -1.840  0.00  0.00     0.277 C 
ATOM     10  O   UNL d   1      27.342 -17.073  -1.412  0.00  0.00    -0.266 OA
ATOM     11  N   UNL d   1      26.222 -15.554  -2.829  0.00  0.00    -0.221 N 
ATOM     12  H   UNL d   1      23.127 -14.766  -2.736  0.00  0.00     0.162 HD
ENDROOT
BRANCH  11  13
ATOM     13  N   UNL d   1      27.423 -15.191  -3.580  0.00  0.00    -0.262 N 
ATOM     14  C   UNL d   1      27.362 -15.199  -4.973  0.00  0.00     0.236 C 
ATOM     15  O   UNL d   1      26.448 -15.628  -5.670  0.00  0.00    -0.272 OA
ATOM     16  H   UNL d   1      27.934 -14.419  -3.154  0.00  0.00     0.190 HD
BRANCH  14  17
ATOM     17  C   UNL d   1      28.526 -14.553  -5.678  0.00  0.00     0.109 C 
BRANCH  17  18
ATOM     18  C   UNL d   1      29.748 -14.761  -4.769  0.00  0.00     0.046 C 
BRANCH  18  19
ATOM     19  C   UNL d   1      30.076 -16.183  -4.529  0.00  0.00    -0.050 A 
ATOM     20  C   UNL d   1      30.373 -17.077  -5.472  0.00  0.00    -0.006 A 
ATOM     21  C   UNL d   1      30.505 -17.006  -6.887  0.00  0.00     0.014 A 
ATOM     22  C   UNL d   1      30.551 -18.338  -4.738  0.00  0.00     0.038 A 
ATOM     23  C   UNL d   1      30.778 -18.135  -7.555  0.00  0.00     0.001 A 
ATOM     24  C   UNL d   1      30.935 -19.407  -6.863  0.00  0.00     0.002 A 
ATOM     25  C   UNL d   1      30.836 -19.549  -5.526  0.00  0.00     0.030 A 
ATOM     26  N   UNL d   1      30.405 -18.189  -3.476  0.00  0.00    -0.385 N 
ATOM     27  C   UNL d   1      30.106 -16.781  -3.159  0.00  0.00     0.155 A 
ATOM     28  H   UNL d   1      30.470 -18.950  -2.805  0.00  0.00     0.160 HD
ENDBRANCH  18  19
ENDBRANCH  17  18
ENDBRANCH  14  17
ENDBRANCH  11  13
BRANCH   1  29
ATOM     29  S   UNL d   1      24.902 -13.610  -4.233  0.00  0.00    -0.112 SA
BRANCH  29  30
ATOM     30  C   UNL d   1      25.528 -11.893  -3.926  0.00  0.00     0.180 C 
BRANCH  30  31
ATOM     31  C   UNL d   1      27.078 -11.902  -3.910  0.00  0.00     0.227 C 
ATOM     32  O   UNL d   1      27.769 -11.790  -4.923  0.00  0.00    -0.273 OA
ATOM     33  N   UNL d   1      27.735 -12.065  -2.720  0.00  0.00    -0.354 N 
ATOM     34  H   UNL d   1      28.748 -12.057  -2.797  0.00  0.00     0.162 HD
BRANCH  33  35
ATOM     35  C   UNL d   1      27.152 -12.266  -1.414  0.00  0.00     0.187 C 
BRANCH  35  36
ATOM     36  C   UNL d   1      27.789 -13.414  -0.720  0.00  0.00     0.070 A 
ATOM     37  C   UNL d   1      27.437 -14.102   0.422  0.00  0.00     0.036 A 
ATOM     38  C   UNL d   1      28.395 -15.127   0.593  0.00  0.00     0.027 A 
ATOM     39  C   UNL d   1      29.270 -15.011  -0.462  0.00  0.00     0.142 A 
ATOM     40  O   UNL d   1      28.911 -13.971  -1.268  0.00  0.00    -0.325 OA
ENDBRANCH  35  36
ENDBRANCH  33  35
ENDBRANCH  30  31
ENDBRANCH  29  30
ENDBRANCH   1  29
TORSDOF 9
ENDMDL
MODEL 9
REMARK VINA RESULT:    -7.419      3.918      8.465
REMARK INTER + INTRA:         -14.467
REMARK INTER:                 -10.103
REMARK INTRA:                  -4.364
REMARK CONF_INDEPENDENT:        2.685
REMARK UNBOUND:                -4.364
REMARK  9 active torsions:
REMARK  status: ('A' for Active; 'I' for Inactive)
REMARK    1  A    between atoms: C_2  and  C_3 
REMARK       I    between atoms: C_2  and  N_30 
REMARK    2  A    between atoms: C_3  and  S_4 
REMARK    3  A    between atoms: S_4  and  C_5 
REMARK    4  A    between atoms: N_15  and  N_16 
REMARK       I    between atoms: N_16  and  C_17 
REMARK    5  A    between atoms: C_17  and  C_19 
REMARK    6  A    between atoms: C_19  and  C_20 
REMARK    7  A    between atoms: C_20  and  C_21 
REMARK    8  A    between atoms: N_30  and  C_31 
REMARK    9  A    between atoms: C_31  and  C_32 
ROOT
ATOM      1  C   UNL d   1      29.975 -16.822  -3.260  0.00  0.00     0.274 C 
ATOM      2  N   UNL d   1      30.410 -18.166  -3.594  0.00  0.00    -0.358 N 
ATOM      3  C   UNL d   1      30.685 -18.523  -4.906  0.00  0.00     0.046 A 
ATOM      4  C   UNL d   1      31.309 -19.733  -5.223  0.00  0.00     0.030 A 
ATOM      5  C   UNL d   1      31.659 -20.049  -6.551  0.00  0.00     0.002 A 
ATOM      6  C   UNL d   1      31.373 -19.170  -7.591  0.00  0.00     0.001 A 
ATOM      7  C   UNL d   1      30.775 -17.958  -7.294  0.00  0.00     0.019 A 
ATOM      8  C   UNL d   1      30.473 -17.639  -5.961  0.00  0.00     0.060 A 
ATOM      9  C   UNL d   1      29.873 -16.338  -5.673  0.00  0.00     0.277 C 
ATOM     10  O   UNL d   1      29.920 -15.499  -6.575  0.00  0.00    -0.266 OA
ATOM     11  N   UNL d   1      29.294 -16.200  -4.410  0.00  0.00    -0.221 N 
ATOM     12  H   UNL d   1      30.164 -18.899  -2.940  0.00  0.00     0.162 HD
ENDROOT
BRANCH  11  13
ATOM     13  N   UNL d   1      28.512 -14.998  -4.121  0.00  0.00    -0.262 N 
ATOM     14  C   UNL d   1      27.258 -14.864  -4.714  0.00  0.00     0.236 C 
ATOM     15  O   UNL d   1      26.775 -15.575  -5.590  0.00  0.00    -0.272 OA
ATOM     16  H   UNL d   1      28.586 -14.706  -3.148  0.00  0.00     0.190 HD
BRANCH  14  17
ATOM     17  C   UNL d   1      26.394 -13.758  -4.166  0.00  0.00     0.109 C 
BRANCH  17  18
ATOM     18  C   UNL d   1      25.292 -14.442  -3.342  0.00  0.00     0.046 C 
BRANCH  18  19
ATOM     19  C   UNL d   1      25.775 -15.034  -2.075  0.00  0.00    -0.050 A 
ATOM     20  C   UNL d   1      25.347 -16.179  -1.546  0.00  0.00    -0.006 A 
ATOM     21  C   UNL d   1      24.405 -17.162  -1.960  0.00  0.00     0.014 A 
ATOM     22  C   UNL d   1      26.077 -16.289  -0.275  0.00  0.00     0.038 A 
ATOM     23  C   UNL d   1      24.174 -18.200  -1.145  0.00  0.00     0.001 A 
ATOM     24  C   UNL d   1      24.859 -18.329   0.134  0.00  0.00     0.002 A 
ATOM     25  C   UNL d   1      25.771 -17.445   0.587  0.00  0.00     0.030 A 
ATOM     26  N   UNL d   1      26.884 -15.314  -0.092  0.00  0.00    -0.385 N 
ATOM     27  C   UNL d   1      26.826 -14.383  -1.234  0.00  0.00     0.155 A 
ATOM     28  H   UNL d   1      27.461 -15.205   0.738  0.00  0.00     0.160 HD
ENDBRANCH  18  19
ENDBRANCH  17  18
ENDBRANCH  14  17
ENDBRANCH  11  13
BRANCH   1  29
ATOM     29  S   UNL d   1      28.853 -16.962  -1.818  0.00  0.00    -0.112 SA
BRANCH  29  30
ATOM     30  C   UNL d   1      29.853 -16.302  -0.404  0.00  0.00     0.180 C 
BRANCH  30  31
ATOM     31  C   UNL d   1      30.017 -14.769  -0.558  0.00  0.00     0.227 C 
ATOM     32  O   UNL d   1      30.000 -14.189  -1.644  0.00  0.00    -0.273 OA
ATOM     33  N   UNL d   1      30.216 -14.001   0.558  0.00  0.00    -0.354 N 
ATOM     34  H   UNL d   1      30.311 -13.007   0.370  0.00  0.00     0.162 HD
BRANCH  33  35
ATOM     35  C   UNL d   1      30.325 -14.450   1.926  0.00  0.00     0.187 C 
BRANCH  35  36
ATOM     36  C   UNL d   1      29.070 -14.183   2.674  0.00  0.00     0.070 A 
ATOM     37  C   UNL d   1      28.721 -14.415   3.988  0.00  0.00     0.036 A 
ATOM     38  C   UNL d   1      27.405 -13.927   4.153  0.00  0.00     0.027 A 
ATOM     39  C   UNL d   1      27.032 -13.414   2.931  0.00  0.00     0.142 A 
ATOM     40  O   UNL d   1      28.038 -13.566   2.023  0.00  0.00    -0.325 OA
ENDBRANCH  35  36
ENDBRANCH  33  35
ENDBRANCH  30  31
ENDBRANCH  29  30
ENDBRANCH   1  29
TORSDOF 9
ENDMDL
