MODEL 1
REMARK VINA RESULT:    -6.748      0.000      0.000
REMARK INTER + INTRA:          -8.912
REMARK INTER:                  -7.942
REMARK INTRA:                  -0.970
REMARK CONF_INDEPENDENT:        1.193
REMARK UNBOUND:                -0.970
REMARK  4 active torsions:
REMARK  status: ('A' for Active; 'I' for Inactive)
REMARK       I    between atoms: C_2  and  N_4 
REMARK    1  A    between atoms: N_4  and  C_5 
REMARK    2  A    between atoms: C_7  and  N_8 
REMARK    3  A    between atoms: N_8  and  C_9 
REMARK    4  A    between atoms: C_9  and  C_10 
ROOT
ATOM      1  C   UNL d   1      27.970 -14.136   2.216  0.00  0.00     0.075 A 
ATOM      2  C   UNL d   1      28.159 -14.813   0.993  0.00  0.00     0.061 A 
ATOM      3  C   UNL d   1      27.543 -14.353  -0.198  0.00  0.00     0.030 A 
ATOM      4  C   UNL d   1      26.800 -13.166  -0.134  0.00  0.00     0.032 A 
ATOM      5  C   UNL d   1      26.655 -12.461   1.056  0.00  0.00     0.047 A 
ATOM      6  C   UNL d   1      27.237 -12.945   2.214  0.00  0.00     0.143 A 
ATOM      7  F   UNL d   1      27.157 -12.182   3.315  0.00  0.00    -0.204 F 
ENDROOT
BRANCH   3   8
ATOM      8  N   UNL d   1      27.752 -15.011  -1.407  0.00  0.00    -0.385 N 
ATOM      9  H   UNL d   1      28.420 -14.613  -2.056  0.00  0.00     0.160 HD
BRANCH   8  10
ATOM     10  C   UNL d   1      27.410 -16.423  -1.584  0.00  0.00     0.162 C 
BRANCH  10  11
ATOM     11  C   UNL d   1      26.001 -16.699  -1.122  0.00  0.00     0.003 A 
ATOM     12  C   UNL d   1      25.744 -17.688  -0.153  0.00  0.00     0.043 A 
ATOM     13 CL   UNL d   1      27.018 -18.576   0.612  0.00  0.00    -0.084 Cl
ATOM     14  C   UNL d   1      24.436 -18.005   0.231  0.00  0.00     0.024 A 
ATOM     15  C   UNL d   1      23.358 -17.334  -0.335  0.00  0.00     0.003 A 
ATOM     16  C   UNL d   1      23.589 -16.330  -1.270  0.00  0.00     0.024 A 
ATOM     17  C   UNL d   1      24.896 -16.010  -1.658  0.00  0.00     0.043 A 
ATOM     18 CL   UNL d   1      25.067 -14.736  -2.816  0.00  0.00    -0.084 Cl
ENDBRANCH  10  11
ENDBRANCH   8  10
ENDBRANCH   3   8
BRANCH   1  19
ATOM     19  N   UNL d   1      28.523 -14.633   3.430  0.00  0.00    -0.325 N 
ATOM     20  C   UNL d   1      27.817 -14.552   4.625  0.00  0.00     0.218 C 
ATOM     21  C   UNL d   1      28.532 -15.086   5.839  0.00  0.00     0.117 C 
ATOM     22  O   UNL d   1      26.655 -14.149   4.734  0.00  0.00    -0.274 OA
ATOM     23  H   UNL d   1      29.330 -15.240   3.380  0.00  0.00     0.169 HD
ENDBRANCH   1  19
TORSDOF 4
ENDMDL
MODEL 2
REMARK VINA RESULT:    -6.701      3.965      6.542
REMARK INTER + INTRA:          -8.783
REMARK INTER:                  -7.894
REMARK INTRA:                  -0.889
REMARK CONF_INDEPENDENT:        1.193
REMARK UNBOUND:                -0.889
REMARK  4 active torsions:
REMARK  status: ('A' for Active; 'I' for Inactive)
REMARK       I    between atoms: C_2  and  N_4 
REMARK    1  A    between atoms: N_4  and  C_5 
REMARK    2  A    between atoms: C_7  and  N_8 
REMARK    3  A    between atoms: N_8  and  C_9 
REMARK    4  A    between atoms: C_9  and  C_10 
ROOT
ATOM      1  C   UNL d   1      22.942 -18.129  -0.068  0.00  0.00     0.075 A 
ATOM      2  C   UNL d   1      24.292 -18.459   0.172  0.00  0.00     0.061 A 
ATOM      3  C   UNL d   1      25.342 -17.692  -0.392  0.00  0.00     0.030 A 
ATOM      4  C   UNL d   1      24.995 -16.556  -1.137  0.00  0.00     0.032 A 
ATOM      5  C   UNL d   1      23.668 -16.191  -1.331  0.00  0.00     0.047 A 
ATOM      6  C   UNL d   1      22.657 -16.972  -0.800  0.00  0.00     0.143 A 
ATOM      7  F   UNL d   1      21.397 -16.528  -0.926  0.00  0.00    -0.204 F 
ENDROOT
BRANCH   3   8
ATOM      8  N   UNL d   1      26.673 -18.008  -0.132  0.00  0.00    -0.385 N 
ATOM      9  H   UNL d   1      27.119 -18.705  -0.716  0.00  0.00     0.160 HD
BRANCH   8  10
ATOM     10  C   UNL d   1      27.548 -17.102   0.612  0.00  0.00     0.162 C 
BRANCH  10  11
ATOM     11  C   UNL d   1      28.280 -16.170  -0.321  0.00  0.00     0.003 A 
ATOM     12  C   UNL d   1      27.861 -14.834  -0.476  0.00  0.00     0.043 A 
ATOM     13 CL   UNL d   1      26.553 -14.171   0.442  0.00  0.00    -0.084 Cl
ATOM     14  C   UNL d   1      28.485 -13.981  -1.393  0.00  0.00     0.024 A 
ATOM     15  C   UNL d   1      29.546 -14.438  -2.166  0.00  0.00     0.003 A 
ATOM     16  C   UNL d   1      29.999 -15.744  -2.006  0.00  0.00     0.024 A 
ATOM     17  C   UNL d   1      29.377 -16.603  -1.091  0.00  0.00     0.043 A 
ATOM     18 CL   UNL d   1      30.030 -18.200  -0.965  0.00  0.00    -0.084 Cl
ENDBRANCH  10  11
ENDBRANCH   8  10
ENDBRANCH   3   8
BRANCH   1  19
ATOM     19  N   UNL d   1      21.882 -18.937   0.433  0.00  0.00    -0.325 N 
ATOM     20  C   UNL d   1      20.902 -19.441  -0.415  0.00  0.00     0.218 C 
ATOM     21  C   UNL d   1      19.822 -20.253   0.250  0.00  0.00     0.117 C 
ATOM     22  O   UNL d   1      20.904 -19.325  -1.645  0.00  0.00    -0.274 OA
ATOM     23  H   UNL d   1      21.968 -19.325   1.363  0.00  0.00     0.169 HD
ENDBRANCH   1  19
TORSDOF 4
ENDMDL
MODEL 3
REMARK VINA RESULT:    -6.696      0.124      2.001
REMARK INTER + INTRA:          -8.818
REMARK INTER:                  -7.889
REMARK INTRA:                  -0.928
REMARK CONF_INDEPENDENT:        1.193
REMARK UNBOUND:                -0.928
REMARK  4 active torsions:
REMARK  status: ('A' for Active; 'I' for Inactive)
REMARK       I    between atoms: C_2  and  N_4 
REMARK    1  A    between atoms: N_4  and  C_5 
REMARK    2  A    between atoms: C_7  and  N_8 
REMARK    3  A    between atoms: N_8  and  C_9 
REMARK    4  A    between atoms: C_9  and  C_10 
ROOT
ATOM      1  C   UNL d   1      27.951 -14.043   2.278  0.00  0.00     0.075 A 
ATOM      2  C   UNL d   1      28.090 -14.704   1.040  0.00  0.00     0.061 A 
ATOM      3  C   UNL d   1      27.470 -14.198  -0.130  0.00  0.00     0.030 A 
ATOM      4  C   UNL d   1      26.775 -12.985  -0.030  0.00  0.00     0.032 A 
ATOM      5  C   UNL d   1      26.681 -12.297   1.175  0.00  0.00     0.047 A 
ATOM      6  C   UNL d   1      27.265 -12.824   2.312  0.00  0.00     0.143 A 
ATOM      7  F   UNL d   1      27.236 -12.080   3.428  0.00  0.00    -0.204 F 
ENDROOT
BRANCH   3   8
ATOM      8  N   UNL d   1      27.630 -14.842  -1.355  0.00  0.00    -0.385 N 
ATOM      9  H   UNL d   1      28.186 -14.381  -2.065  0.00  0.00     0.160 HD
BRANCH   8  10
ATOM     10  C   UNL d   1      27.425 -16.283  -1.499  0.00  0.00     0.162 C 
BRANCH  10  11
ATOM     11  C   UNL d   1      26.020 -16.670  -1.108  0.00  0.00     0.003 A 
ATOM     12  C   UNL d   1      24.910 -16.018  -1.679  0.00  0.00     0.043 A 
ATOM     13 CL   UNL d   1      25.087 -14.809  -2.905  0.00  0.00    -0.084 Cl
ATOM     14  C   UNL d   1      23.605 -16.316  -1.271  0.00  0.00     0.024 A 
ATOM     15  C   UNL d   1      23.380 -17.278  -0.293  0.00  0.00     0.003 A 
ATOM     16  C   UNL d   1      24.459 -17.958   0.262  0.00  0.00     0.024 A 
ATOM     17  C   UNL d   1      25.767 -17.663  -0.142  0.00  0.00     0.043 A 
ATOM     18 CL   UNL d   1      27.030 -18.579   0.604  0.00  0.00    -0.084 Cl
ENDBRANCH  10  11
ENDBRANCH   8  10
ENDBRANCH   3   8
BRANCH   1  19
ATOM     19  N   UNL d   1      28.507 -14.583   3.473  0.00  0.00    -0.325 N 
ATOM     20  C   UNL d   1      27.816 -14.522   4.677  0.00  0.00     0.218 C 
ATOM     21  C   UNL d   1      28.533 -15.102   5.868  0.00  0.00     0.117 C 
ATOM     22  O   UNL d   1      26.663 -14.099   4.810  0.00  0.00    -0.274 OA
ATOM     23  H   UNL d   1      29.302 -15.205   3.397  0.00  0.00     0.169 HD
ENDBRANCH   1  19
TORSDOF 4
ENDMDL
MODEL 4
REMARK VINA RESULT:    -6.641      4.561      6.807
REMARK INTER + INTRA:          -8.711
REMARK INTER:                  -7.834
REMARK INTRA:                  -0.877
REMARK CONF_INDEPENDENT:        1.193
REMARK UNBOUND:                -0.877
REMARK  4 active torsions:
REMARK  status: ('A' for Active; 'I' for Inactive)
REMARK       I    between atoms: C_2  and  N_4 
REMARK    1  A    between atoms: N_4  and  C_5 
REMARK    2  A    between atoms: C_7  and  N_8 
REMARK    3  A    between atoms: N_8  and  C_9 
REMARK    4  A    between atoms: C_9  and  C_10 
ROOT
ATOM      1  C   UNL d   1      23.113 -17.563  -0.609  0.00  0.00     0.075 A 
ATOM      2  C   UNL d   1      23.423 -16.295  -1.142  0.00  0.00     0.061 A 
ATOM      3  C   UNL d   1      24.757 -15.947  -1.470  0.00  0.00     0.030 A 
ATOM      4  C   UNL d   1      25.747 -16.928  -1.313  0.00  0.00     0.032 A 
ATOM      5  C   UNL d   1      25.442 -18.200  -0.842  0.00  0.00     0.047 A 
ATOM      6  C   UNL d   1      24.138 -18.508  -0.496  0.00  0.00     0.143 A 
ATOM      7  F   UNL d   1      23.872 -19.775  -0.143  0.00  0.00    -0.204 F 
ENDROOT
BRANCH   3   8
ATOM      8  N   UNL d   1      25.054 -14.701  -2.018  0.00  0.00    -0.385 N 
ATOM      9  H   UNL d   1      24.288 -14.060  -2.183  0.00  0.00     0.160 HD
BRANCH   8  10
ATOM     10  C   UNL d   1      26.399 -14.130  -1.948  0.00  0.00     0.162 C 
BRANCH  10  11
ATOM     11  C   UNL d   1      27.201 -14.486  -3.176  0.00  0.00     0.003 A 
ATOM     12  C   UNL d   1      26.842 -13.977  -4.439  0.00  0.00     0.043 A 
ATOM     13 CL   UNL d   1      25.530 -12.868  -4.643  0.00  0.00    -0.084 Cl
ATOM     14  C   UNL d   1      27.532 -14.357  -5.596  0.00  0.00     0.024 A 
ATOM     15  C   UNL d   1      28.601 -15.243  -5.515  0.00  0.00     0.003 A 
ATOM     16  C   UNL d   1      28.994 -15.733  -4.273  0.00  0.00     0.024 A 
ATOM     17  C   UNL d   1      28.306 -15.356  -3.112  0.00  0.00     0.043 A 
ATOM     18 CL   UNL d   1      28.889 -16.014  -1.623  0.00  0.00    -0.084 Cl
ENDBRANCH  10  11
ENDBRANCH   8  10
ENDBRANCH   3   8
BRANCH   1  19
ATOM     19  N   UNL d   1      21.788 -17.894  -0.207  0.00  0.00    -0.325 N 
ATOM     20  C   UNL d   1      20.993 -18.733  -0.980  0.00  0.00     0.218 C 
ATOM     21  C   UNL d   1      19.602 -18.975  -0.456  0.00  0.00     0.117 C 
ATOM     22  O   UNL d   1      21.369 -19.325  -1.997  0.00  0.00    -0.274 OA
ATOM     23  H   UNL d   1      21.510 -17.699   0.746  0.00  0.00     0.169 HD
ENDBRANCH   1  19
TORSDOF 4
ENDMDL
MODEL 5
REMARK VINA RESULT:    -6.575      5.009      6.904
REMARK INTER + INTRA:          -8.568
REMARK INTER:                  -7.768
REMARK INTRA:                  -0.800
REMARK CONF_INDEPENDENT:        1.193
REMARK UNBOUND:                -0.800
REMARK  4 active torsions:
REMARK  status: ('A' for Active; 'I' for Inactive)
REMARK       I    between atoms: C_2  and  N_4 
REMARK    1  A    between atoms: N_4  and  C_5 
REMARK    2  A    between atoms: C_7  and  N_8 
REMARK    3  A    between atoms: N_8  and  C_9 
REMARK    4  A    between atoms: C_9  and  C_10 
ROOT
ATOM      1  C   UNL d   1      26.039 -12.563  -4.876  0.00  0.00     0.075 A 
ATOM      2  C   UNL d   1      25.357 -13.558  -4.146  0.00  0.00     0.061 A 
ATOM      3  C   UNL d   1      25.830 -14.894  -4.113  0.00  0.00     0.030 A 
ATOM      4  C   UNL d   1      27.035 -15.177  -4.772  0.00  0.00     0.032 A 
ATOM      5  C   UNL d   1      27.745 -14.190  -5.447  0.00  0.00     0.047 A 
ATOM      6  C   UNL d   1      27.248 -12.900  -5.494  0.00  0.00     0.143 A 
ATOM      7  F   UNL d   1      28.014 -11.960  -6.069  0.00  0.00    -0.204 F 
ENDROOT
BRANCH   3   8
ATOM      8  N   UNL d   1      25.165 -15.867  -3.371  0.00  0.00    -0.385 N 
ATOM      9  H   UNL d   1      25.281 -16.835  -3.645  0.00  0.00     0.160 HD
BRANCH   8  10
ATOM     10  C   UNL d   1      24.696 -15.609  -2.010  0.00  0.00     0.162 C 
BRANCH  10  11
ATOM     11  C   UNL d   1      25.352 -16.547  -1.026  0.00  0.00     0.003 A 
ATOM     12  C   UNL d   1      26.682 -16.336  -0.612  0.00  0.00     0.043 A 
ATOM     13 CL   UNL d   1      27.600 -14.966  -1.136  0.00  0.00    -0.084 Cl
ATOM     14  C   UNL d   1      27.326 -17.238   0.242  0.00  0.00     0.024 A 
ATOM     15  C   UNL d   1      26.655 -18.362   0.709  0.00  0.00     0.003 A 
ATOM     16  C   UNL d   1      25.330 -18.573   0.340  0.00  0.00     0.024 A 
ATOM     17  C   UNL d   1      24.681 -17.674  -0.516  0.00  0.00     0.043 A 
ATOM     18 CL   UNL d   1      23.031 -18.027  -0.898  0.00  0.00    -0.084 Cl
ENDBRANCH  10  11
ENDBRANCH   8  10
ENDBRANCH   3   8
BRANCH   1  19
ATOM     19  N   UNL d   1      25.531 -11.237  -4.976  0.00  0.00    -0.325 N 
ATOM     20  C   UNL d   1      25.530 -10.559  -6.189  0.00  0.00     0.218 C 
ATOM     21  C   UNL d   1      24.993  -9.152  -6.147  0.00  0.00     0.117 C 
ATOM     22  O   UNL d   1      25.866 -11.047  -7.273  0.00  0.00    -0.274 OA
ATOM     23  H   UNL d   1      24.970 -10.877  -4.214  0.00  0.00     0.169 HD
ENDBRANCH   1  19
TORSDOF 4
ENDMDL
MODEL 6
REMARK VINA RESULT:    -6.565      3.936      6.370
REMARK INTER + INTRA:          -8.642
REMARK INTER:                  -7.758
REMARK INTRA:                  -0.884
REMARK CONF_INDEPENDENT:        1.193
REMARK UNBOUND:                -0.884
REMARK  4 active torsions:
REMARK  status: ('A' for Active; 'I' for Inactive)
REMARK       I    between atoms: C_2  and  N_4 
REMARK    1  A    between atoms: N_4  and  C_5 
REMARK    2  A    between atoms: C_7  and  N_8 
REMARK    3  A    between atoms: N_8  and  C_9 
REMARK    4  A    between atoms: C_9  and  C_10 
ROOT
ATOM      1  C   UNL d   1      23.013 -18.075  -0.092  0.00  0.00     0.075 A 
ATOM      2  C   UNL d   1      24.368 -18.402   0.124  0.00  0.00     0.061 A 
ATOM      3  C   UNL d   1      25.406 -17.630  -0.455  0.00  0.00     0.030 A 
ATOM      4  C   UNL d   1      25.044 -16.493  -1.191  0.00  0.00     0.032 A 
ATOM      5  C   UNL d   1      23.712 -16.131  -1.362  0.00  0.00     0.047 A 
ATOM      6  C   UNL d   1      22.713 -16.916  -0.816  0.00  0.00     0.143 A 
ATOM      7  F   UNL d   1      21.450 -16.475  -0.919  0.00  0.00    -0.204 F 
ENDROOT
BRANCH   3   8
ATOM      8  N   UNL d   1      26.742 -17.944  -0.219  0.00  0.00    -0.385 N 
ATOM      9  H   UNL d   1      27.202 -18.580  -0.859  0.00  0.00     0.160 HD
BRANCH   8  10
ATOM     10  C   UNL d   1      27.599 -17.090   0.604  0.00  0.00     0.162 C 
BRANCH  10  11
ATOM     11  C   UNL d   1      28.378 -16.122  -0.253  0.00  0.00     0.003 A 
ATOM     12  C   UNL d   1      29.519 -16.548  -0.960  0.00  0.00     0.043 A 
ATOM     13 CL   UNL d   1      30.040 -18.198  -0.954  0.00  0.00    -0.084 Cl
ATOM     14  C   UNL d   1      30.293 -15.645  -1.699  0.00  0.00     0.024 A 
ATOM     15  C   UNL d   1      29.938 -14.302  -1.756  0.00  0.00     0.003 A 
ATOM     16  C   UNL d   1      28.796 -13.865  -1.092  0.00  0.00     0.024 A 
ATOM     17  C   UNL d   1      28.019 -14.764  -0.351  0.00  0.00     0.043 A 
ATOM     18 CL   UNL d   1      26.615 -14.114   0.422  0.00  0.00    -0.084 Cl
ENDBRANCH  10  11
ENDBRANCH   8  10
ENDBRANCH   3   8
BRANCH   1  19
ATOM     19  N   UNL d   1      21.963 -18.887   0.424  0.00  0.00    -0.325 N 
ATOM     20  C   UNL d   1      20.989 -19.418  -0.415  0.00  0.00     0.218 C 
ATOM     21  C   UNL d   1      19.920 -20.231   0.266  0.00  0.00     0.117 C 
ATOM     22  O   UNL d   1      20.988 -19.324  -1.646  0.00  0.00    -0.274 OA
ATOM     23  H   UNL d   1      22.055 -19.256   1.361  0.00  0.00     0.169 HD
ENDBRANCH   1  19
TORSDOF 4
ENDMDL
MODEL 7
REMARK VINA RESULT:    -6.556      4.314      6.416
REMARK INTER + INTRA:          -8.539
REMARK INTER:                  -7.749
REMARK INTRA:                  -0.790
REMARK CONF_INDEPENDENT:        1.193
REMARK UNBOUND:                -0.790
REMARK  4 active torsions:
REMARK  status: ('A' for Active; 'I' for Inactive)
REMARK       I    between atoms: C_2  and  N_4 
REMARK    1  A    between atoms: N_4  and  C_5 
REMARK    2  A    between atoms: C_7  and  N_8 
REMARK    3  A    between atoms: N_8  and  C_9 
REMARK    4  A    between atoms: C_9  and  C_10 
ROOT
ATOM      1  C   UNL d   1      23.801 -17.132  -0.507  0.00  0.00     0.075 A 
ATOM      2  C   UNL d   1      24.039 -16.229  -1.563  0.00  0.00     0.061 A 
ATOM      3  C   UNL d   1      25.342 -15.730  -1.818  0.00  0.00     0.030 A 
ATOM      4  C   UNL d   1      26.394 -16.218  -1.030  0.00  0.00     0.032 A 
ATOM      5  C   UNL d   1      26.177 -17.152  -0.023  0.00  0.00     0.047 A 
ATOM      6  C   UNL d   1      24.894 -17.601   0.230  0.00  0.00     0.143 A 
ATOM      7  F   UNL d   1      24.744 -18.575   1.141  0.00  0.00    -0.204 F 
ENDROOT
BRANCH   3   8
ATOM      8  N   UNL d   1      25.575 -14.857  -2.877  0.00  0.00    -0.385 N 
ATOM      9  H   UNL d   1      24.787 -14.588  -3.454  0.00  0.00     0.160 HD
BRANCH   8  10
ATOM     10  C   UNL d   1      26.757 -13.996  -2.918  0.00  0.00     0.162 C 
BRANCH  10  11
ATOM     11  C   UNL d   1      27.452 -14.096  -4.254  0.00  0.00     0.003 A 
ATOM     12  C   UNL d   1      28.457 -15.059  -4.468  0.00  0.00     0.043 A 
ATOM     13 CL   UNL d   1      28.891 -16.218  -3.259  0.00  0.00    -0.084 Cl
ATOM     14  C   UNL d   1      29.161 -15.116  -5.677  0.00  0.00     0.024 A 
ATOM     15  C   UNL d   1      28.868 -14.220  -6.700  0.00  0.00     0.003 A 
ATOM     16  C   UNL d   1      27.857 -13.282  -6.522  0.00  0.00     0.024 A 
ATOM     17  C   UNL d   1      27.150 -13.220  -5.314  0.00  0.00     0.043 A 
ATOM     18 CL   UNL d   1      25.905 -12.025  -5.208  0.00  0.00    -0.084 Cl
ENDBRANCH  10  11
ENDBRANCH   8  10
ENDBRANCH   3   8
BRANCH   1  19
ATOM     19  N   UNL d   1      22.486 -17.581  -0.198  0.00  0.00    -0.325 N 
ATOM     20  C   UNL d   1      21.883 -18.596  -0.932  0.00  0.00     0.218 C 
ATOM     21  C   UNL d   1      20.478 -18.950  -0.520  0.00  0.00     0.117 C 
ATOM     22  O   UNL d   1      22.436 -19.248  -1.824  0.00  0.00    -0.274 OA
ATOM     23  H   UNL d   1      22.081 -17.315   0.690  0.00  0.00     0.169 HD
ENDBRANCH   1  19
TORSDOF 4
ENDMDL
MODEL 8
REMARK VINA RESULT:    -6.546      4.920      6.857
REMARK INTER + INTRA:          -8.611
REMARK INTER:                  -7.739
REMARK INTRA:                  -0.872
REMARK CONF_INDEPENDENT:        1.193
REMARK UNBOUND:                -0.872
REMARK  4 active torsions:
REMARK  status: ('A' for Active; 'I' for Inactive)
REMARK       I    between atoms: C_2  and  N_4 
REMARK    1  A    between atoms: N_4  and  C_5 
REMARK    2  A    between atoms: C_7  and  N_8 
REMARK    3  A    between atoms: N_8  and  C_9 
REMARK    4  A    between atoms: C_9  and  C_10 
ROOT
ATOM      1  C   UNL d   1      28.015 -14.326  -6.141  0.00  0.00     0.075 A 
ATOM      2  C   UNL d   1      27.276 -15.200  -5.317  0.00  0.00     0.061 A 
ATOM      3  C   UNL d   1      26.273 -14.708  -4.445  0.00  0.00     0.030 A 
ATOM      4  C   UNL d   1      25.992 -13.335  -4.480  0.00  0.00     0.032 A 
ATOM      5  C   UNL d   1      26.676 -12.473  -5.331  0.00  0.00     0.047 A 
ATOM      6  C   UNL d   1      27.674 -12.969  -6.150  0.00  0.00     0.143 A 
ATOM      7  F   UNL d   1      28.239 -12.123  -7.025  0.00  0.00    -0.204 F 
ENDROOT
BRANCH   3   8
ATOM      8  N   UNL d   1      25.530 -15.578  -3.652  0.00  0.00    -0.385 N 
ATOM      9  H   UNL d   1      25.545 -16.564  -3.884  0.00  0.00     0.160 HD
BRANCH   8  10
ATOM     10  C   UNL d   1      25.115 -15.219  -2.295  0.00  0.00     0.162 C 
BRANCH  10  11
ATOM     11  C   UNL d   1      25.554 -16.266  -1.301  0.00  0.00     0.003 A 
ATOM     12  C   UNL d   1      26.919 -16.452  -1.010  0.00  0.00     0.043 A 
ATOM     13 CL   UNL d   1      28.149 -15.451  -1.703  0.00  0.00    -0.084 Cl
ATOM     14  C   UNL d   1      27.344 -17.467  -0.146  0.00  0.00     0.024 A 
ATOM     15  C   UNL d   1      26.416 -18.312   0.452  0.00  0.00     0.003 A 
ATOM     16  C   UNL d   1      25.060 -18.126   0.205  0.00  0.00     0.024 A 
ATOM     17  C   UNL d   1      24.628 -17.112  -0.659  0.00  0.00     0.043 A 
ATOM     18 CL   UNL d   1      22.920 -16.963  -0.883  0.00  0.00    -0.084 Cl
ENDBRANCH  10  11
ENDBRANCH   8  10
ENDBRANCH   3   8
BRANCH   1  19
ATOM     19  N   UNL d   1      29.074 -14.802  -6.964  0.00  0.00    -0.325 N 
ATOM     20  C   UNL d   1      30.059 -15.640  -6.452  0.00  0.00     0.218 C 
ATOM     21  C   UNL d   1      31.138 -16.043  -7.423  0.00  0.00     0.117 C 
ATOM     22  O   UNL d   1      30.063 -16.112  -5.311  0.00  0.00    -0.274 OA
ATOM     23  H   UNL d   1      28.984 -14.711  -7.968  0.00  0.00     0.169 HD
ENDBRANCH   1  19
TORSDOF 4
ENDMDL
MODEL 9
REMARK VINA RESULT:    -6.526      4.849      6.809
REMARK INTER + INTRA:          -8.620
REMARK INTER:                  -7.719
REMARK INTRA:                  -0.901
REMARK CONF_INDEPENDENT:        1.193
REMARK UNBOUND:                -0.901
REMARK  4 active torsions:
REMARK  status: ('A' for Active; 'I' for Inactive)
REMARK       I    between atoms: C_2  and  N_4 
REMARK    1  A    between atoms: N_4  and  C_5 
REMARK    2  A    between atoms: C_7  and  N_8 
REMARK    3  A    between atoms: N_8  and  C_9 
REMARK    4  A    between atoms: C_9  and  C_10 
ROOT
ATOM      1  C   UNL d   1      27.890 -14.367  -6.045  0.00  0.00     0.075 A 
ATOM      2  C   UNL d   1      27.125 -15.200  -5.202  0.00  0.00     0.061 A 
ATOM      3  C   UNL d   1      26.127 -14.660  -4.353  0.00  0.00     0.030 A 
ATOM      4  C   UNL d   1      25.877 -13.282  -4.430  0.00  0.00     0.032 A 
ATOM      5  C   UNL d   1      26.587 -12.462  -5.300  0.00  0.00     0.047 A 
ATOM      6  C   UNL d   1      27.580 -13.004  -6.096  0.00  0.00     0.143 A 
ATOM      7  F   UNL d   1      28.170 -12.196  -6.991  0.00  0.00    -0.204 F 
ENDROOT
BRANCH   3   8
ATOM      8  N   UNL d   1      25.359 -15.490  -3.540  0.00  0.00    -0.385 N 
ATOM      9  H   UNL d   1      25.215 -16.447  -3.839  0.00  0.00     0.160 HD
BRANCH   8  10
ATOM     10  C   UNL d   1      25.140 -15.192  -2.125  0.00  0.00     0.162 C 
BRANCH  10  11
ATOM     11  C   UNL d   1      25.621 -16.327  -1.254  0.00  0.00     0.003 A 
ATOM     12  C   UNL d   1      24.701 -17.189  -0.626  0.00  0.00     0.043 A 
ATOM     13 CL   UNL d   1      22.994 -17.049  -0.876  0.00  0.00    -0.084 Cl
ATOM     14  C   UNL d   1      25.130 -18.199   0.242  0.00  0.00     0.024 A 
ATOM     15  C   UNL d   1      26.486 -18.378   0.493  0.00  0.00     0.003 A 
ATOM     16  C   UNL d   1      27.415 -17.560  -0.142  0.00  0.00     0.024 A 
ATOM     17  C   UNL d   1      26.991 -16.546  -1.011  0.00  0.00     0.043 A 
ATOM     18 CL   UNL d   1      28.231 -15.598  -1.756  0.00  0.00    -0.084 Cl
ENDBRANCH  10  11
ENDBRANCH   8  10
ENDBRANCH   3   8
BRANCH   1  19
ATOM     19  N   UNL d   1      28.945 -14.891  -6.845  0.00  0.00    -0.325 N 
ATOM     20  C   UNL d   1      29.854 -15.805  -6.324  0.00  0.00     0.218 C 
ATOM     21  C   UNL d   1      30.938 -16.254  -7.269  0.00  0.00     0.117 C 
ATOM     22  O   UNL d   1      29.787 -16.305  -5.197  0.00  0.00    -0.274 OA
ATOM     23  H   UNL d   1      28.896 -14.769  -7.848  0.00  0.00     0.169 HD
ENDBRANCH   1  19
TORSDOF 4
ENDMDL
