MODEL 1
REMARK VINA RESULT:    -8.748      0.000      0.000
REMARK INTER + INTRA:         -16.891
REMARK INTER:                 -12.328
REMARK INTRA:                  -4.563
REMARK CONF_INDEPENDENT:        3.580
REMARK UNBOUND:                -4.563
REMARK  12 active torsions:
REMARK  status: ('A' for Active; 'I' for Inactive)
REMARK    1  A    between atoms: C_2  and  C_3 
REMARK    2  A    between atoms: C_3  and  C_4 
REMARK    3  A    between atoms: C_3  and  C_33 
REMARK       I    between atoms: C_4  and  N_6 
REMARK    4  A    between atoms: N_6  and  C_7 
REMARK    5  A    between atoms: C_14  and  N_6 
REMARK    6  A    between atoms: C_7  and  C_8 
REMARK    7  A    between atoms: C_14  and  C_24 
REMARK    8  A    between atoms: C_14  and  C_15 
REMARK       I    between atoms: C_15  and  N_17 
REMARK    9  A    between atoms: N_17  and  C_18 
REMARK   10  A    between atoms: C_25  and  O_26 
REMARK   11  A    between atoms: C_28  and  O_29 
REMARK   12  A    between atoms: C_31  and  O_32 
ROOT
ATOM      1  C   UNL d   1      26.516 -13.394  -3.341  0.00  0.00     0.218 C 
ENDROOT
BRANCH   1   2
ATOM      2  C   UNL d   1      26.816 -13.210  -4.825  0.00  0.00     0.040 C 
ATOM      3  C   UNL d   1      27.419 -14.304  -5.493  0.00  0.00     0.080 C 
ATOM      4  C   UNL d   1      28.155 -14.168  -6.657  0.00  0.00     0.073 C 
ATOM      5  C   UNL d   1      28.215 -12.914  -7.238  0.00  0.00     0.071 C 
ATOM      6  C   UNL d   1      27.554 -11.836  -6.676  0.00  0.00     0.073 C 
ATOM      7  C   UNL d   1      26.782 -12.022  -5.537  0.00  0.00     0.080 C 
BRANCH   3   8
ATOM      8  O   UNL d   1      27.271 -15.593  -5.040  0.00  0.00    -0.360 OA
ATOM      9  H   UNL d   1      26.367 -15.869  -5.281  0.00  0.00     0.217 HD
ENDBRANCH   3   8
BRANCH   5  10
ATOM     10  O   UNL d   1      28.802 -12.727  -8.449  0.00  0.00    -0.361 OA
ATOM     11  H   UNL d   1      28.883 -13.596  -8.872  0.00  0.00     0.217 HD
ENDBRANCH   5  10
BRANCH   7  12
ATOM     12  O   UNL d   1      25.926 -11.010  -5.226  0.00  0.00    -0.360 OA
ATOM     13  H   UNL d   1      25.044 -11.447  -5.258  0.00  0.00     0.217 HD
ENDBRANCH   7  12
ENDBRANCH   1   2
BRANCH   1  14
ATOM     14  C   UNL d   1      25.491 -14.589  -3.316  0.00  0.00     0.245 C 
ATOM     15  O   UNL d   1      24.780 -14.770  -4.314  0.00  0.00    -0.271 OA
ATOM     16  N   UNL d   1      25.442 -15.370  -2.145  0.00  0.00    -0.354 N 
ATOM     17  H   UNL d   1      25.431 -14.799  -1.319  0.00  0.00     0.162 HD
BRANCH  16  18
ATOM     18  C   UNL d   1      24.636 -16.574  -1.824  0.00  0.00     0.084 C 
ATOM     19  C   UNL d   1      25.359 -17.523  -0.888  0.00  0.00     0.025 C 
ATOM     20  C   UNL d   1      24.444 -18.649  -0.410  0.00  0.00     0.002 C 
ATOM     21  C   UNL d   1      23.151 -18.151   0.242  0.00  0.00     0.000 C 
ATOM     22  C   UNL d   1      22.353 -17.309  -0.751  0.00  0.00     0.002 C 
ATOM     23  C   UNL d   1      23.274 -16.225  -1.263  0.00  0.00     0.025 C 
ENDBRANCH  16  18
ENDBRANCH   1  14
BRANCH   1  24
ATOM     24  N   UNL d   1      27.534 -13.679  -2.262  0.00  0.00    -0.328 N 
ATOM     25  C   UNL d   1      27.301 -13.588  -0.866  0.00  0.00     0.229 C 
ATOM     26  O   UNL d   1      26.287 -13.035  -0.433  0.00  0.00    -0.273 OA
BRANCH  25  27
ATOM     27  C   UNL d   1      28.353 -14.161   0.209  0.00  0.00     0.110 C 
BRANCH  27  28
ATOM     28  C   UNL d   1      28.542 -15.713   0.289  0.00  0.00     0.014 C 
ATOM     29  C   UNL d   1      29.908 -16.332   0.230  0.00  0.00     0.006 C 
ENDBRANCH  27  28
BRANCH  27  30
ATOM     30  C   UNL d   1      28.086 -13.670   1.693  0.00  0.00    -0.045 A 
ATOM     31  C   UNL d   1      28.138 -12.316   2.063  0.00  0.00     0.008 A 
ATOM     32  C   UNL d   1      27.996 -11.916   3.403  0.00  0.00     0.001 A 
ATOM     33  C   UNL d   1      27.781 -12.855   4.409  0.00  0.00     0.000 A 
ATOM     34  C   UNL d   1      27.728 -14.197   4.082  0.00  0.00     0.001 A 
ATOM     35  C   UNL d   1      27.876 -14.590   2.751  0.00  0.00     0.008 A 
ENDBRANCH  27  30
ENDBRANCH  25  27
BRANCH  24  36
ATOM     36  C   UNL d   1      28.909 -13.787  -2.766  0.00  0.00     0.192 C 
BRANCH  36  37
ATOM     37  C   UNL d   1      29.496 -15.027  -3.305  0.00  0.00     0.071 A 
ATOM     38  C   UNL d   1      29.386 -16.330  -2.974  0.00  0.00     0.037 A 
ATOM     39  C   UNL d   1      29.924 -17.110  -3.971  0.00  0.00     0.035 A 
ATOM     40  C   UNL d   1      30.431 -16.221  -4.880  0.00  0.00     0.049 A 
ATOM     41  C   UNL d   1      31.160 -16.651  -6.054  0.00  0.00     0.076 C 
ATOM     42  O   UNL d   1      30.140 -14.941  -4.537  0.00  0.00    -0.318 OA
ENDBRANCH  36  37
ENDBRANCH  24  36
ENDBRANCH   1  24
TORSDOF 12
ENDMDL
MODEL 2
REMARK VINA RESULT:    -8.697      1.881      6.269
REMARK INTER + INTRA:         -16.371
REMARK INTER:                 -12.277
REMARK INTRA:                  -4.094
REMARK CONF_INDEPENDENT:        3.580
REMARK UNBOUND:                -4.094
REMARK  12 active torsions:
REMARK  status: ('A' for Active; 'I' for Inactive)
REMARK    1  A    between atoms: C_2  and  C_3 
REMARK    2  A    between atoms: C_3  and  C_4 
REMARK    3  A    between atoms: C_3  and  C_33 
REMARK       I    between atoms: C_4  and  N_6 
REMARK    4  A    between atoms: N_6  and  C_7 
REMARK    5  A    between atoms: C_14  and  N_6 
REMARK    6  A    between atoms: C_7  and  C_8 
REMARK    7  A    between atoms: C_14  and  C_24 
REMARK    8  A    between atoms: C_14  and  C_15 
REMARK       I    between atoms: C_15  and  N_17 
REMARK    9  A    between atoms: N_17  and  C_18 
REMARK   10  A    between atoms: C_25  and  O_26 
REMARK   11  A    between atoms: C_28  and  O_29 
REMARK   12  A    between atoms: C_31  and  O_32 
ROOT
ATOM      1  C   UNL d   1      27.466 -13.739  -2.928  0.00  0.00     0.218 C 
ENDROOT
BRANCH   1   2
ATOM      2  C   UNL d   1      28.233 -14.464  -4.030  0.00  0.00     0.040 C 
ATOM      3  C   UNL d   1      29.647 -14.422  -3.955  0.00  0.00     0.080 C 
ATOM      4  C   UNL d   1      30.468 -14.607  -5.053  0.00  0.00     0.073 C 
ATOM      5  C   UNL d   1      29.872 -14.944  -6.254  0.00  0.00     0.071 C 
ATOM      6  C   UNL d   1      28.500 -15.100  -6.350  0.00  0.00     0.073 C 
ATOM      7  C   UNL d   1      27.713 -14.959  -5.215  0.00  0.00     0.080 C 
BRANCH   3   8
ATOM      8  O   UNL d   1      30.297 -14.232  -2.760  0.00  0.00    -0.360 OA
ATOM      9  H   UNL d   1      30.804 -15.048  -2.588  0.00  0.00     0.217 HD
ENDBRANCH   3   8
BRANCH   5  10
ATOM     10  O   UNL d   1      30.617 -15.275  -7.342  0.00  0.00    -0.361 OA
ATOM     11  H   UNL d   1      30.164 -14.922  -8.123  0.00  0.00     0.217 HD
ENDBRANCH   5  10
BRANCH   7  12
ATOM     12  O   UNL d   1      26.437 -15.424  -5.314  0.00  0.00    -0.360 OA
ATOM     13  H   UNL d   1      26.048 -15.193  -4.438  0.00  0.00     0.217 HD
ENDBRANCH   7  12
ENDBRANCH   1   2
BRANCH   1  14
ATOM     14  C   UNL d   1      26.338 -12.966  -3.711  0.00  0.00     0.245 C 
ATOM     15  O   UNL d   1      25.238 -13.516  -3.847  0.00  0.00    -0.271 OA
ATOM     16  N   UNL d   1      26.666 -11.693  -4.218  0.00  0.00    -0.354 N 
ATOM     17  H   UNL d   1      27.560 -11.696  -4.677  0.00  0.00     0.162 HD
BRANCH  16  18
ATOM     18  C   UNL d   1      25.833 -10.705  -4.947  0.00  0.00     0.084 C 
ATOM     19  C   UNL d   1      25.359  -9.575  -4.051  0.00  0.00     0.025 C 
ATOM     20  C   UNL d   1      24.677  -8.469  -4.854  0.00  0.00     0.002 C 
ATOM     21  C   UNL d   1      25.544  -7.913  -5.987  0.00  0.00     0.000 C 
ATOM     22  C   UNL d   1      25.905  -9.027  -6.968  0.00  0.00     0.002 C 
ATOM     23  C   UNL d   1      26.533 -10.145  -6.166  0.00  0.00     0.025 C 
ENDBRANCH  16  18
ENDBRANCH   1  14
BRANCH   1  24
ATOM     24  N   UNL d   1      26.795 -14.392  -1.743  0.00  0.00    -0.328 N 
ATOM     25  C   UNL d   1      25.993 -15.561  -1.792  0.00  0.00     0.229 C 
ATOM     26  O   UNL d   1      25.594 -16.003  -2.872  0.00  0.00    -0.273 OA
BRANCH  25  27
ATOM     27  C   UNL d   1      25.539 -16.335  -0.456  0.00  0.00     0.110 C 
BRANCH  27  28
ATOM     28  C   UNL d   1      26.578 -17.284   0.227  0.00  0.00     0.014 C 
ATOM     29  C   UNL d   1      27.910 -17.562  -0.407  0.00  0.00     0.006 C 
ENDBRANCH  27  28
BRANCH  27  30
ATOM     30  C   UNL d   1      24.210 -17.183  -0.627  0.00  0.00    -0.045 A 
ATOM     31  C   UNL d   1      22.955 -16.589  -0.847  0.00  0.00     0.008 A 
ATOM     32  C   UNL d   1      21.779 -17.356  -0.895  0.00  0.00     0.001 A 
ATOM     33  C   UNL d   1      21.823 -18.739  -0.742  0.00  0.00     0.000 A 
ATOM     34  C   UNL d   1      23.039 -19.358  -0.520  0.00  0.00     0.001 A 
ATOM     35  C   UNL d   1      24.204 -18.591  -0.466  0.00  0.00     0.008 A 
ENDBRANCH  27  30
ENDBRANCH  25  27
BRANCH  24  36
ATOM     36  C   UNL d   1      26.791 -13.555  -0.536  0.00  0.00     0.192 C 
BRANCH  36  37
ATOM     37  C   UNL d   1      27.420 -13.942   0.739  0.00  0.00     0.071 A 
ATOM     38  C   UNL d   1      28.624 -14.456   1.066  0.00  0.00     0.037 A 
ATOM     39  C   UNL d   1      28.812 -14.372   2.426  0.00  0.00     0.035 A 
ATOM     40  C   UNL d   1      27.641 -13.857   2.913  0.00  0.00     0.049 A 
ATOM     41  C   UNL d   1      27.405 -13.685   4.330  0.00  0.00     0.076 C 
ATOM     42  O   UNL d   1      26.788 -13.529   1.909  0.00  0.00    -0.318 OA
ENDBRANCH  36  37
ENDBRANCH  24  36
ENDBRANCH   1  24
TORSDOF 12
ENDMDL
MODEL 3
REMARK VINA RESULT:    -8.162      2.370      5.924
REMARK INTER + INTRA:         -16.319
REMARK INTER:                 -11.742
REMARK INTRA:                  -4.578
REMARK CONF_INDEPENDENT:        3.580
REMARK UNBOUND:                -4.578
REMARK  12 active torsions:
REMARK  status: ('A' for Active; 'I' for Inactive)
REMARK    1  A    between atoms: C_2  and  C_3 
REMARK    2  A    between atoms: C_3  and  C_4 
REMARK    3  A    between atoms: C_3  and  C_33 
REMARK       I    between atoms: C_4  and  N_6 
REMARK    4  A    between atoms: N_6  and  C_7 
REMARK    5  A    between atoms: C_14  and  N_6 
REMARK    6  A    between atoms: C_7  and  C_8 
REMARK    7  A    between atoms: C_14  and  C_24 
REMARK    8  A    between atoms: C_14  and  C_15 
REMARK       I    between atoms: C_15  and  N_17 
REMARK    9  A    between atoms: N_17  and  C_18 
REMARK   10  A    between atoms: C_25  and  O_26 
REMARK   11  A    between atoms: C_28  and  O_29 
REMARK   12  A    between atoms: C_31  and  O_32 
ROOT
ATOM      1  C   UNL d   1      26.431 -13.270  -4.844  0.00  0.00     0.218 C 
ENDROOT
BRANCH   1   2
ATOM      2  C   UNL d   1      27.205 -12.127  -5.493  0.00  0.00     0.040 C 
ATOM      3  C   UNL d   1      26.527 -11.383  -6.490  0.00  0.00     0.080 C 
ATOM      4  C   UNL d   1      27.181 -10.655  -7.468  0.00  0.00     0.073 C 
ATOM      5  C   UNL d   1      28.560 -10.579  -7.399  0.00  0.00     0.071 C 
ATOM      6  C   UNL d   1      29.259 -11.203  -6.381  0.00  0.00     0.073 C 
ATOM      7  C   UNL d   1      28.564 -11.880  -5.388  0.00  0.00     0.080 C 
BRANCH   3   8
ATOM      8  O   UNL d   1      25.155 -11.307  -6.520  0.00  0.00    -0.360 OA
ATOM      9  H   UNL d   1      24.850 -11.450  -5.605  0.00  0.00     0.217 HD
ENDBRANCH   3   8
BRANCH   5  10
ATOM     10  O   UNL d   1      29.263  -9.774  -8.240  0.00  0.00    -0.361 OA
ATOM     11  H   UNL d   1      30.070 -10.250  -8.491  0.00  0.00     0.217 HD
ENDBRANCH   5  10
BRANCH   7  12
ATOM     12  O   UNL d   1      29.278 -12.196  -4.272  0.00  0.00    -0.360 OA
ATOM     13  H   UNL d   1      29.218 -11.376  -3.729  0.00  0.00     0.217 HD
ENDBRANCH   7  12
ENDBRANCH   1   2
BRANCH   1  14
ATOM     14  C   UNL d   1      27.060 -14.559  -5.496  0.00  0.00     0.245 C 
ATOM     15  O   UNL d   1      26.307 -15.503  -5.770  0.00  0.00    -0.271 OA
ATOM     16  N   UNL d   1      28.452 -14.556  -5.712  0.00  0.00    -0.354 N 
ATOM     17  H   UNL d   1      28.951 -14.212  -4.911  0.00  0.00     0.162 HD
BRANCH  16  18
ATOM     18  C   UNL d   1      29.331 -15.575  -6.338  0.00  0.00     0.084 C 
ATOM     19  C   UNL d   1      30.602 -14.973  -6.906  0.00  0.00     0.025 C 
ATOM     20  C   UNL d   1      31.581 -16.053  -7.363  0.00  0.00     0.002 C 
ATOM     21  C   UNL d   1      31.923 -17.070  -6.269  0.00  0.00     0.000 C 
ATOM     22  C   UNL d   1      30.656 -17.778  -5.795  0.00  0.00     0.002 C 
ATOM     23  C   UNL d   1      29.667 -16.708  -5.391  0.00  0.00     0.025 C 
ENDBRANCH  16  18
ENDBRANCH   1  14
BRANCH   1  24
ATOM     24  N   UNL d   1      26.335 -13.542  -3.362  0.00  0.00    -0.328 N 
ATOM     25  C   UNL d   1      25.598 -14.597  -2.765  0.00  0.00     0.229 C 
ATOM     26  O   UNL d   1      24.780 -15.244  -3.425  0.00  0.00    -0.273 OA
BRANCH  25  27
ATOM     27  C   UNL d   1      25.761 -14.972  -1.209  0.00  0.00     0.110 C 
BRANCH  27  28
ATOM     28  C   UNL d   1      27.211 -15.172  -0.655  0.00  0.00     0.014 C 
ATOM     29  C   UNL d   1      28.315 -15.682  -1.534  0.00  0.00     0.006 C 
ENDBRANCH  27  28
BRANCH  27  30
ATOM     30  C   UNL d   1      24.938 -16.253  -0.767  0.00  0.00    -0.045 A 
ATOM     31  C   UNL d   1      25.554 -17.419  -0.280  0.00  0.00     0.008 A 
ATOM     32  C   UNL d   1      24.809 -18.575   0.011  0.00  0.00     0.001 A 
ATOM     33  C   UNL d   1      23.428 -18.595  -0.160  0.00  0.00     0.000 A 
ATOM     34  C   UNL d   1      22.788 -17.468  -0.642  0.00  0.00     0.001 A 
ATOM     35  C   UNL d   1      23.532 -16.325  -0.936  0.00  0.00     0.008 A 
ENDBRANCH  27  30
ENDBRANCH  25  27
BRANCH  24  36
ATOM     36  C   UNL d   1      26.838 -12.443  -2.529  0.00  0.00     0.192 C 
BRANCH  36  37
ATOM     37  C   UNL d   1      26.506 -11.023  -2.746  0.00  0.00     0.071 A 
ATOM     38  C   UNL d   1      27.088  -9.864  -2.377  0.00  0.00     0.037 A 
ATOM     39  C   UNL d   1      26.526  -8.819  -3.074  0.00  0.00     0.035 A 
ATOM     40  C   UNL d   1      25.530  -9.388  -3.821  0.00  0.00     0.049 A 
ATOM     41  C   UNL d   1      24.639  -8.600  -4.645  0.00  0.00     0.076 C 
ATOM     42  O   UNL d   1      25.523 -10.739  -3.691  0.00  0.00    -0.318 OA
ENDBRANCH  36  37
ENDBRANCH  24  36
ENDBRANCH   1  24
TORSDOF 12
ENDMDL
MODEL 4
REMARK VINA RESULT:    -7.996      1.202      1.733
REMARK INTER + INTRA:         -16.246
REMARK INTER:                 -11.576
REMARK INTRA:                  -4.670
REMARK CONF_INDEPENDENT:        3.580
REMARK UNBOUND:                -4.670
REMARK  12 active torsions:
REMARK  status: ('A' for Active; 'I' for Inactive)
REMARK    1  A    between atoms: C_2  and  C_3 
REMARK    2  A    between atoms: C_3  and  C_4 
REMARK    3  A    between atoms: C_3  and  C_33 
REMARK       I    between atoms: C_4  and  N_6 
REMARK    4  A    between atoms: N_6  and  C_7 
REMARK    5  A    between atoms: C_14  and  N_6 
REMARK    6  A    between atoms: C_7  and  C_8 
REMARK    7  A    between atoms: C_14  and  C_24 
REMARK    8  A    between atoms: C_14  and  C_15 
REMARK       I    between atoms: C_15  and  N_17 
REMARK    9  A    between atoms: N_17  and  C_18 
REMARK   10  A    between atoms: C_25  and  O_26 
REMARK   11  A    between atoms: C_28  and  O_29 
REMARK   12  A    between atoms: C_31  and  O_32 
ROOT
ATOM      1  C   UNL d   1      26.519 -13.320  -3.247  0.00  0.00     0.218 C 
ENDROOT
BRANCH   1   2
ATOM      2  C   UNL d   1      26.824 -13.179  -4.735  0.00  0.00     0.040 C 
ATOM      3  C   UNL d   1      27.401 -14.303  -5.376  0.00  0.00     0.080 C 
ATOM      4  C   UNL d   1      28.140 -14.213  -6.542  0.00  0.00     0.073 C 
ATOM      5  C   UNL d   1      28.229 -12.975  -7.153  0.00  0.00     0.071 C 
ATOM      6  C   UNL d   1      27.593 -11.868  -6.619  0.00  0.00     0.073 C 
ATOM      7  C   UNL d   1      26.817 -12.009  -5.476  0.00  0.00     0.080 C 
BRANCH   3   8
ATOM      8  O   UNL d   1      27.223 -15.576  -4.891  0.00  0.00    -0.360 OA
ATOM      9  H   UNL d   1      26.260 -15.711  -4.813  0.00  0.00     0.217 HD
ENDBRANCH   3   8
BRANCH   5  10
ATOM     10  O   UNL d   1      28.821 -12.832  -8.369  0.00  0.00    -0.361 OA
ATOM     11  H   UNL d   1      28.831 -13.704  -8.793  0.00  0.00     0.217 HD
ENDBRANCH   5  10
BRANCH   7  12
ATOM     12  O   UNL d   1      25.985 -10.970  -5.191  0.00  0.00    -0.360 OA
ATOM     13  H   UNL d   1      25.152 -11.420  -4.916  0.00  0.00     0.217 HD
ENDBRANCH   7  12
ENDBRANCH   1   2
BRANCH   1  14
ATOM     14  C   UNL d   1      25.406 -14.433  -3.201  0.00  0.00     0.245 C 
ATOM     15  O   UNL d   1      24.558 -14.450  -4.103  0.00  0.00    -0.271 OA
ATOM     16  N   UNL d   1      25.443 -15.334  -2.119  0.00  0.00    -0.354 N 
ATOM     17  H   UNL d   1      25.589 -14.859  -1.246  0.00  0.00     0.162 HD
BRANCH  16  18
ATOM     18  C   UNL d   1      24.583 -16.504  -1.812  0.00  0.00     0.084 C 
ATOM     19  C   UNL d   1      25.255 -17.485  -0.869  0.00  0.00     0.025 C 
ATOM     20  C   UNL d   1      24.288 -18.573  -0.406  0.00  0.00     0.002 C 
ATOM     21  C   UNL d   1      23.008 -18.023   0.230  0.00  0.00     0.000 C 
ATOM     22  C   UNL d   1      22.258 -17.147  -0.771  0.00  0.00     0.002 C 
ATOM     23  C   UNL d   1      23.230 -16.101  -1.268  0.00  0.00     0.025 C 
ENDBRANCH  16  18
ENDBRANCH   1  14
BRANCH   1  24
ATOM     24  N   UNL d   1      27.519 -13.667  -2.170  0.00  0.00    -0.328 N 
ATOM     25  C   UNL d   1      27.278 -13.606  -0.773  0.00  0.00     0.229 C 
ATOM     26  O   UNL d   1      26.280 -13.030  -0.332  0.00  0.00    -0.273 OA
BRANCH  25  27
ATOM     27  C   UNL d   1      28.302 -14.242   0.293  0.00  0.00     0.110 C 
BRANCH  27  28
ATOM     28  C   UNL d   1      28.429 -15.801   0.343  0.00  0.00     0.014 C 
ATOM     29  C   UNL d   1      28.866 -16.583  -0.862  0.00  0.00     0.006 C 
ENDBRANCH  27  28
BRANCH  27  30
ATOM     30  C   UNL d   1      28.049 -13.771   1.786  0.00  0.00    -0.045 A 
ATOM     31  C   UNL d   1      28.001 -12.416   2.154  0.00  0.00     0.008 A 
ATOM     32  C   UNL d   1      27.875 -12.025   3.499  0.00  0.00     0.001 A 
ATOM     33  C   UNL d   1      27.777 -12.975   4.511  0.00  0.00     0.000 A 
ATOM     34  C   UNL d   1      27.824 -14.318   4.186  0.00  0.00     0.001 A 
ATOM     35  C   UNL d   1      27.957 -14.702   2.851  0.00  0.00     0.008 A 
ENDBRANCH  27  30
ENDBRANCH  25  27
BRANCH  24  36
ATOM     36  C   UNL d   1      28.893 -13.808  -2.667  0.00  0.00     0.192 C 
BRANCH  36  37
ATOM     37  C   UNL d   1      29.621 -12.753  -3.393  0.00  0.00     0.071 A 
ATOM     38  C   UNL d   1      30.001 -11.497  -3.078  0.00  0.00     0.037 A 
ATOM     39  C   UNL d   1      30.898 -11.035  -4.012  0.00  0.00     0.035 A 
ATOM     40  C   UNL d   1      30.985 -12.033  -4.944  0.00  0.00     0.049 A 
ATOM     41  C   UNL d   1      31.779 -11.899  -6.146  0.00  0.00     0.076 C 
ATOM     42  O   UNL d   1      30.263 -13.121  -4.573  0.00  0.00    -0.318 OA
ENDBRANCH  36  37
ENDBRANCH  24  36
ENDBRANCH   1  24
TORSDOF 12
ENDMDL
MODEL 5
REMARK VINA RESULT:    -7.992      1.618      3.341
REMARK INTER + INTRA:         -16.200
REMARK INTER:                 -11.572
REMARK INTRA:                  -4.629
REMARK CONF_INDEPENDENT:        3.580
REMARK UNBOUND:                -4.629
REMARK  12 active torsions:
REMARK  status: ('A' for Active; 'I' for Inactive)
REMARK    1  A    between atoms: C_2  and  C_3 
REMARK    2  A    between atoms: C_3  and  C_4 
REMARK    3  A    between atoms: C_3  and  C_33 
REMARK       I    between atoms: C_4  and  N_6 
REMARK    4  A    between atoms: N_6  and  C_7 
REMARK    5  A    between atoms: C_14  and  N_6 
REMARK    6  A    between atoms: C_7  and  C_8 
REMARK    7  A    between atoms: C_14  and  C_24 
REMARK    8  A    between atoms: C_14  and  C_15 
REMARK       I    between atoms: C_15  and  N_17 
REMARK    9  A    between atoms: N_17  and  C_18 
REMARK   10  A    between atoms: C_25  and  O_26 
REMARK   11  A    between atoms: C_28  and  O_29 
REMARK   12  A    between atoms: C_31  and  O_32 
ROOT
ATOM      1  C   UNL d   1      26.421 -13.397  -3.607  0.00  0.00     0.218 C 
ENDROOT
BRANCH   1   2
ATOM      2  C   UNL d   1      26.795 -13.267  -5.081  0.00  0.00     0.040 C 
ATOM      3  C   UNL d   1      27.625 -14.282  -5.619  0.00  0.00     0.080 C 
ATOM      4  C   UNL d   1      28.411 -14.098  -6.743  0.00  0.00     0.073 C 
ATOM      5  C   UNL d   1      28.298 -12.898  -7.420  0.00  0.00     0.071 C 
ATOM      6  C   UNL d   1      27.420 -11.917  -6.990  0.00  0.00     0.073 C 
ATOM      7  C   UNL d   1      26.609 -12.158  -5.889  0.00  0.00     0.080 C 
BRANCH   3   8
ATOM      8  O   UNL d   1      27.668 -15.541  -5.071  0.00  0.00    -0.360 OA
ATOM      9  H   UNL d   1      27.311 -15.461  -4.167  0.00  0.00     0.217 HD
ENDBRANCH   3   8
BRANCH   5  10
ATOM     10  O   UNL d   1      28.932 -12.695  -8.605  0.00  0.00    -0.361 OA
ATOM     11  H   UNL d   1      28.863 -13.515  -9.116  0.00  0.00     0.217 HD
ENDBRANCH   5  10
BRANCH   7  12
ATOM     12  O   UNL d   1      25.571 -11.295  -5.715  0.00  0.00    -0.360 OA
ATOM     13  H   UNL d   1      25.201 -11.564  -4.842  0.00  0.00     0.217 HD
ENDBRANCH   7  12
ENDBRANCH   1   2
BRANCH   1  14
ATOM     14  C   UNL d   1      25.565 -14.718  -3.558  0.00  0.00     0.245 C 
ATOM     15  O   UNL d   1      25.155 -15.190  -4.627  0.00  0.00    -0.271 OA
ATOM     16  N   UNL d   1      25.309 -15.271  -2.288  0.00  0.00    -0.354 N 
ATOM     17  H   UNL d   1      25.024 -14.570  -1.628  0.00  0.00     0.162 HD
BRANCH  16  18
ATOM     18  C   UNL d   1      24.589 -16.511  -1.907  0.00  0.00     0.084 C 
ATOM     19  C   UNL d   1      25.420 -17.412  -1.013  0.00  0.00     0.025 C 
ATOM     20  C   UNL d   1      24.598 -18.579  -0.468  0.00  0.00     0.002 C 
ATOM     21  C   UNL d   1      23.326 -18.140   0.264  0.00  0.00     0.000 C 
ATOM     22  C   UNL d   1      22.421 -17.351  -0.680  0.00  0.00     0.002 C 
ATOM     23  C   UNL d   1      23.250 -16.227  -1.260  0.00  0.00     0.025 C 
ENDBRANCH  16  18
ENDBRANCH   1  14
BRANCH   1  24
ATOM     24  N   UNL d   1      27.393 -13.472  -2.453  0.00  0.00    -0.328 N 
ATOM     25  C   UNL d   1      28.136 -14.621  -2.077  0.00  0.00     0.229 C 
ATOM     26  O   UNL d   1      27.858 -15.729  -2.543  0.00  0.00    -0.273 OA
BRANCH  25  27
ATOM     27  C   UNL d   1      29.337 -14.541  -1.009  0.00  0.00     0.110 C 
BRANCH  27  28
ATOM     28  C   UNL d   1      30.188 -15.833  -0.770  0.00  0.00     0.014 C 
ATOM     29  C   UNL d   1      29.533 -17.159  -0.516  0.00  0.00     0.006 C 
ENDBRANCH  27  28
BRANCH  27  30
ATOM     30  C   UNL d   1      28.888 -14.035   0.425  0.00  0.00    -0.045 A 
ATOM     31  C   UNL d   1      27.851 -14.643   1.152  0.00  0.00     0.008 A 
ATOM     32  C   UNL d   1      27.406 -14.114   2.377  0.00  0.00     0.001 A 
ATOM     33  C   UNL d   1      27.995 -12.975   2.918  0.00  0.00     0.000 A 
ATOM     34  C   UNL d   1      29.017 -12.349   2.228  0.00  0.00     0.001 A 
ATOM     35  C   UNL d   1      29.450 -12.872   1.009  0.00  0.00     0.008 A 
ENDBRANCH  27  30
ENDBRANCH  25  27
BRANCH  24  36
ATOM     36  C   UNL d   1      27.308 -12.326  -1.539  0.00  0.00     0.192 C 
BRANCH  36  37
ATOM     37  C   UNL d   1      26.987 -10.953  -1.965  0.00  0.00     0.071 A 
ATOM     38  C   UNL d   1      27.576  -9.755  -1.769  0.00  0.00     0.037 A 
ATOM     39  C   UNL d   1      27.023  -8.821  -2.614  0.00  0.00     0.035 A 
ATOM     40  C   UNL d   1      26.025  -9.488  -3.273  0.00  0.00     0.049 A 
ATOM     41  C   UNL d   1      25.141  -8.824  -4.207  0.00  0.00     0.076 C 
ATOM     42  O   UNL d   1      26.008 -10.804  -2.944  0.00  0.00    -0.318 OA
ENDBRANCH  36  37
ENDBRANCH  24  36
ENDBRANCH   1  24
TORSDOF 12
ENDMDL
MODEL 6
REMARK VINA RESULT:    -7.941      1.718      5.692
REMARK INTER + INTRA:         -16.343
REMARK INTER:                 -11.520
REMARK INTRA:                  -4.823
REMARK CONF_INDEPENDENT:        3.580
REMARK UNBOUND:                -4.823
REMARK  12 active torsions:
REMARK  status: ('A' for Active; 'I' for Inactive)
REMARK    1  A    between atoms: C_2  and  C_3 
REMARK    2  A    between atoms: C_3  and  C_4 
REMARK    3  A    between atoms: C_3  and  C_33 
REMARK       I    between atoms: C_4  and  N_6 
REMARK    4  A    between atoms: N_6  and  C_7 
REMARK    5  A    between atoms: C_14  and  N_6 
REMARK    6  A    between atoms: C_7  and  C_8 
REMARK    7  A    between atoms: C_14  and  C_24 
REMARK    8  A    between atoms: C_14  and  C_15 
REMARK       I    between atoms: C_15  and  N_17 
REMARK    9  A    between atoms: N_17  and  C_18 
REMARK   10  A    between atoms: C_25  and  O_26 
REMARK   11  A    between atoms: C_28  and  O_29 
REMARK   12  A    between atoms: C_31  and  O_32 
ROOT
ATOM      1  C   UNL d   1      26.300 -13.654  -4.084  0.00  0.00     0.218 C 
ENDROOT
BRANCH   1   2
ATOM      2  C   UNL d   1      26.930 -12.285  -4.316  0.00  0.00     0.040 C 
ATOM      3  C   UNL d   1      28.007 -11.927  -3.467  0.00  0.00     0.080 C 
ATOM      4  C   UNL d   1      28.376 -10.615  -3.226  0.00  0.00     0.073 C 
ATOM      5  C   UNL d   1      27.720  -9.622  -3.929  0.00  0.00     0.071 C 
ATOM      6  C   UNL d   1      26.733  -9.931  -4.848  0.00  0.00     0.073 C 
ATOM      7  C   UNL d   1      26.426 -11.262  -5.102  0.00  0.00     0.080 C 
BRANCH   3   8
ATOM      8  O   UNL d   1      28.785 -12.879  -2.854  0.00  0.00    -0.360 OA
ATOM      9  H   UNL d   1      28.641 -12.779  -1.895  0.00  0.00     0.217 HD
ENDBRANCH   3   8
BRANCH   5  10
ATOM     10  O   UNL d   1      28.117  -8.324  -3.850  0.00  0.00    -0.361 OA
ATOM     11  H   UNL d   1      28.368  -8.041  -4.742  0.00  0.00     0.217 HD
ENDBRANCH   5  10
BRANCH   7  12
ATOM     12  O   UNL d   1      25.685 -11.499  -6.219  0.00  0.00    -0.360 OA
ATOM     13  H   UNL d   1      24.780 -11.648  -5.859  0.00  0.00     0.217 HD
ENDBRANCH   7  12
ENDBRANCH   1   2
BRANCH   1  14
ATOM     14  C   UNL d   1      27.259 -14.638  -4.855  0.00  0.00     0.245 C 
ATOM     15  O   UNL d   1      26.828 -15.200  -5.870  0.00  0.00    -0.271 OA
ATOM     16  N   UNL d   1      28.550 -14.823  -4.323  0.00  0.00    -0.354 N 
ATOM     17  H   UNL d   1      28.526 -14.965  -3.329  0.00  0.00     0.162 HD
BRANCH  16  18
ATOM     18  C   UNL d   1      29.690 -15.631  -4.825  0.00  0.00     0.084 C 
ATOM     19  C   UNL d   1      29.666 -17.055  -4.302  0.00  0.00     0.025 C 
ATOM     20  C   UNL d   1      30.722 -17.923  -4.983  0.00  0.00     0.002 C 
ATOM     21  C   UNL d   1      30.621 -17.923  -6.511  0.00  0.00     0.000 C 
ATOM     22  C   UNL d   1      30.787 -16.503  -7.048  0.00  0.00     0.002 C 
ATOM     23  C   UNL d   1      29.776 -15.632  -6.337  0.00  0.00     0.025 C 
ENDBRANCH  16  18
ENDBRANCH   1  14
BRANCH   1  24
ATOM     24  N   UNL d   1      26.028 -14.285  -2.739  0.00  0.00    -0.328 N 
ATOM     25  C   UNL d   1      25.581 -15.615  -2.530  0.00  0.00     0.229 C 
ATOM     26  O   UNL d   1      25.155 -16.290  -3.471  0.00  0.00    -0.273 OA
BRANCH  25  27
ATOM     27  C   UNL d   1      25.571 -16.287  -1.068  0.00  0.00     0.110 C 
BRANCH  27  28
ATOM     28  C   UNL d   1      26.820 -17.129  -0.642  0.00  0.00     0.014 C 
ATOM     29  C   UNL d   1      28.141 -16.963  -1.335  0.00  0.00     0.006 C 
ENDBRANCH  27  28
BRANCH  27  30
ATOM     30  C   UNL d   1      24.305 -17.200  -0.789  0.00  0.00    -0.045 A 
ATOM     31  C   UNL d   1      24.407 -18.575  -0.520  0.00  0.00     0.008 A 
ATOM     32  C   UNL d   1      23.265 -19.381  -0.375  0.00  0.00     0.001 A 
ATOM     33  C   UNL d   1      21.988 -18.834  -0.477  0.00  0.00     0.000 A 
ATOM     34  C   UNL d   1      21.850 -17.485  -0.744  0.00  0.00     0.001 A 
ATOM     35  C   UNL d   1      22.987 -16.689  -0.895  0.00  0.00     0.008 A 
ENDBRANCH  27  30
ENDBRANCH  25  27
BRANCH  24  36
ATOM     36  C   UNL d   1      25.983 -13.319  -1.635  0.00  0.00     0.192 C 
BRANCH  36  37
ATOM     37  C   UNL d   1      26.847 -13.385  -0.443  0.00  0.00     0.071 A 
ATOM     38  C   UNL d   1      26.655 -13.107   0.863  0.00  0.00     0.037 A 
ATOM     39  C   UNL d   1      27.702 -13.605   1.603  0.00  0.00     0.035 A 
ATOM     40  C   UNL d   1      28.570 -14.126   0.681  0.00  0.00     0.049 A 
ATOM     41  C   UNL d   1      29.851 -14.683   1.058  0.00  0.00     0.076 C 
ATOM     42  O   UNL d   1      28.058 -14.061  -0.574  0.00  0.00    -0.318 OA
ENDBRANCH  36  37
ENDBRANCH  24  36
ENDBRANCH   1  24
TORSDOF 12
ENDMDL
MODEL 7
REMARK VINA RESULT:    -7.629      1.601      5.878
REMARK INTER + INTRA:         -16.202
REMARK INTER:                 -11.209
REMARK INTRA:                  -4.993
REMARK CONF_INDEPENDENT:        3.580
REMARK UNBOUND:                -4.993
REMARK  12 active torsions:
REMARK  status: ('A' for Active; 'I' for Inactive)
REMARK    1  A    between atoms: C_2  and  C_3 
REMARK    2  A    between atoms: C_3  and  C_4 
REMARK    3  A    between atoms: C_3  and  C_33 
REMARK       I    between atoms: C_4  and  N_6 
REMARK    4  A    between atoms: N_6  and  C_7 
REMARK    5  A    between atoms: C_14  and  N_6 
REMARK    6  A    between atoms: C_7  and  C_8 
REMARK    7  A    between atoms: C_14  and  C_24 
REMARK    8  A    between atoms: C_14  and  C_15 
REMARK       I    between atoms: C_15  and  N_17 
REMARK    9  A    between atoms: N_17  and  C_18 
REMARK   10  A    between atoms: C_25  and  O_26 
REMARK   11  A    between atoms: C_28  and  O_29 
REMARK   12  A    between atoms: C_31  and  O_32 
ROOT
ATOM      1  C   UNL d   1      27.554 -14.463  -2.665  0.00  0.00     0.218 C 
ENDROOT
BRANCH   1   2
ATOM      2  C   UNL d   1      27.271 -13.252  -3.549  0.00  0.00     0.040 C 
ATOM      3  C   UNL d   1      27.001 -12.029  -2.888  0.00  0.00     0.080 C 
ATOM      4  C   UNL d   1      26.298 -10.991  -3.474  0.00  0.00     0.073 C 
ATOM      5  C   UNL d   1      25.933 -11.128  -4.800  0.00  0.00     0.071 C 
ATOM      6  C   UNL d   1      26.267 -12.263  -5.518  0.00  0.00     0.073 C 
ATOM      7  C   UNL d   1      27.019 -13.261  -4.911  0.00  0.00     0.080 C 
BRANCH   3   8
ATOM      8  O   UNL d   1      27.464 -11.782  -1.618  0.00  0.00    -0.360 OA
ATOM      9  H   UNL d   1      27.440 -12.634  -1.144  0.00  0.00     0.217 HD
ENDBRANCH   3   8
BRANCH   5  10
ATOM     10  O   UNL d   1      25.362 -10.101  -5.483  0.00  0.00    -0.361 OA
ATOM     11  H   UNL d   1      24.404 -10.158  -5.348  0.00  0.00     0.217 HD
ENDBRANCH   5  10
BRANCH   7  12
ATOM     12  O   UNL d   1      27.568 -14.184  -5.748  0.00  0.00    -0.360 OA
ATOM     13  H   UNL d   1      27.240 -15.038  -5.383  0.00  0.00     0.217 HD
ENDBRANCH   7  12
ENDBRANCH   1   2
BRANCH   1  14
ATOM     14  C   UNL d   1      26.272 -15.360  -2.846  0.00  0.00     0.245 C 
ATOM     15  O   UNL d   1      25.729 -15.386  -3.958  0.00  0.00    -0.271 OA
ATOM     16  N   UNL d   1      25.820 -16.069  -1.715  0.00  0.00    -0.354 N 
ATOM     17  H   UNL d   1      25.806 -15.489  -0.895  0.00  0.00     0.162 HD
BRANCH  16  18
ATOM     18  C   UNL d   1      24.691 -17.021  -1.566  0.00  0.00     0.084 C 
ATOM     19  C   UNL d   1      24.986 -18.114  -0.555  0.00  0.00     0.025 C 
ATOM     20  C   UNL d   1      23.748 -18.961  -0.265  0.00  0.00     0.002 C 
ATOM     21  C   UNL d   1      22.537 -18.139   0.186  0.00  0.00     0.000 C 
ATOM     22  C   UNL d   1      22.153 -17.131  -0.895  0.00  0.00     0.002 C 
ATOM     23  C   UNL d   1      23.391 -16.327  -1.219  0.00  0.00     0.025 C 
ENDBRANCH  16  18
ENDBRANCH   1  14
BRANCH   1  24
ATOM     24  N   UNL d   1      28.745 -15.384  -2.785  0.00  0.00    -0.328 N 
ATOM     25  C   UNL d   1      29.138 -16.072  -3.962  0.00  0.00     0.229 C 
ATOM     26  O   UNL d   1      28.378 -16.140  -4.932  0.00  0.00    -0.273 OA
BRANCH  25  27
ATOM     27  C   UNL d   1      30.559 -16.818  -4.074  0.00  0.00     0.110 C 
BRANCH  27  28
ATOM     28  C   UNL d   1      31.842 -15.931  -4.196  0.00  0.00     0.014 C 
ATOM     29  C   UNL d   1      31.898 -14.775  -5.151  0.00  0.00     0.006 C 
ENDBRANCH  27  28
BRANCH  27  30
ATOM     30  C   UNL d   1      30.637 -17.876  -5.252  0.00  0.00    -0.045 A 
ATOM     31  C   UNL d   1      30.814 -17.502  -6.595  0.00  0.00     0.008 A 
ATOM     32  C   UNL d   1      30.780 -18.451  -7.632  0.00  0.00     0.001 A 
ATOM     33  C   UNL d   1      30.586 -19.802  -7.356  0.00  0.00     0.000 A 
ATOM     34  C   UNL d   1      30.405 -20.206  -6.046  0.00  0.00     0.001 A 
ATOM     35  C   UNL d   1      30.432 -19.259  -5.021  0.00  0.00     0.008 A 
ENDBRANCH  27  30
ENDBRANCH  25  27
BRANCH  24  36
ATOM     36  C   UNL d   1      29.328 -15.761  -1.491  0.00  0.00     0.192 C 
BRANCH  36  37
ATOM     37  C   UNL d   1      28.936 -15.163  -0.203  0.00  0.00     0.071 A 
ATOM     38  C   UNL d   1      29.615 -14.827   0.914  0.00  0.00     0.037 A 
ATOM     39  C   UNL d   1      28.824 -14.045   1.722  0.00  0.00     0.035 A 
ATOM     40  C   UNL d   1      27.614 -13.987   1.083  0.00  0.00     0.049 A 
ATOM     41  C   UNL d   1      26.471 -13.314   1.659  0.00  0.00     0.076 C 
ATOM     42  O   UNL d   1      27.660 -14.610  -0.122  0.00  0.00    -0.318 OA
ENDBRANCH  36  37
ENDBRANCH  24  36
ENDBRANCH   1  24
TORSDOF 12
ENDMDL
MODEL 8
REMARK VINA RESULT:    -7.502      1.211      2.513
REMARK INTER + INTRA:         -16.400
REMARK INTER:                 -11.082
REMARK INTRA:                  -5.318
REMARK CONF_INDEPENDENT:        3.580
REMARK UNBOUND:                -5.318
REMARK  12 active torsions:
REMARK  status: ('A' for Active; 'I' for Inactive)
REMARK    1  A    between atoms: C_2  and  C_3 
REMARK    2  A    between atoms: C_3  and  C_4 
REMARK    3  A    between atoms: C_3  and  C_33 
REMARK       I    between atoms: C_4  and  N_6 
REMARK    4  A    between atoms: N_6  and  C_7 
REMARK    5  A    between atoms: C_14  and  N_6 
REMARK    6  A    between atoms: C_7  and  C_8 
REMARK    7  A    between atoms: C_14  and  C_24 
REMARK    8  A    between atoms: C_14  and  C_15 
REMARK       I    between atoms: C_15  and  N_17 
REMARK    9  A    between atoms: N_17  and  C_18 
REMARK   10  A    between atoms: C_25  and  O_26 
REMARK   11  A    between atoms: C_28  and  O_29 
REMARK   12  A    between atoms: C_31  and  O_32 
ROOT
ATOM      1  C   UNL d   1      26.604 -13.342  -3.237  0.00  0.00     0.218 C 
ENDROOT
BRANCH   1   2
ATOM      2  C   UNL d   1      26.886 -13.201  -4.730  0.00  0.00     0.040 C 
ATOM      3  C   UNL d   1      27.445 -14.328  -5.382  0.00  0.00     0.080 C 
ATOM      4  C   UNL d   1      28.166 -14.241  -6.560  0.00  0.00     0.073 C 
ATOM      5  C   UNL d   1      28.254 -13.003  -7.170  0.00  0.00     0.071 C 
ATOM      6  C   UNL d   1      27.634 -11.893  -6.624  0.00  0.00     0.073 C 
ATOM      7  C   UNL d   1      26.875 -12.030  -5.469  0.00  0.00     0.080 C 
BRANCH   3   8
ATOM      8  O   UNL d   1      27.266 -15.601  -4.896  0.00  0.00    -0.360 OA
ATOM      9  H   UNL d   1      27.698 -15.627  -4.022  0.00  0.00     0.217 HD
ENDBRANCH   3   8
BRANCH   5  10
ATOM     10  O   UNL d   1      28.827 -12.862  -8.395  0.00  0.00    -0.361 OA
ATOM     11  H   UNL d   1      28.669 -13.682  -8.887  0.00  0.00     0.217 HD
ENDBRANCH   5  10
BRANCH   7  12
ATOM     12  O   UNL d   1      26.055 -10.985  -5.169  0.00  0.00    -0.360 OA
ATOM     13  H   UNL d   1      25.161 -11.332  -5.396  0.00  0.00     0.217 HD
ENDBRANCH   7  12
ENDBRANCH   1   2
BRANCH   1  14
ATOM     14  C   UNL d   1      25.651 -14.593  -3.157  0.00  0.00     0.245 C 
ATOM     15  O   UNL d   1      24.879 -14.801  -4.103  0.00  0.00    -0.271 OA
ATOM     16  N   UNL d   1      25.732 -15.389  -1.998  0.00  0.00    -0.354 N 
ATOM     17  H   UNL d   1      25.750 -14.830  -1.164  0.00  0.00     0.162 HD
BRANCH  16  18
ATOM     18  C   UNL d   1      25.018 -16.640  -1.639  0.00  0.00     0.084 C 
ATOM     19  C   UNL d   1      25.712 -17.404  -0.528  0.00  0.00     0.025 C 
ATOM     20  C   UNL d   1      24.864 -18.575  -0.034  0.00  0.00     0.002 C 
ATOM     21  C   UNL d   1      23.456 -18.166   0.408  0.00  0.00     0.000 C 
ATOM     22  C   UNL d   1      22.706 -17.522  -0.755  0.00  0.00     0.002 C 
ATOM     23  C   UNL d   1      23.569 -16.395  -1.278  0.00  0.00     0.025 C 
ENDBRANCH  16  18
ENDBRANCH   1  14
BRANCH   1  24
ATOM     24  N   UNL d   1      27.643 -13.524  -2.156  0.00  0.00    -0.328 N 
ATOM     25  C   UNL d   1      27.380 -13.575  -0.762  0.00  0.00     0.229 C 
ATOM     26  O   UNL d   1      26.280 -13.236  -0.319  0.00  0.00    -0.273 OA
BRANCH  25  27
ATOM     27  C   UNL d   1      28.501 -14.034   0.296  0.00  0.00     0.110 C 
BRANCH  27  28
ATOM     28  C   UNL d   1      29.621 -13.005   0.666  0.00  0.00     0.014 C 
ATOM     29  C   UNL d   1      30.059 -12.811   2.089  0.00  0.00     0.006 C 
ENDBRANCH  27  28
BRANCH  27  30
ATOM     30  C   UNL d   1      29.246 -15.376  -0.099  0.00  0.00    -0.045 A 
ATOM     31  C   UNL d   1      30.644 -15.461  -0.215  0.00  0.00     0.008 A 
ATOM     32  C   UNL d   1      31.273 -16.636  -0.663  0.00  0.00     0.001 A 
ATOM     33  C   UNL d   1      30.526 -17.764  -0.991  0.00  0.00     0.000 A 
ATOM     34  C   UNL d   1      29.147 -17.716  -0.892  0.00  0.00     0.001 A 
ATOM     35  C   UNL d   1      28.527 -16.545  -0.454  0.00  0.00     0.008 A 
ENDBRANCH  27  30
ENDBRANCH  25  27
BRANCH  24  36
ATOM     36  C   UNL d   1      29.022 -13.358  -2.632  0.00  0.00     0.192 C 
BRANCH  36  37
ATOM     37  C   UNL d   1      29.751 -14.368  -3.420  0.00  0.00     0.071 A 
ATOM     38  C   UNL d   1      30.963 -14.390  -4.012  0.00  0.00     0.037 A 
ATOM     39  C   UNL d   1      31.274 -15.677  -4.384  0.00  0.00     0.035 A 
ATOM     40  C   UNL d   1      30.168 -16.416  -4.062  0.00  0.00     0.049 A 
ATOM     41  C   UNL d   1      30.065 -17.825  -4.373  0.00  0.00     0.076 C 
ATOM     42  O   UNL d   1      29.239 -15.663  -3.421  0.00  0.00    -0.318 OA
ENDBRANCH  36  37
ENDBRANCH  24  36
ENDBRANCH   1  24
TORSDOF 12
ENDMDL
MODEL 9
REMARK VINA RESULT:    -6.339      1.990      5.226
REMARK INTER + INTRA:         -16.722
REMARK INTER:                  -9.919
REMARK INTRA:                  -6.804
REMARK CONF_INDEPENDENT:        3.580
REMARK UNBOUND:                -6.804
REMARK  12 active torsions:
REMARK  status: ('A' for Active; 'I' for Inactive)
REMARK    1  A    between atoms: C_2  and  C_3 
REMARK    2  A    between atoms: C_3  and  C_4 
REMARK    3  A    between atoms: C_3  and  C_33 
REMARK       I    between atoms: C_4  and  N_6 
REMARK    4  A    between atoms: N_6  and  C_7 
REMARK    5  A    between atoms: C_14  and  N_6 
REMARK    6  A    between atoms: C_7  and  C_8 
REMARK    7  A    between atoms: C_14  and  C_24 
REMARK    8  A    between atoms: C_14  and  C_15 
REMARK       I    between atoms: C_15  and  N_17 
REMARK    9  A    between atoms: N_17  and  C_18 
REMARK   10  A    between atoms: C_25  and  O_26 
REMARK   11  A    between atoms: C_28  and  O_29 
REMARK   12  A    between atoms: C_31  and  O_32 
ROOT
ATOM      1  C   UNL d   1      26.276 -13.633  -4.090  0.00  0.00     0.218 C 
ENDROOT
BRANCH   1   2
ATOM      2  C   UNL d   1      26.679 -12.181  -4.333  0.00  0.00     0.040 C 
ATOM      3  C   UNL d   1      27.732 -11.671  -3.534  0.00  0.00     0.080 C 
ATOM      4  C   UNL d   1      27.912 -10.320  -3.292  0.00  0.00     0.073 C 
ATOM      5  C   UNL d   1      27.077  -9.432  -3.946  0.00  0.00     0.071 C 
ATOM      6  C   UNL d   1      26.101  -9.882  -4.819  0.00  0.00     0.073 C 
ATOM      7  C   UNL d   1      25.986 -11.241  -5.077  0.00  0.00     0.080 C 
BRANCH   3   8
ATOM      8  O   UNL d   1      28.677 -12.498  -2.976  0.00  0.00    -0.360 OA
ATOM      9  H   UNL d   1      28.197 -13.102  -2.379  0.00  0.00     0.217 HD
ENDBRANCH   3   8
BRANCH   5  10
ATOM     10  O   UNL d   1      27.277  -8.090  -3.867  0.00  0.00    -0.361 OA
ATOM     11  H   UNL d   1      27.675  -7.905  -3.003  0.00  0.00     0.217 HD
ENDBRANCH   5  10
BRANCH   7  12
ATOM     12  O   UNL d   1      25.231 -11.579  -6.158  0.00  0.00    -0.360 OA
ATOM     13  H   UNL d   1      24.406 -11.934  -5.752  0.00  0.00     0.217 HD
ENDBRANCH   7  12
ENDBRANCH   1   2
BRANCH   1  14
ATOM     14  C   UNL d   1      27.050 -14.424  -5.211  0.00  0.00     0.245 C 
ATOM     15  O   UNL d   1      26.471 -15.367  -5.767  0.00  0.00    -0.271 OA
ATOM     16  N   UNL d   1      28.365 -14.009  -5.498  0.00  0.00    -0.354 N 
ATOM     17  H   UNL d   1      28.897 -13.854  -4.660  0.00  0.00     0.162 HD
BRANCH  16  18
ATOM     18  C   UNL d   1      29.330 -14.504  -6.512  0.00  0.00     0.084 C 
ATOM     19  C   UNL d   1      30.573 -13.639  -6.599  0.00  0.00     0.025 C 
ATOM     20  C   UNL d   1      31.637 -14.271  -7.494  0.00  0.00     0.002 C 
ATOM     21  C   UNL d   1      32.016 -15.696  -7.081  0.00  0.00     0.000 C 
ATOM     22  C   UNL d   1      30.787 -16.602  -7.129  0.00  0.00     0.002 C 
ATOM     23  C   UNL d   1      29.715 -15.950  -6.285  0.00  0.00     0.025 C 
ENDBRANCH  16  18
ENDBRANCH   1  14
BRANCH   1  24
ATOM     24  N   UNL d   1      26.476 -14.402  -2.806  0.00  0.00    -0.328 N 
ATOM     25  C   UNL d   1      26.349 -13.866  -1.498  0.00  0.00     0.229 C 
ATOM     26  O   UNL d   1      26.289 -12.646  -1.322  0.00  0.00    -0.273 OA
BRANCH  25  27
ATOM     27  C   UNL d   1      26.318 -14.809  -0.194  0.00  0.00     0.110 C 
BRANCH  27  28
ATOM     28  C   UNL d   1      27.688 -15.220   0.442  0.00  0.00     0.014 C 
ATOM     29  C   UNL d   1      28.939 -14.439   0.164  0.00  0.00     0.006 C 
ENDBRANCH  27  28
BRANCH  27  30
ATOM     30  C   UNL d   1      25.501 -16.152  -0.393  0.00  0.00    -0.045 A 
ATOM     31  C   UNL d   1      24.229 -16.184  -0.991  0.00  0.00     0.008 A 
ATOM     32  C   UNL d   1      23.483 -17.373  -1.065  0.00  0.00     0.001 A 
ATOM     33  C   UNL d   1      23.992 -18.567  -0.562  0.00  0.00     0.000 A 
ATOM     34  C   UNL d   1      25.238 -18.573   0.036  0.00  0.00     0.001 A 
ATOM     35  C   UNL d   1      25.972 -17.389   0.115  0.00  0.00     0.008 A 
ENDBRANCH  27  30
ENDBRANCH  25  27
BRANCH  24  36
ATOM     36  C   UNL d   1      27.107 -15.713  -2.999  0.00  0.00     0.192 C 
BRANCH  36  37
ATOM     37  C   UNL d   1      28.554 -15.960  -2.876  0.00  0.00     0.071 A 
ATOM     38  C   UNL d   1      29.321 -17.066  -2.962  0.00  0.00     0.037 A 
ATOM     39  C   UNL d   1      30.646 -16.707  -3.047  0.00  0.00     0.035 A 
ATOM     40  C   UNL d   1      30.652 -15.344  -2.932  0.00  0.00     0.049 A 
ATOM     41  C   UNL d   1      31.879 -14.578  -2.894  0.00  0.00     0.076 C 
ATOM     42  O   UNL d   1      29.390 -14.846  -2.882  0.00  0.00    -0.318 OA
ENDBRANCH  36  37
ENDBRANCH  24  36
ENDBRANCH   1  24
TORSDOF 12
ENDMDL
