MODEL 1
REMARK VINA RESULT:    -9.435      0.000      0.000
REMARK INTER + INTRA:         -13.289
REMARK INTER:                 -12.717
REMARK INTRA:                  -0.573
REMARK CONF_INDEPENDENT:        3.281
REMARK UNBOUND:                -0.573
REMARK  11 active torsions:
REMARK  status: ('A' for Active; 'I' for Inactive)
REMARK    1  A    between atoms: C_2  and  C_3 
REMARK    2  A    between atoms: C_3  and  C_4 
REMARK    3  A    between atoms: C_4  and  S_5 
REMARK    4  A    between atoms: S_5  and  C_6 
REMARK    5  A    between atoms: C_9  and  C_10 
REMARK       I    between atoms: C_10  and  N_12 
REMARK    6  A    between atoms: N_12  and  C_13 
REMARK    7  A    between atoms: C_14  and  C_13 
REMARK    8  A    between atoms: C_14  and  N_25 
REMARK    9  A    between atoms: C_14  and  C_15 
REMARK   10  A    between atoms: C_18  and  O_19 
REMARK   11  A    between atoms: C_21  and  O_22 
ROOT
ATOM      1  C   UNL d   1      26.659 -15.259   0.163  0.00  0.00     0.256 C 
ATOM      2  O   UNL d   1      26.649 -14.176  -0.426  0.00  0.00    -0.268 OA
ATOM      3  N   UNL d   1      27.577 -15.521   1.146  0.00  0.00    -0.354 N 
ATOM      4  H   UNL d   1      27.803 -16.499   1.218  0.00  0.00     0.162 HD
ENDROOT
BRANCH   3   5
ATOM      5  C   UNL d   1      28.543 -14.553   1.693  0.00  0.00     0.161 C 
BRANCH   5   6
ATOM      6  C   UNL d   1      28.395 -14.279   3.234  0.00  0.00     0.237 C 
BRANCH   6   7
ATOM      7  N   UNL d   1      29.645 -14.631   4.043  0.00  0.00    -0.069 N 
ATOM      8  C   UNL d   1      30.736 -13.585   4.007  0.00  0.00     0.270 C 
ATOM      9  C   UNL d   1      29.364 -14.814   5.511  0.00  0.00     0.270 C 
ATOM     10  H   UNL d   1      30.036 -15.478   3.610  0.00  0.00     0.279 HD
ENDBRANCH   6   7
BRANCH   6  11
ATOM     11  C   UNL d   1      27.951 -12.852   3.464  0.00  0.00    -0.023 A 
ATOM     12  C   UNL d   1      27.407 -12.039   2.460  0.00  0.00     0.012 A 
ATOM     13  C   UNL d   1      27.189 -10.683   2.710  0.00  0.00     0.040 A 
ATOM     14  C   UNL d   1      27.382 -10.149   3.991  0.00  0.00     0.101 A 
ATOM     15  C   UNL d   1      27.899 -10.970   5.007  0.00  0.00     0.102 A 
ATOM     16  C   UNL d   1      28.172 -12.309   4.731  0.00  0.00     0.049 A 
BRANCH  14  17
ATOM     17  O   UNL d   1      27.012  -8.833   4.099  0.00  0.00    -0.353 OA
ATOM     18  C   UNL d   1      27.990  -7.856   3.753  0.00  0.00     0.210 C 
ENDBRANCH  14  17
BRANCH  15  19
ATOM     19  O   UNL d   1      28.156 -10.424   6.230  0.00  0.00    -0.353 OA
ATOM     20  C   UNL d   1      29.367 -10.754   6.887  0.00  0.00     0.210 C 
ENDBRANCH  15  19
ENDBRANCH   6  11
ENDBRANCH   5   6
ENDBRANCH   3   5
BRANCH   1  21
ATOM     21  C   UNL d   1      25.653 -16.323  -0.159  0.00  0.00     0.090 A 
ATOM     22  C   UNL d   1      24.510 -15.970  -0.837  0.00  0.00     0.139 A 
ATOM     23  N   UNL d   1      23.499 -16.827  -1.150  0.00  0.00    -0.234 NA
ATOM     24  C   UNL d   1      23.608 -18.093  -0.727  0.00  0.00     0.189 A 
ATOM     25  N   UNL d   1      24.662 -18.548  -0.068  0.00  0.00    -0.210 NA
ATOM     26  C   UNL d   1      25.659 -17.674   0.140  0.00  0.00     0.146 A 
ATOM     27 CL   UNL d   1      27.009 -18.612   0.603  0.00  0.00    -0.061 Cl
BRANCH  24  28
ATOM     28  S   UNL d   1      22.454 -19.316  -1.253  0.00  0.00    -0.090 SA
BRANCH  28  29
ATOM     29  C   UNL d   1      21.059 -18.947  -0.144  0.00  0.00     0.082 C 
BRANCH  29  30
ATOM     30  C   UNL d   1      19.966 -19.986  -0.400  0.00  0.00     0.010 C 
BRANCH  30  31
ATOM     31  C   UNL d   1      19.306 -20.451   0.898  0.00  0.00    -0.004 C 
ATOM     32  C   UNL d   1      18.032 -21.229   0.609  0.00  0.00     0.005 C 
ENDBRANCH  30  31
ENDBRANCH  29  30
ENDBRANCH  28  29
ENDBRANCH  24  28
ENDBRANCH   1  21
TORSDOF 11
ENDMDL
MODEL 2
REMARK VINA RESULT:    -9.204      0.931      1.932
REMARK INTER + INTRA:         -13.442
REMARK INTER:                 -12.485
REMARK INTRA:                  -0.957
REMARK CONF_INDEPENDENT:        3.281
REMARK UNBOUND:                -0.957
REMARK  11 active torsions:
REMARK  status: ('A' for Active; 'I' for Inactive)
REMARK    1  A    between atoms: C_2  and  C_3 
REMARK    2  A    between atoms: C_3  and  C_4 
REMARK    3  A    between atoms: C_4  and  S_5 
REMARK    4  A    between atoms: S_5  and  C_6 
REMARK    5  A    between atoms: C_9  and  C_10 
REMARK       I    between atoms: C_10  and  N_12 
REMARK    6  A    between atoms: N_12  and  C_13 
REMARK    7  A    between atoms: C_14  and  C_13 
REMARK    8  A    between atoms: C_14  and  N_25 
REMARK    9  A    between atoms: C_14  and  C_15 
REMARK   10  A    between atoms: C_18  and  O_19 
REMARK   11  A    between atoms: C_21  and  O_22 
ROOT
ATOM      1  C   UNL d   1      26.677 -15.278   0.121  0.00  0.00     0.256 C 
ATOM      2  O   UNL d   1      26.646 -14.173  -0.424  0.00  0.00    -0.268 OA
ATOM      3  N   UNL d   1      27.642 -15.586   1.044  0.00  0.00    -0.354 N 
ATOM      4  H   UNL d   1      27.862 -16.567   1.066  0.00  0.00     0.162 HD
ENDROOT
BRANCH   3   5
ATOM      5  C   UNL d   1      28.643 -14.647   1.577  0.00  0.00     0.161 C 
BRANCH   5   6
ATOM      6  C   UNL d   1      28.439 -14.258   3.087  0.00  0.00     0.237 C 
BRANCH   6   7
ATOM      7  N   UNL d   1      29.627 -14.621   3.980  0.00  0.00    -0.069 N 
ATOM      8  C   UNL d   1      30.738 -13.595   4.001  0.00  0.00     0.270 C 
ATOM      9  C   UNL d   1      29.248 -14.776   5.429  0.00  0.00     0.270 C 
ATOM     10  H   UNL d   1      30.029 -15.480   3.585  0.00  0.00     0.279 HD
ENDBRANCH   6   7
BRANCH   6  11
ATOM     11  C   UNL d   1      28.068 -12.796   3.197  0.00  0.00    -0.023 A 
ATOM     12  C   UNL d   1      27.921 -12.124   4.418  0.00  0.00     0.012 A 
ATOM     13  C   UNL d   1      27.405 -10.827   4.437  0.00  0.00     0.040 A 
ATOM     14  C   UNL d   1      27.155 -10.138   3.243  0.00  0.00     0.101 A 
ATOM     15  C   UNL d   1      27.330 -10.800   2.017  0.00  0.00     0.102 A 
ATOM     16  C   UNL d   1      27.787 -12.117   2.011  0.00  0.00     0.049 A 
BRANCH  14  17
ATOM     17  O   UNL d   1      26.765  -8.837   3.433  0.00  0.00    -0.353 OA
ATOM     18  C   UNL d   1      27.542  -8.054   4.336  0.00  0.00     0.210 C 
ENDBRANCH  14  17
BRANCH  15  19
ATOM     19  O   UNL d   1      27.011 -10.147   0.863  0.00  0.00    -0.353 OA
ATOM     20  C   UNL d   1      27.607 -10.570  -0.351  0.00  0.00     0.210 C 
ENDBRANCH  15  19
ENDBRANCH   6  11
ENDBRANCH   5   6
ENDBRANCH   3   5
BRANCH   1  21
ATOM     21  C   UNL d   1      25.646 -16.322  -0.189  0.00  0.00     0.090 A 
ATOM     22  C   UNL d   1      24.512 -15.950  -0.873  0.00  0.00     0.139 A 
ATOM     23  N   UNL d   1      23.481 -16.787  -1.178  0.00  0.00    -0.234 NA
ATOM     24  C   UNL d   1      23.559 -18.049  -0.738  0.00  0.00     0.189 A 
ATOM     25  N   UNL d   1      24.600 -18.521  -0.072  0.00  0.00    -0.210 NA
ATOM     26  C   UNL d   1      25.618 -17.669   0.127  0.00  0.00     0.146 A 
ATOM     27 CL   UNL d   1      26.944 -18.633   0.604  0.00  0.00    -0.061 Cl
BRANCH  24  28
ATOM     28  S   UNL d   1      22.377 -19.250  -1.251  0.00  0.00    -0.090 SA
BRANCH  28  29
ATOM     29  C   UNL d   1      21.187 -19.144   0.122  0.00  0.00     0.082 C 
BRANCH  29  30
ATOM     30  C   UNL d   1      19.934 -19.926  -0.278  0.00  0.00     0.010 C 
BRANCH  30  31
ATOM     31  C   UNL d   1      19.023 -20.193   0.919  0.00  0.00    -0.004 C 
ATOM     32  C   UNL d   1      18.023 -21.295   0.603  0.00  0.00     0.005 C 
ENDBRANCH  30  31
ENDBRANCH  29  30
ENDBRANCH  28  29
ENDBRANCH  24  28
ENDBRANCH   1  21
TORSDOF 11
ENDMDL
MODEL 3
REMARK VINA RESULT:    -9.112      2.214      3.027
REMARK INTER + INTRA:         -13.398
REMARK INTER:                 -12.393
REMARK INTRA:                  -1.004
REMARK CONF_INDEPENDENT:        3.281
REMARK UNBOUND:                -1.004
REMARK  11 active torsions:
REMARK  status: ('A' for Active; 'I' for Inactive)
REMARK    1  A    between atoms: C_2  and  C_3 
REMARK    2  A    between atoms: C_3  and  C_4 
REMARK    3  A    between atoms: C_4  and  S_5 
REMARK    4  A    between atoms: S_5  and  C_6 
REMARK    5  A    between atoms: C_9  and  C_10 
REMARK       I    between atoms: C_10  and  N_12 
REMARK    6  A    between atoms: N_12  and  C_13 
REMARK    7  A    between atoms: C_14  and  C_13 
REMARK    8  A    between atoms: C_14  and  N_25 
REMARK    9  A    between atoms: C_14  and  C_15 
REMARK   10  A    between atoms: C_18  and  O_19 
REMARK   11  A    between atoms: C_21  and  O_22 
ROOT
ATOM      1  C   UNL d   1      27.984 -15.335   0.265  0.00  0.00     0.256 C 
ATOM      2  O   UNL d   1      28.647 -14.834  -0.646  0.00  0.00    -0.268 OA
ATOM      3  N   UNL d   1      28.247 -15.038   1.576  0.00  0.00    -0.354 N 
ATOM      4  H   UNL d   1      28.009 -15.790   2.202  0.00  0.00     0.162 HD
ENDROOT
BRANCH   3   5
ATOM      5  C   UNL d   1      29.218 -14.037   2.048  0.00  0.00     0.161 C 
BRANCH   5   6
ATOM      6  C   UNL d   1      30.012 -14.451   3.340  0.00  0.00     0.237 C 
BRANCH   6   7
ATOM      7  N   UNL d   1      31.506 -14.127   3.274  0.00  0.00    -0.069 N 
ATOM      8  C   UNL d   1      32.261 -14.848   2.180  0.00  0.00     0.270 C 
ATOM      9  C   UNL d   1      31.780 -12.671   3.006  0.00  0.00     0.270 C 
ATOM     10  H   UNL d   1      31.906 -14.445   4.166  0.00  0.00     0.279 HD
ENDBRANCH   6   7
BRANCH   6  11
ATOM     11  C   UNL d   1      29.352 -13.853   4.563  0.00  0.00    -0.023 A 
ATOM     12  C   UNL d   1      28.546 -12.707   4.526  0.00  0.00     0.012 A 
ATOM     13  C   UNL d   1      28.123 -12.120   5.720  0.00  0.00     0.040 A 
ATOM     14  C   UNL d   1      28.381 -12.734   6.952  0.00  0.00     0.101 A 
ATOM     15  C   UNL d   1      29.164 -13.900   6.989  0.00  0.00     0.102 A 
ATOM     16  C   UNL d   1      29.634 -14.445   5.796  0.00  0.00     0.049 A 
BRANCH  14  17
ATOM     17  O   UNL d   1      27.798 -12.096   8.017  0.00  0.00    -0.353 OA
ATOM     18  C   UNL d   1      28.657 -11.339   8.866  0.00  0.00     0.210 C 
ENDBRANCH  14  17
BRANCH  15  19
ATOM     19  O   UNL d   1      29.474 -14.449   8.199  0.00  0.00    -0.353 OA
ATOM     20  C   UNL d   1      30.819 -14.412   8.643  0.00  0.00     0.210 C 
ENDBRANCH  15  19
ENDBRANCH   6  11
ENDBRANCH   5   6
ENDBRANCH   3   5
BRANCH   1  21
ATOM     21  C   UNL d   1      26.851 -16.272  -0.029  0.00  0.00     0.090 A 
ATOM     22  C   UNL d   1      26.669 -17.367   0.784  0.00  0.00     0.139 A 
ATOM     23  N   UNL d   1      25.710 -18.316   0.601  0.00  0.00    -0.234 NA
ATOM     24  C   UNL d   1      24.919 -18.199  -0.473  0.00  0.00     0.189 A 
ATOM     25  N   UNL d   1      25.000 -17.189  -1.324  0.00  0.00    -0.210 NA
ATOM     26  C   UNL d   1      25.912 -16.244  -1.045  0.00  0.00     0.146 A 
ATOM     27 CL   UNL d   1      25.509 -14.905  -2.026  0.00  0.00    -0.061 Cl
BRANCH  24  28
ATOM     28  S   UNL d   1      23.529 -19.260  -0.683  0.00  0.00    -0.090 SA
BRANCH  28  29
ATOM     29  C   UNL d   1      22.173 -18.085  -0.382  0.00  0.00     0.082 C 
BRANCH  29  30
ATOM     30  C   UNL d   1      20.878 -18.718  -0.895  0.00  0.00     0.010 C 
BRANCH  30  31
ATOM     31  C   UNL d   1      20.439 -19.898  -0.028  0.00  0.00    -0.004 C 
ATOM     32  C   UNL d   1      20.165 -19.449   1.399  0.00  0.00     0.005 C 
ENDBRANCH  30  31
ENDBRANCH  29  30
ENDBRANCH  28  29
ENDBRANCH  24  28
ENDBRANCH   1  21
TORSDOF 11
ENDMDL
MODEL 4
REMARK VINA RESULT:    -9.103      1.850      3.097
REMARK INTER + INTRA:         -13.371
REMARK INTER:                 -12.384
REMARK INTRA:                  -0.987
REMARK CONF_INDEPENDENT:        3.281
REMARK UNBOUND:                -0.987
REMARK  11 active torsions:
REMARK  status: ('A' for Active; 'I' for Inactive)
REMARK    1  A    between atoms: C_2  and  C_3 
REMARK    2  A    between atoms: C_3  and  C_4 
REMARK    3  A    between atoms: C_4  and  S_5 
REMARK    4  A    between atoms: S_5  and  C_6 
REMARK    5  A    between atoms: C_9  and  C_10 
REMARK       I    between atoms: C_10  and  N_12 
REMARK    6  A    between atoms: N_12  and  C_13 
REMARK    7  A    between atoms: C_14  and  C_13 
REMARK    8  A    between atoms: C_14  and  N_25 
REMARK    9  A    between atoms: C_14  and  C_15 
REMARK   10  A    between atoms: C_18  and  O_19 
REMARK   11  A    between atoms: C_21  and  O_22 
ROOT
ATOM      1  C   UNL d   1      28.300 -15.203   0.035  0.00  0.00     0.256 C 
ATOM      2  O   UNL d   1      28.675 -14.454  -0.871  0.00  0.00    -0.268 OA
ATOM      3  N   UNL d   1      28.919 -15.200   1.257  0.00  0.00    -0.354 N 
ATOM      4  H   UNL d   1      28.873 -16.092   1.720  0.00  0.00     0.162 HD
ENDROOT
BRANCH   3   5
ATOM      5  C   UNL d   1      29.976 -14.264   1.677  0.00  0.00     0.161 C 
BRANCH   5   6
ATOM      6  C   UNL d   1      30.736 -14.679   2.989  0.00  0.00     0.237 C 
BRANCH   6   7
ATOM      7  N   UNL d   1      32.220 -14.304   2.983  0.00  0.00    -0.069 N 
ATOM      8  C   UNL d   1      33.144 -15.390   2.480  0.00  0.00     0.270 C 
ATOM      9  C   UNL d   1      32.525 -13.126   2.097  0.00  0.00     0.270 C 
ATOM     10  H   UNL d   1      32.474 -14.133   3.965  0.00  0.00     0.279 HD
ENDBRANCH   6   7
BRANCH   6  11
ATOM     11  C   UNL d   1      30.014 -14.130   4.199  0.00  0.00    -0.023 A 
ATOM     12  C   UNL d   1      29.527 -14.932   5.240  0.00  0.00     0.012 A 
ATOM     13  C   UNL d   1      28.719 -14.367   6.229  0.00  0.00     0.040 A 
ATOM     14  C   UNL d   1      28.495 -12.985   6.269  0.00  0.00     0.101 A 
ATOM     15  C   UNL d   1      29.007 -12.175   5.241  0.00  0.00     0.102 A 
ATOM     16  C   UNL d   1      29.761 -12.757   4.224  0.00  0.00     0.049 A 
BRANCH  14  17
ATOM     17  O   UNL d   1      27.780 -12.576   7.366  0.00  0.00    -0.353 OA
ATOM     18  C   UNL d   1      28.529 -12.178   8.512  0.00  0.00     0.210 C 
ENDBRANCH  14  17
BRANCH  15  19
ATOM     19  O   UNL d   1      28.719 -10.842   5.247  0.00  0.00    -0.353 OA
ATOM     20  C   UNL d   1      27.750 -10.346   4.340  0.00  0.00     0.210 C 
ENDBRANCH  15  19
ENDBRANCH   6  11
ENDBRANCH   5   6
ENDBRANCH   3   5
BRANCH   1  21
ATOM     21  C   UNL d   1      27.138 -16.130  -0.160  0.00  0.00     0.090 A 
ATOM     22  C   UNL d   1      26.999 -17.205   0.687  0.00  0.00     0.139 A 
ATOM     23  N   UNL d   1      26.018 -18.145   0.591  0.00  0.00    -0.234 NA
ATOM     24  C   UNL d   1      25.157 -18.039  -0.429  0.00  0.00     0.189 A 
ATOM     25  N   UNL d   1      25.191 -17.048  -1.306  0.00  0.00    -0.210 NA
ATOM     26  C   UNL d   1      26.132 -16.110  -1.110  0.00  0.00     0.146 A 
ATOM     27 CL   UNL d   1      25.679 -14.787  -2.090  0.00  0.00    -0.061 Cl
BRANCH  24  28
ATOM     28  S   UNL d   1      23.743 -19.085  -0.520  0.00  0.00    -0.090 SA
BRANCH  28  29
ATOM     29  C   UNL d   1      22.413 -17.849  -0.387  0.00  0.00     0.082 C 
BRANCH  29  30
ATOM     30  C   UNL d   1      21.121 -18.491  -0.895  0.00  0.00     0.010 C 
BRANCH  30  31
ATOM     31  C   UNL d   1      20.666 -19.643   0.001  0.00  0.00    -0.004 C 
ATOM     32  C   UNL d   1      19.165 -19.859  -0.117  0.00  0.00     0.005 C 
ENDBRANCH  30  31
ENDBRANCH  29  30
ENDBRANCH  28  29
ENDBRANCH  24  28
ENDBRANCH   1  21
TORSDOF 11
ENDMDL
MODEL 5
REMARK VINA RESULT:    -8.850      4.292      6.555
REMARK INTER + INTRA:         -13.834
REMARK INTER:                 -12.132
REMARK INTRA:                  -1.702
REMARK CONF_INDEPENDENT:        3.281
REMARK UNBOUND:                -1.702
REMARK  11 active torsions:
REMARK  status: ('A' for Active; 'I' for Inactive)
REMARK    1  A    between atoms: C_2  and  C_3 
REMARK    2  A    between atoms: C_3  and  C_4 
REMARK    3  A    between atoms: C_4  and  S_5 
REMARK    4  A    between atoms: S_5  and  C_6 
REMARK    5  A    between atoms: C_9  and  C_10 
REMARK       I    between atoms: C_10  and  N_12 
REMARK    6  A    between atoms: N_12  and  C_13 
REMARK    7  A    between atoms: C_14  and  C_13 
REMARK    8  A    between atoms: C_14  and  N_25 
REMARK    9  A    between atoms: C_14  and  C_15 
REMARK   10  A    between atoms: C_18  and  O_19 
REMARK   11  A    between atoms: C_21  and  O_22 
ROOT
ATOM      1  C   UNL d   1      26.682 -16.682   0.353  0.00  0.00     0.256 C 
ATOM      2  O   UNL d   1      27.487 -17.420   0.926  0.00  0.00    -0.268 OA
ATOM      3  N   UNL d   1      26.982 -15.368   0.101  0.00  0.00    -0.354 N 
ATOM      4  H   UNL d   1      26.166 -14.780   0.079  0.00  0.00     0.162 HD
ENDROOT
BRANCH   3   5
ATOM      5  C   UNL d   1      28.283 -14.726   0.350  0.00  0.00     0.161 C 
BRANCH   5   6
ATOM      6  C   UNL d   1      29.474 -15.307  -0.496  0.00  0.00     0.237 C 
BRANCH   6   7
ATOM      7  N   UNL d   1      29.934 -16.693  -0.038  0.00  0.00    -0.069 N 
ATOM      8  C   UNL d   1      29.440 -17.838  -0.895  0.00  0.00     0.270 C 
ATOM      9  C   UNL d   1      31.431 -16.849  -0.051  0.00  0.00     0.270 C 
ATOM     10  H   UNL d   1      29.532 -16.832   0.897  0.00  0.00     0.279 HD
ENDBRANCH   6   7
BRANCH   6  11
ATOM     11  C   UNL d   1      29.121 -15.281  -1.967  0.00  0.00    -0.023 A 
ATOM     12  C   UNL d   1      27.899 -14.806  -2.462  0.00  0.00     0.012 A 
ATOM     13  C   UNL d   1      27.583 -14.981  -3.810  0.00  0.00     0.040 A 
ATOM     14  C   UNL d   1      28.526 -15.505  -4.705  0.00  0.00     0.101 A 
ATOM     15  C   UNL d   1      29.764 -15.954  -4.216  0.00  0.00     0.102 A 
ATOM     16  C   UNL d   1      30.045 -15.832  -2.856  0.00  0.00     0.049 A 
BRANCH  14  17
ATOM     17  O   UNL d   1      28.104 -15.501  -6.010  0.00  0.00    -0.353 OA
ATOM     18  C   UNL d   1      28.662 -14.506  -6.866  0.00  0.00     0.210 C 
ENDBRANCH  14  17
BRANCH  15  19
ATOM     19  O   UNL d   1      30.645 -16.532  -5.081  0.00  0.00    -0.353 OA
ATOM     20  C   UNL d   1      30.584 -17.933  -5.286  0.00  0.00     0.210 C 
ENDBRANCH  15  19
ENDBRANCH   6  11
ENDBRANCH   5   6
ENDBRANCH   3   5
BRANCH   1  21
ATOM     21  C   UNL d   1      25.353 -17.199  -0.108  0.00  0.00     0.090 A 
ATOM     22  C   UNL d   1      24.745 -18.200   0.614  0.00  0.00     0.139 A 
ATOM     23  N   UNL d   1      23.563 -18.788   0.278  0.00  0.00    -0.234 NA
ATOM     24  C   UNL d   1      22.976 -18.395  -0.859  0.00  0.00     0.189 A 
ATOM     25  N   UNL d   1      23.467 -17.440  -1.634  0.00  0.00    -0.210 NA
ATOM     26  C   UNL d   1      24.592 -16.844  -1.208  0.00  0.00     0.146 A 
ATOM     27 CL   UNL d   1      24.744 -15.421  -2.139  0.00  0.00    -0.061 Cl
BRANCH  24  28
ATOM     28  S   UNL d   1      21.356 -18.950  -1.270  0.00  0.00    -0.090 SA
BRANCH  28  29
ATOM     29  C   UNL d   1      20.719 -19.353   0.387  0.00  0.00     0.082 C 
BRANCH  29  30
ATOM     30  C   UNL d   1      19.224 -19.648   0.257  0.00  0.00     0.010 C 
BRANCH  30  31
ATOM     31  C   UNL d   1      18.773 -20.741   1.227  0.00  0.00    -0.004 C 
ATOM     32  C   UNL d   1      17.655 -21.575   0.619  0.00  0.00     0.005 C 
ENDBRANCH  30  31
ENDBRANCH  29  30
ENDBRANCH  28  29
ENDBRANCH  24  28
ENDBRANCH   1  21
TORSDOF 11
ENDMDL
MODEL 6
REMARK VINA RESULT:    -8.790      4.372      6.399
REMARK INTER + INTRA:         -13.839
REMARK INTER:                 -12.071
REMARK INTRA:                  -1.768
REMARK CONF_INDEPENDENT:        3.281
REMARK UNBOUND:                -1.768
REMARK  11 active torsions:
REMARK  status: ('A' for Active; 'I' for Inactive)
REMARK    1  A    between atoms: C_2  and  C_3 
REMARK    2  A    between atoms: C_3  and  C_4 
REMARK    3  A    between atoms: C_4  and  S_5 
REMARK    4  A    between atoms: S_5  and  C_6 
REMARK    5  A    between atoms: C_9  and  C_10 
REMARK       I    between atoms: C_10  and  N_12 
REMARK    6  A    between atoms: N_12  and  C_13 
REMARK    7  A    between atoms: C_14  and  C_13 
REMARK    8  A    between atoms: C_14  and  N_25 
REMARK    9  A    between atoms: C_14  and  C_15 
REMARK   10  A    between atoms: C_18  and  O_19 
REMARK   11  A    between atoms: C_21  and  O_22 
ROOT
ATOM      1  C   UNL d   1      26.705 -16.686   0.308  0.00  0.00     0.256 C 
ATOM      2  O   UNL d   1      27.467 -17.391   0.973  0.00  0.00    -0.268 OA
ATOM      3  N   UNL d   1      27.059 -15.415  -0.062  0.00  0.00    -0.354 N 
ATOM      4  H   UNL d   1      26.266 -14.804  -0.166  0.00  0.00     0.162 HD
ENDROOT
BRANCH   3   5
ATOM      5  C   UNL d   1      28.376 -14.796   0.162  0.00  0.00     0.161 C 
BRANCH   5   6
ATOM      6  C   UNL d   1      29.565 -15.492  -0.596  0.00  0.00     0.237 C 
BRANCH   6   7
ATOM      7  N   UNL d   1      29.954 -16.851  -0.011  0.00  0.00    -0.069 N 
ATOM      8  C   UNL d   1      29.630 -18.035  -0.895  0.00  0.00     0.270 C 
ATOM      9  C   UNL d   1      31.433 -16.980   0.242  0.00  0.00     0.270 C 
ATOM     10  H   UNL d   1      29.397 -16.963   0.845  0.00  0.00     0.279 HD
ENDBRANCH   6   7
BRANCH   6  11
ATOM     11  C   UNL d   1      29.255 -15.574  -2.074  0.00  0.00    -0.023 A 
ATOM     12  C   UNL d   1      30.173 -16.020  -3.034  0.00  0.00     0.012 A 
ATOM     13  C   UNL d   1      29.869 -15.898  -4.392  0.00  0.00     0.040 A 
ATOM     14  C   UNL d   1      28.606 -15.458  -4.807  0.00  0.00     0.101 A 
ATOM     15  C   UNL d   1      27.673 -15.039  -3.844  0.00  0.00     0.102 A 
ATOM     16  C   UNL d   1      28.008 -15.106  -2.493  0.00  0.00     0.049 A 
BRANCH  14  17
ATOM     17  O   UNL d   1      28.427 -15.507  -6.166  0.00  0.00    -0.353 OA
ATOM     18  C   UNL d   1      29.018 -14.461  -6.934  0.00  0.00     0.210 C 
ENDBRANCH  14  17
BRANCH  15  19
ATOM     19  O   UNL d   1      26.474 -14.540  -4.261  0.00  0.00    -0.353 OA
ATOM     20  C   UNL d   1      26.455 -13.341  -5.015  0.00  0.00     0.210 C 
ENDBRANCH  15  19
ENDBRANCH   6  11
ENDBRANCH   5   6
ENDBRANCH   3   5
BRANCH   1  21
ATOM     21  C   UNL d   1      25.370 -17.201  -0.141  0.00  0.00     0.090 A 
ATOM     22  C   UNL d   1      24.779 -18.218   0.573  0.00  0.00     0.139 A 
ATOM     23  N   UNL d   1      23.594 -18.805   0.247  0.00  0.00    -0.234 NA
ATOM     24  C   UNL d   1      22.986 -18.394  -0.873  0.00  0.00     0.189 A 
ATOM     25  N   UNL d   1      23.459 -17.423  -1.638  0.00  0.00    -0.210 NA
ATOM     26  C   UNL d   1      24.589 -16.830  -1.221  0.00  0.00     0.146 A 
ATOM     27 CL   UNL d   1      24.719 -15.389  -2.128  0.00  0.00    -0.061 Cl
BRANCH  24  28
ATOM     28  S   UNL d   1      21.362 -18.949  -1.267  0.00  0.00    -0.090 SA
BRANCH  28  29
ATOM     29  C   UNL d   1      20.728 -19.311   0.401  0.00  0.00     0.082 C 
BRANCH  29  30
ATOM     30  C   UNL d   1      19.266 -19.742   0.265  0.00  0.00     0.010 C 
BRANCH  30  31
ATOM     31  C   UNL d   1      19.073 -21.219   0.605  0.00  0.00    -0.004 C 
ATOM     32  C   UNL d   1      17.734 -21.446   1.290  0.00  0.00     0.005 C 
ENDBRANCH  30  31
ENDBRANCH  29  30
ENDBRANCH  28  29
ENDBRANCH  24  28
ENDBRANCH   1  21
TORSDOF 11
ENDMDL
MODEL 7
REMARK VINA RESULT:    -8.670      4.298      6.420
REMARK INTER + INTRA:         -13.378
REMARK INTER:                 -11.951
REMARK INTRA:                  -1.427
REMARK CONF_INDEPENDENT:        3.281
REMARK UNBOUND:                -1.427
REMARK  11 active torsions:
REMARK  status: ('A' for Active; 'I' for Inactive)
REMARK    1  A    between atoms: C_2  and  C_3 
REMARK    2  A    between atoms: C_3  and  C_4 
REMARK    3  A    between atoms: C_4  and  S_5 
REMARK    4  A    between atoms: S_5  and  C_6 
REMARK    5  A    between atoms: C_9  and  C_10 
REMARK       I    between atoms: C_10  and  N_12 
REMARK    6  A    between atoms: N_12  and  C_13 
REMARK    7  A    between atoms: C_14  and  C_13 
REMARK    8  A    between atoms: C_14  and  N_25 
REMARK    9  A    between atoms: C_14  and  C_15 
REMARK   10  A    between atoms: C_18  and  O_19 
REMARK   11  A    between atoms: C_21  and  O_22 
ROOT
ATOM      1  C   UNL d   1      26.108 -15.481  -0.834  0.00  0.00     0.256 C 
ATOM      2  O   UNL d   1      25.854 -14.479  -1.506  0.00  0.00    -0.268 OA
ATOM      3  N   UNL d   1      27.338 -15.651  -0.255  0.00  0.00    -0.354 N 
ATOM      4  H   UNL d   1      27.590 -16.620  -0.152  0.00  0.00     0.162 HD
ENDROOT
BRANCH   3   5
ATOM      5  C   UNL d   1      28.424 -14.656  -0.248  0.00  0.00     0.161 C 
BRANCH   5   6
ATOM      6  C   UNL d   1      29.826 -15.213  -0.689  0.00  0.00     0.237 C 
BRANCH   6   7
ATOM      7  N   UNL d   1      30.232 -16.498   0.038  0.00  0.00    -0.069 N 
ATOM      8  C   UNL d   1      29.876 -17.775  -0.691  0.00  0.00     0.270 C 
ATOM      9  C   UNL d   1      31.718 -16.606   0.256  0.00  0.00     0.270 C 
ATOM     10  H   UNL d   1      29.704 -16.505   0.919  0.00  0.00     0.279 HD
ENDBRANCH   6   7
BRANCH   6  11
ATOM     11  C   UNL d   1      29.869 -15.371  -2.192  0.00  0.00    -0.023 A 
ATOM     12  C   UNL d   1      31.053 -15.338  -2.941  0.00  0.00     0.012 A 
ATOM     13  C   UNL d   1      30.990 -15.312  -4.335  0.00  0.00     0.040 A 
ATOM     14  C   UNL d   1      29.765 -15.452  -5.000  0.00  0.00     0.101 A 
ATOM     15  C   UNL d   1      28.579 -15.516  -4.251  0.00  0.00     0.102 A 
ATOM     16  C   UNL d   1      28.647 -15.478  -2.859  0.00  0.00     0.049 A 
BRANCH  14  17
ATOM     17  O   UNL d   1      29.886 -15.526  -6.365  0.00  0.00    -0.353 OA
ATOM     18  C   UNL d   1      29.333 -14.452  -7.122  0.00  0.00     0.210 C 
ENDBRANCH  14  17
BRANCH  15  19
ATOM     19  O   UNL d   1      27.385 -15.575  -4.908  0.00  0.00    -0.353 OA
ATOM     20  C   UNL d   1      26.383 -14.623  -4.596  0.00  0.00     0.210 C 
ENDBRANCH  15  19
ENDBRANCH   6  11
ENDBRANCH   5   6
ENDBRANCH   3   5
BRANCH   1  21
ATOM     21  C   UNL d   1      25.073 -16.542  -0.607  0.00  0.00     0.090 A 
ATOM     22  C   UNL d   1      23.819 -16.370  -1.146  0.00  0.00     0.139 A 
ATOM     23  N   UNL d   1      22.779 -17.233  -0.978  0.00  0.00    -0.234 NA
ATOM     24  C   UNL d   1      22.980 -18.299  -0.193  0.00  0.00     0.189 A 
ATOM     25  N   UNL d   1      24.143 -18.569   0.377  0.00  0.00    -0.210 NA
ATOM     26  C   UNL d   1      25.151 -17.724   0.108  0.00  0.00     0.146 A 
ATOM     27 CL   UNL d   1      26.575 -18.528   0.601  0.00  0.00    -0.061 Cl
BRANCH  24  28
ATOM     28  S   UNL d   1      21.764 -19.568  -0.078  0.00  0.00    -0.090 SA
BRANCH  28  29
ATOM     29  C   UNL d   1      20.534 -18.951  -1.269  0.00  0.00     0.082 C 
BRANCH  29  30
ATOM     30  C   UNL d   1      19.142 -19.249  -0.706  0.00  0.00     0.010 C 
BRANCH  30  31
ATOM     31  C   UNL d   1      19.211 -19.817   0.711  0.00  0.00    -0.004 C 
ATOM     32  C   UNL d   1      18.577 -21.199   0.771  0.00  0.00     0.005 C 
ENDBRANCH  30  31
ENDBRANCH  29  30
ENDBRANCH  28  29
ENDBRANCH  24  28
ENDBRANCH   1  21
TORSDOF 11
ENDMDL
MODEL 8
REMARK VINA RESULT:    -8.450      4.112      8.985
REMARK INTER + INTRA:         -13.077
REMARK INTER:                 -11.731
REMARK INTRA:                  -1.346
REMARK CONF_INDEPENDENT:        3.281
REMARK UNBOUND:                -1.346
REMARK  11 active torsions:
REMARK  status: ('A' for Active; 'I' for Inactive)
REMARK    1  A    between atoms: C_2  and  C_3 
REMARK    2  A    between atoms: C_3  and  C_4 
REMARK    3  A    between atoms: C_4  and  S_5 
REMARK    4  A    between atoms: S_5  and  C_6 
REMARK    5  A    between atoms: C_9  and  C_10 
REMARK       I    between atoms: C_10  and  N_12 
REMARK    6  A    between atoms: N_12  and  C_13 
REMARK    7  A    between atoms: C_14  and  C_13 
REMARK    8  A    between atoms: C_14  and  N_25 
REMARK    9  A    between atoms: C_14  and  C_15 
REMARK   10  A    between atoms: C_18  and  O_19 
REMARK   11  A    between atoms: C_21  and  O_22 
ROOT
ATOM      1  C   UNL d   1      27.952 -14.055   1.630  0.00  0.00     0.256 C 
ATOM      2  O   UNL d   1      26.957 -13.814   0.944  0.00  0.00    -0.268 OA
ATOM      3  N   UNL d   1      29.063 -14.641   1.084  0.00  0.00    -0.354 N 
ATOM      4  H   UNL d   1      29.581 -15.192   1.748  0.00  0.00     0.162 HD
ENDROOT
BRANCH   3   5
ATOM      5  C   UNL d   1      29.260 -14.931  -0.347  0.00  0.00     0.161 C 
BRANCH   5   6
ATOM      6  C   UNL d   1      29.009 -16.429  -0.753  0.00  0.00     0.237 C 
BRANCH   6   7
ATOM      7  N   UNL d   1      29.984 -17.413  -0.104  0.00  0.00    -0.069 N 
ATOM      8  C   UNL d   1      30.403 -18.565  -0.990  0.00  0.00     0.270 C 
ATOM      9  C   UNL d   1      31.286 -16.771   0.298  0.00  0.00     0.270 C 
ATOM     10  H   UNL d   1      29.485 -17.823   0.695  0.00  0.00     0.279 HD
ENDBRANCH   6   7
BRANCH   6  11
ATOM     11  C   UNL d   1      27.566 -16.799  -0.490  0.00  0.00    -0.023 A 
ATOM     12  C   UNL d   1      27.175 -17.810   0.397  0.00  0.00     0.012 A 
ATOM     13  C   UNL d   1      25.838 -18.208   0.449  0.00  0.00     0.040 A 
ATOM     14  C   UNL d   1      24.857 -17.521  -0.279  0.00  0.00     0.101 A 
ATOM     15  C   UNL d   1      25.244 -16.486  -1.147  0.00  0.00     0.102 A 
ATOM     16  C   UNL d   1      26.590 -16.137  -1.237  0.00  0.00     0.049 A 
BRANCH  14  17
ATOM     17  O   UNL d   1      23.582 -17.958  -0.028  0.00  0.00    -0.353 OA
ATOM     18  C   UNL d   1      22.882 -18.563  -1.113  0.00  0.00     0.210 C 
ENDBRANCH  14  17
BRANCH  15  19
ATOM     19  O   UNL d   1      24.292 -15.873  -1.907  0.00  0.00    -0.353 OA
ATOM     20  C   UNL d   1      24.678 -14.818  -2.770  0.00  0.00     0.210 C 
ENDBRANCH  15  19
ENDBRANCH   6  11
ENDBRANCH   5   6
ENDBRANCH   3   5
BRANCH   1  21
ATOM     21  C   UNL d   1      27.993 -13.697   3.086  0.00  0.00     0.090 A 
ATOM     22  C   UNL d   1      28.208 -14.695   4.008  0.00  0.00     0.139 A 
ATOM     23  N   UNL d   1      28.222 -14.512   5.358  0.00  0.00    -0.234 NA
ATOM     24  C   UNL d   1      27.963 -13.282   5.819  0.00  0.00     0.189 A 
ATOM     25  N   UNL d   1      27.744 -12.244   5.027  0.00  0.00    -0.210 NA
ATOM     26  C   UNL d   1      27.822 -12.472   3.707  0.00  0.00     0.146 A 
ATOM     27 CL   UNL d   1      27.925 -10.933   2.975  0.00  0.00    -0.061 Cl
BRANCH  24  28
ATOM     28  S   UNL d   1      28.157 -12.907   7.529  0.00  0.00    -0.090 SA
BRANCH  28  29
ATOM     29  C   UNL d   1      29.481 -14.075   7.971  0.00  0.00     0.082 C 
BRANCH  29  30
ATOM     30  C   UNL d   1      29.676 -14.014   9.487  0.00  0.00     0.010 C 
BRANCH  30  31
ATOM     31  C   UNL d   1      28.419 -14.446  10.241  0.00  0.00    -0.004 C 
ATOM     32  C   UNL d   1      27.895 -13.315  11.113  0.00  0.00     0.005 C 
ENDBRANCH  30  31
ENDBRANCH  29  30
ENDBRANCH  28  29
ENDBRANCH  24  28
ENDBRANCH   1  21
TORSDOF 11
ENDMDL
MODEL 9
REMARK VINA RESULT:    -8.392      3.635      6.389
REMARK INTER + INTRA:         -13.107
REMARK INTER:                 -11.674
REMARK INTRA:                  -1.434
REMARK CONF_INDEPENDENT:        3.281
REMARK UNBOUND:                -1.434
REMARK  11 active torsions:
REMARK  status: ('A' for Active; 'I' for Inactive)
REMARK    1  A    between atoms: C_2  and  C_3 
REMARK    2  A    between atoms: C_3  and  C_4 
REMARK    3  A    between atoms: C_4  and  S_5 
REMARK    4  A    between atoms: S_5  and  C_6 
REMARK    5  A    between atoms: C_9  and  C_10 
REMARK       I    between atoms: C_10  and  N_12 
REMARK    6  A    between atoms: N_12  and  C_13 
REMARK    7  A    between atoms: C_14  and  C_13 
REMARK    8  A    between atoms: C_14  and  N_25 
REMARK    9  A    between atoms: C_14  and  C_15 
REMARK   10  A    between atoms: C_18  and  O_19 
REMARK   11  A    between atoms: C_21  and  O_22 
ROOT
ATOM      1  C   UNL d   1      26.283 -15.528  -1.023  0.00  0.00     0.256 C 
ATOM      2  O   UNL d   1      26.343 -14.929  -2.099  0.00  0.00    -0.268 OA
ATOM      3  N   UNL d   1      27.175 -15.267  -0.016  0.00  0.00    -0.354 N 
ATOM      4  H   UNL d   1      27.341 -16.064   0.575  0.00  0.00     0.162 HD
ENDROOT
BRANCH   3   5
ATOM      5  C   UNL d   1      28.192 -14.202  -0.032  0.00  0.00     0.161 C 
BRANCH   5   6
ATOM      6  C   UNL d   1      29.673 -14.713  -0.166  0.00  0.00     0.237 C 
BRANCH   6   7
ATOM      7  N   UNL d   1      30.268 -15.223   1.148  0.00  0.00    -0.069 N 
ATOM      8  C   UNL d   1      31.776 -15.142   1.233  0.00  0.00     0.270 C 
ATOM      9  C   UNL d   1      29.794 -14.447   2.348  0.00  0.00     0.270 C 
ATOM     10  H   UNL d   1      30.024 -16.220   1.203  0.00  0.00     0.279 HD
ENDBRANCH   6   7
BRANCH   6  11
ATOM     11  C   UNL d   1      29.766 -15.742  -1.271  0.00  0.00    -0.023 A 
ATOM     12  C   UNL d   1      30.490 -16.936  -1.158  0.00  0.00     0.012 A 
ATOM     13  C   UNL d   1      30.670 -17.745  -2.282  0.00  0.00     0.040 A 
ATOM     14  C   UNL d   1      30.027 -17.447  -3.490  0.00  0.00     0.101 A 
ATOM     15  C   UNL d   1      29.275 -16.265  -3.596  0.00  0.00     0.102 A 
ATOM     16  C   UNL d   1      29.152 -15.432  -2.486  0.00  0.00     0.049 A 
BRANCH  14  17
ATOM     17  O   UNL d   1      30.210 -18.401  -4.459  0.00  0.00    -0.353 OA
ATOM     18  C   UNL d   1      31.426 -18.341  -5.202  0.00  0.00     0.210 C 
ENDBRANCH  14  17
BRANCH  15  19
ATOM     19  O   UNL d   1      28.715 -15.945  -4.798  0.00  0.00    -0.353 OA
ATOM     20  C   UNL d   1      29.550 -15.462  -5.836  0.00  0.00     0.210 C 
ENDBRANCH  15  19
ENDBRANCH   6  11
ENDBRANCH   5   6
ENDBRANCH   3   5
BRANCH   1  21
ATOM     21  C   UNL d   1      25.217 -16.551  -0.767  0.00  0.00     0.090 A 
ATOM     22  C   UNL d   1      23.959 -16.339  -1.281  0.00  0.00     0.139 A 
ATOM     23  N   UNL d   1      22.893 -17.164  -1.085  0.00  0.00    -0.234 NA
ATOM     24  C   UNL d   1      23.073 -18.232  -0.297  0.00  0.00     0.189 A 
ATOM     25  N   UNL d   1      24.238 -18.538   0.252  0.00  0.00    -0.210 NA
ATOM     26  C   UNL d   1      25.269 -17.730  -0.045  0.00  0.00     0.146 A 
ATOM     27 CL   UNL d   1      26.674 -18.579   0.425  0.00  0.00    -0.061 Cl
BRANCH  24  28
ATOM     28  S   UNL d   1      21.817 -19.458  -0.147  0.00  0.00    -0.090 SA
BRANCH  28  29
ATOM     29  C   UNL d   1      20.410 -18.576  -0.893  0.00  0.00     0.082 C 
BRANCH  29  30
ATOM     30  C   UNL d   1      19.139 -19.370  -0.584  0.00  0.00     0.010 C 
BRANCH  30  31
ATOM     31  C   UNL d   1      19.340 -20.334   0.584  0.00  0.00    -0.004 C 
ATOM     32  C   UNL d   1      18.134 -21.248   0.744  0.00  0.00     0.005 C 
ENDBRANCH  30  31
ENDBRANCH  29  30
ENDBRANCH  28  29
ENDBRANCH  24  28
ENDBRANCH   1  21
TORSDOF 11
ENDMDL
