MODEL 1
REMARK VINA RESULT:    -8.136      0.000      0.000
REMARK INTER + INTRA:         -11.298
REMARK INTER:                  -9.926
REMARK INTRA:                  -1.373
REMARK CONF_INDEPENDENT:        1.790
REMARK UNBOUND:                -1.373
REMARK  6 active torsions:
REMARK  status: ('A' for Active; 'I' for Inactive)
REMARK    1  A    between atoms: O_2  and  C_3 
REMARK    2  A    between atoms: C_9  and  N_10 
REMARK       I    between atoms: N_10  and  C_11 
REMARK    3  A    between atoms: C_11  and  C_13 
REMARK    4  A    between atoms: C_16  and  C_17 
REMARK    5  A    between atoms: C_17  and  O_18 
REMARK    6  A    between atoms: N_26  and  C_27 
ROOT
ATOM      1  C   UNL d   1      26.930 -13.971  -4.571  0.00  0.00     0.084 A 
ATOM      2  C   UNL d   1      26.421 -12.829  -5.060  0.00  0.00     0.036 A 
ATOM      3  C   UNL d   1      27.041 -12.115  -6.161  0.00  0.00     0.011 A 
ATOM      4  C   UNL d   1      26.527 -10.908  -6.660  0.00  0.00    -0.004 A 
ATOM      5  C   UNL d   1      27.234 -10.324  -7.705  0.00  0.00     0.127 A 
ATOM      6  N   UNL d   1      28.359 -10.844  -8.252  0.00  0.00    -0.262 NA
ATOM      7  C   UNL d   1      28.822 -12.021  -7.773  0.00  0.00     0.065 A 
ATOM      8  C   UNL d   1      30.056 -12.575  -8.415  0.00  0.00     0.073 C 
ATOM      9  C   UNL d   1      28.188 -12.676  -6.726  0.00  0.00     0.113 A 
ATOM     10  O   UNL d   1      28.716 -13.895  -6.235  0.00  0.00    -0.290 OA
ATOM     11  C   UNL d   1      28.084 -14.575  -5.204  0.00  0.00     0.164 A 
ATOM     12  N   UNL d   1      28.450 -15.789  -5.010  0.00  0.00    -0.336 N 
ATOM     13  H   UNL d   1      27.890 -16.423  -4.432  0.00  0.00     0.168 HD
ENDROOT
BRANCH   1  14
ATOM     14  C   UNL d   1      26.016 -14.692  -3.668  0.00  0.00     0.260 C 
ATOM     15  N   UNL d   1      26.575 -15.574  -2.758  0.00  0.00    -0.320 N 
ATOM     16  H   UNL d   1      27.576 -15.567  -2.594  0.00  0.00     0.169 HD
ATOM     17  O   UNL d   1      24.836 -14.452  -3.905  0.00  0.00    -0.267 OA
BRANCH  15  18
ATOM     18  C   UNL d   1      25.841 -16.352  -1.789  0.00  0.00     0.069 A 
ATOM     19  C   UNL d   1      24.433 -16.188  -1.733  0.00  0.00     0.039 A 
ATOM     20  C   UNL d   1      23.649 -16.929  -0.819  0.00  0.00    -0.060 A 
ATOM     21  C   UNL d   1      24.269 -17.849   0.024  0.00  0.00     0.009 A 
ATOM     22  C   UNL d   1      22.155 -16.771  -0.714  0.00  0.00     0.048 C 
ATOM     23  C   UNL d   1      25.639 -18.021  -0.019  0.00  0.00     0.039 A 
ATOM     24  C   UNL d   1      26.422 -17.278  -0.897  0.00  0.00     0.095 A 
BRANCH  24  25
ATOM     25  O   UNL d   1      27.765 -17.349  -0.680  0.00  0.00    -0.354 OA
ATOM     26  C   UNL d   1      28.294 -16.334   0.177  0.00  0.00     0.210 C 
ENDBRANCH  24  25
ENDBRANCH  15  18
ENDBRANCH   1  14
BRANCH  12  27
ATOM     27  C   UNL d   1      29.644 -16.320  -5.488  0.00  0.00     0.034 C 
ATOM     28  C   UNL d   1      30.371 -17.102  -4.595  0.00  0.00     0.029 C 
ATOM     29  C   UNL d   1      31.323 -17.962  -5.124  0.00  0.00     0.002 C 
ATOM     30  C   UNL d   1      31.766 -17.785  -6.435  0.00  0.00     0.000 C 
ATOM     31  C   UNL d   1      31.168 -16.839  -7.263  0.00  0.00     0.002 C 
ATOM     32  C   UNL d   1      30.030 -16.176  -6.822  0.00  0.00     0.029 C 
ENDBRANCH  12  27
BRANCH   4  33
ATOM     33  C   UNL d   1      25.277 -10.275  -6.097  0.00  0.00     0.205 C 
BRANCH  33  34
ATOM     34  O   UNL d   1      25.338 -10.065  -4.697  0.00  0.00    -0.396 OA
ATOM     35  H   UNL d   1      24.780 -10.737  -4.269  0.00  0.00     0.209 HD
ENDBRANCH  33  34
ENDBRANCH   4  33
TORSDOF 6
ENDMDL
MODEL 2
REMARK VINA RESULT:    -7.833      1.575      4.925
REMARK INTER + INTRA:         -11.652
REMARK INTER:                  -9.623
REMARK INTRA:                  -2.029
REMARK CONF_INDEPENDENT:        1.790
REMARK UNBOUND:                -2.029
REMARK  6 active torsions:
REMARK  status: ('A' for Active; 'I' for Inactive)
REMARK    1  A    between atoms: O_2  and  C_3 
REMARK    2  A    between atoms: C_9  and  N_10 
REMARK       I    between atoms: N_10  and  C_11 
REMARK    3  A    between atoms: C_11  and  C_13 
REMARK    4  A    between atoms: C_16  and  C_17 
REMARK    5  A    between atoms: C_17  and  O_18 
REMARK    6  A    between atoms: N_26  and  C_27 
ROOT
ATOM      1  C   UNL d   1      26.631 -14.461  -4.549  0.00  0.00     0.084 A 
ATOM      2  C   UNL d   1      27.686 -15.200  -4.926  0.00  0.00     0.036 A 
ATOM      3  C   UNL d   1      28.745 -14.666  -5.762  0.00  0.00     0.011 A 
ATOM      4  C   UNL d   1      29.838 -15.443  -6.179  0.00  0.00    -0.004 A 
ATOM      5  C   UNL d   1      30.768 -14.807  -6.993  0.00  0.00     0.127 A 
ATOM      6  N   UNL d   1      30.680 -13.515  -7.392  0.00  0.00    -0.262 NA
ATOM      7  C   UNL d   1      29.631 -12.779  -6.957  0.00  0.00     0.065 A 
ATOM      8  C   UNL d   1      29.577 -11.350  -7.402  0.00  0.00     0.073 C 
ATOM      9  C   UNL d   1      28.648 -13.328  -6.146  0.00  0.00     0.113 A 
ATOM     10  O   UNL d   1      27.552 -12.533  -5.730  0.00  0.00    -0.290 OA
ATOM     11  C   UNL d   1      26.571 -13.058  -4.903  0.00  0.00     0.164 A 
ATOM     12  N   UNL d   1      25.779 -12.215  -4.346  0.00  0.00    -0.336 N 
ATOM     13  H   UNL d   1      25.183 -12.491  -3.561  0.00  0.00     0.168 HD
ENDROOT
BRANCH   1  14
ATOM     14  C   UNL d   1      25.825 -15.074  -3.479  0.00  0.00     0.260 C 
ATOM     15  N   UNL d   1      26.397 -16.104  -2.751  0.00  0.00    -0.320 N 
ATOM     16  H   UNL d   1      27.393 -16.285  -2.825  0.00  0.00     0.169 HD
ATOM     17  O   UNL d   1      24.688 -14.614  -3.427  0.00  0.00    -0.267 OA
BRANCH  15  18
ATOM     18  C   UNL d   1      25.766 -16.809  -1.662  0.00  0.00     0.069 A 
ATOM     19  C   UNL d   1      24.349 -16.877  -1.645  0.00  0.00     0.039 A 
ATOM     20  C   UNL d   1      23.664 -17.564  -0.617  0.00  0.00    -0.060 A 
ATOM     21  C   UNL d   1      24.395 -18.201   0.384  0.00  0.00     0.009 A 
ATOM     22  C   UNL d   1      22.162 -17.644  -0.552  0.00  0.00     0.048 C 
ATOM     23  C   UNL d   1      25.776 -18.145   0.382  0.00  0.00     0.039 A 
ATOM     24  C   UNL d   1      26.458 -17.449  -0.612  0.00  0.00     0.095 A 
BRANCH  24  25
ATOM     25  O   UNL d   1      27.785 -17.253  -0.377  0.00  0.00    -0.354 OA
ATOM     26  C   UNL d   1      28.105 -16.047   0.322  0.00  0.00     0.210 C 
ENDBRANCH  24  25
ENDBRANCH  15  18
ENDBRANCH   1  14
BRANCH  12  27
ATOM     27  C   UNL d   1      25.606 -10.909  -4.794  0.00  0.00     0.034 C 
ATOM     28  C   UNL d   1      25.586  -9.920  -3.815  0.00  0.00     0.029 C 
ATOM     29  C   UNL d   1      25.823  -8.614  -4.219  0.00  0.00     0.002 C 
ATOM     30  C   UNL d   1      25.728  -8.277  -5.570  0.00  0.00     0.000 C 
ATOM     31  C   UNL d   1      25.531  -9.262  -6.533  0.00  0.00     0.002 C 
ATOM     32  C   UNL d   1      25.576 -10.598  -6.155  0.00  0.00     0.029 C 
ENDBRANCH  12  27
BRANCH   4  33
ATOM     33  C   UNL d   1      29.999 -16.887  -5.770  0.00  0.00     0.205 C 
BRANCH  33  34
ATOM     34  O   UNL d   1      29.702 -17.118  -4.403  0.00  0.00    -0.396 OA
ATOM     35  H   UNL d   1      30.542 -17.160  -3.916  0.00  0.00     0.209 HD
ENDBRANCH  33  34
ENDBRANCH   4  33
TORSDOF 6
ENDMDL
MODEL 3
REMARK VINA RESULT:    -7.257      2.108      7.176
REMARK INTER + INTRA:         -10.507
REMARK INTER:                  -9.046
REMARK INTRA:                  -1.461
REMARK CONF_INDEPENDENT:        1.790
REMARK UNBOUND:                -1.461
REMARK  6 active torsions:
REMARK  status: ('A' for Active; 'I' for Inactive)
REMARK    1  A    between atoms: O_2  and  C_3 
REMARK    2  A    between atoms: C_9  and  N_10 
REMARK       I    between atoms: N_10  and  C_11 
REMARK    3  A    between atoms: C_11  and  C_13 
REMARK    4  A    between atoms: C_16  and  C_17 
REMARK    5  A    between atoms: C_17  and  O_18 
REMARK    6  A    between atoms: N_26  and  C_27 
ROOT
ATOM      1  C   UNL d   1      25.782 -15.375  -2.925  0.00  0.00     0.084 A 
ATOM      2  C   UNL d   1      24.645 -15.679  -2.281  0.00  0.00     0.036 A 
ATOM      3  C   UNL d   1      24.601 -16.656  -1.209  0.00  0.00     0.011 A 
ATOM      4  C   UNL d   1      23.409 -16.996  -0.548  0.00  0.00    -0.004 A 
ATOM      5  C   UNL d   1      23.512 -17.962   0.445  0.00  0.00     0.127 A 
ATOM      6  N   UNL d   1      24.667 -18.574   0.802  0.00  0.00    -0.262 NA
ATOM      7  C   UNL d   1      25.807 -18.213   0.169  0.00  0.00     0.065 A 
ATOM      8  C   UNL d   1      27.066 -18.897   0.602  0.00  0.00     0.073 C 
ATOM      9  C   UNL d   1      25.804 -17.262  -0.842  0.00  0.00     0.113 A 
ATOM     10  O   UNL d   1      27.014 -16.927  -1.498  0.00  0.00    -0.290 OA
ATOM     11  C   UNL d   1      27.034 -15.964  -2.495  0.00  0.00     0.164 A 
ATOM     12  N   UNL d   1      28.187 -15.517  -2.837  0.00  0.00    -0.336 N 
ATOM     13  H   UNL d   1      28.278 -14.661  -3.392  0.00  0.00     0.168 HD
ENDROOT
BRANCH   1  14
ATOM     14  C   UNL d   1      25.688 -14.168  -3.765  0.00  0.00     0.260 C 
ATOM     15  N   UNL d   1      26.663 -13.197  -3.609  0.00  0.00    -0.320 N 
ATOM     16  H   UNL d   1      27.506 -13.404  -3.084  0.00  0.00     0.169 HD
ATOM     17  O   UNL d   1      24.680 -14.162  -4.465  0.00  0.00    -0.267 OA
BRANCH  15  18
ATOM     18  C   UNL d   1      26.740 -11.963  -4.353  0.00  0.00     0.069 A 
ATOM     19  C   UNL d   1      25.711 -11.005  -4.161  0.00  0.00     0.039 A 
ATOM     20  C   UNL d   1      25.730  -9.768  -4.845  0.00  0.00    -0.060 A 
ATOM     21  C   UNL d   1      26.788  -9.479  -5.706  0.00  0.00     0.009 A 
ATOM     22  C   UNL d   1      24.649  -8.732  -4.685  0.00  0.00     0.048 C 
ATOM     23  C   UNL d   1      27.799 -10.401  -5.902  0.00  0.00     0.039 A 
ATOM     24  C   UNL d   1      27.774 -11.632  -5.253  0.00  0.00     0.095 A 
BRANCH  24  25
ATOM     25  O   UNL d   1      28.676 -12.546  -5.708  0.00  0.00    -0.354 OA
ATOM     26  C   UNL d   1      28.108 -13.765  -6.196  0.00  0.00     0.210 C 
ENDBRANCH  24  25
ENDBRANCH  15  18
ENDBRANCH   1  14
BRANCH  12  27
ATOM     27  C   UNL d   1      29.381 -16.175  -2.559  0.00  0.00     0.034 C 
ATOM     28  C   UNL d   1      30.067 -16.695  -3.654  0.00  0.00     0.029 C 
ATOM     29  C   UNL d   1      31.413 -16.986  -3.487  0.00  0.00     0.002 C 
ATOM     30  C   UNL d   1      31.948 -17.087  -2.203  0.00  0.00     0.000 C 
ATOM     31  C   UNL d   1      31.178 -16.767  -1.087  0.00  0.00     0.002 C 
ATOM     32  C   UNL d   1      29.921 -16.206  -1.271  0.00  0.00     0.029 C 
ENDBRANCH  12  27
BRANCH   4  33
ATOM     33  C   UNL d   1      22.089 -16.351  -0.895  0.00  0.00     0.205 C 
BRANCH  33  34
ATOM     34  O   UNL d   1      21.015 -17.273  -0.958  0.00  0.00    -0.396 OA
ATOM     35  H   UNL d   1      20.429 -17.002  -1.685  0.00  0.00     0.209 HD
ENDBRANCH  33  34
ENDBRANCH   4  33
TORSDOF 6
ENDMDL
MODEL 4
REMARK VINA RESULT:    -7.221      2.183      3.451
REMARK INTER + INTRA:         -10.273
REMARK INTER:                  -9.011
REMARK INTRA:                  -1.262
REMARK CONF_INDEPENDENT:        1.790
REMARK UNBOUND:                -1.262
REMARK  6 active torsions:
REMARK  status: ('A' for Active; 'I' for Inactive)
REMARK    1  A    between atoms: O_2  and  C_3 
REMARK    2  A    between atoms: C_9  and  N_10 
REMARK       I    between atoms: N_10  and  C_11 
REMARK    3  A    between atoms: C_11  and  C_13 
REMARK    4  A    between atoms: C_16  and  C_17 
REMARK    5  A    between atoms: C_17  and  O_18 
REMARK    6  A    between atoms: N_26  and  C_27 
ROOT
ATOM      1  C   UNL d   1      29.100 -15.199  -5.662  0.00  0.00     0.084 A 
ATOM      2  C   UNL d   1      29.172 -13.994  -6.249  0.00  0.00     0.036 A 
ATOM      3  C   UNL d   1      30.217 -13.658  -7.199  0.00  0.00     0.011 A 
ATOM      4  C   UNL d   1      30.310 -12.391  -7.798  0.00  0.00    -0.004 A 
ATOM      5  C   UNL d   1      31.373 -12.204  -8.674  0.00  0.00     0.127 A 
ATOM      6  N   UNL d   1      32.294 -13.151  -8.974  0.00  0.00    -0.262 NA
ATOM      7  C   UNL d   1      32.169 -14.372  -8.405  0.00  0.00     0.065 A 
ATOM      8  C   UNL d   1      33.194 -15.399  -8.775  0.00  0.00     0.073 C 
ATOM      9  C   UNL d   1      31.145 -14.653  -7.512  0.00  0.00     0.113 A 
ATOM     10  O   UNL d   1      31.060 -15.936  -6.918  0.00  0.00    -0.290 OA
ATOM     11  C   UNL d   1      30.031 -16.241  -6.039  0.00  0.00     0.164 A 
ATOM     12  N   UNL d   1      29.859 -17.484  -5.770  0.00  0.00    -0.336 N 
ATOM     13  H   UNL d   1      28.999 -17.811  -5.319  0.00  0.00     0.168 HD
ENDROOT
BRANCH   1  14
ATOM     14  C   UNL d   1      27.825 -15.448  -4.966  0.00  0.00     0.260 C 
ATOM     15  N   UNL d   1      27.861 -15.585  -3.589  0.00  0.00    -0.320 N 
ATOM     16  H   UNL d   1      28.696 -15.327  -3.074  0.00  0.00     0.169 HD
ATOM     17  O   UNL d   1      26.883 -15.571  -5.743  0.00  0.00    -0.267 OA
BRANCH  15  18
ATOM     18  C   UNL d   1      26.715 -15.817  -2.742  0.00  0.00     0.069 A 
ATOM     19  C   UNL d   1      26.868 -16.700  -1.643  0.00  0.00     0.039 A 
ATOM     20  C   UNL d   1      25.792 -16.962  -0.763  0.00  0.00    -0.060 A 
ATOM     21  C   UNL d   1      24.570 -16.325  -0.969  0.00  0.00     0.009 A 
ATOM     22  C   UNL d   1      25.907 -17.906   0.404  0.00  0.00     0.048 C 
ATOM     23  C   UNL d   1      24.405 -15.461  -2.036  0.00  0.00     0.039 A 
ATOM     24  C   UNL d   1      25.450 -15.218  -2.922  0.00  0.00     0.095 A 
BRANCH  24  25
ATOM     25  O   UNL d   1      25.104 -14.555  -4.060  0.00  0.00    -0.354 OA
ATOM     26  C   UNL d   1      25.329 -13.142  -4.029  0.00  0.00     0.210 C 
ENDBRANCH  24  25
ENDBRANCH  15  18
ENDBRANCH   1  14
BRANCH  12  27
ATOM     27  C   UNL d   1      30.826 -18.461  -5.987  0.00  0.00     0.034 C 
ATOM     28  C   UNL d   1      31.290 -19.129  -4.857  0.00  0.00     0.029 C 
ATOM     29  C   UNL d   1      31.924 -20.348  -5.050  0.00  0.00     0.002 C 
ATOM     30  C   UNL d   1      32.381 -20.701  -6.320  0.00  0.00     0.000 C 
ATOM     31  C   UNL d   1      32.090 -19.903  -7.424  0.00  0.00     0.002 C 
ATOM     32  C   UNL d   1      31.218 -18.833  -7.275  0.00  0.00     0.029 C 
ENDBRANCH  12  27
BRANCH   4  33
ATOM     33  C   UNL d   1      29.317 -11.292  -7.509  0.00  0.00     0.205 C 
BRANCH  33  34
ATOM     34  O   UNL d   1      27.986 -11.635  -7.855  0.00  0.00    -0.396 OA
ATOM     35  H   UNL d   1      27.930 -11.682  -8.824  0.00  0.00     0.209 HD
ENDBRANCH  33  34
ENDBRANCH   4  33
TORSDOF 6
ENDMDL
MODEL 5
REMARK VINA RESULT:    -7.180      3.612      6.734
REMARK INTER + INTRA:         -10.216
REMARK INTER:                  -8.970
REMARK INTRA:                  -1.246
REMARK CONF_INDEPENDENT:        1.790
REMARK UNBOUND:                -1.246
REMARK  6 active torsions:
REMARK  status: ('A' for Active; 'I' for Inactive)
REMARK    1  A    between atoms: O_2  and  C_3 
REMARK    2  A    between atoms: C_9  and  N_10 
REMARK       I    between atoms: N_10  and  C_11 
REMARK    3  A    between atoms: C_11  and  C_13 
REMARK    4  A    between atoms: C_16  and  C_17 
REMARK    5  A    between atoms: C_17  and  O_18 
REMARK    6  A    between atoms: N_26  and  C_27 
ROOT
ATOM      1  C   UNL d   1      28.067 -14.949  -0.745  0.00  0.00     0.084 A 
ATOM      2  C   UNL d   1      28.751 -14.326  -1.716  0.00  0.00     0.036 A 
ATOM      3  C   UNL d   1      28.345 -14.386  -3.109  0.00  0.00     0.011 A 
ATOM      4  C   UNL d   1      29.071 -13.755  -4.132  0.00  0.00    -0.004 A 
ATOM      5  C   UNL d   1      28.576 -13.912  -5.422  0.00  0.00     0.127 A 
ATOM      6  N   UNL d   1      27.463 -14.618  -5.734  0.00  0.00    -0.262 NA
ATOM      7  C   UNL d   1      26.765 -15.196  -4.729  0.00  0.00     0.065 A 
ATOM      8  C   UNL d   1      25.530 -15.951  -5.110  0.00  0.00     0.073 C 
ATOM      9  C   UNL d   1      27.184 -15.100  -3.409  0.00  0.00     0.113 A 
ATOM     10  O   UNL d   1      26.440 -15.738  -2.386  0.00  0.00    -0.290 OA
ATOM     11  C   UNL d   1      26.832 -15.636  -1.060  0.00  0.00     0.164 A 
ATOM     12  N   UNL d   1      25.968 -15.991  -0.179  0.00  0.00    -0.336 N 
ATOM     13  H   UNL d   1      26.087 -15.741   0.807  0.00  0.00     0.168 HD
ENDROOT
BRANCH   1  14
ATOM     14  C   UNL d   1      28.454 -14.537   0.616  0.00  0.00     0.260 C 
ATOM     15  N   UNL d   1      27.538 -13.806   1.353  0.00  0.00    -0.320 N 
ATOM     16  H   UNL d   1      26.576 -13.734   1.039  0.00  0.00     0.169 HD
ATOM     17  O   UNL d   1      29.608 -14.854   0.891  0.00  0.00    -0.267 OA
BRANCH  15  18
ATOM     18  C   UNL d   1      27.737 -13.332   2.701  0.00  0.00     0.069 A 
ATOM     19  C   UNL d   1      28.200 -14.259   3.670  0.00  0.00     0.039 A 
ATOM     20  C   UNL d   1      28.431 -13.861   5.007  0.00  0.00    -0.060 A 
ATOM     21  C   UNL d   1      28.219 -12.533   5.372  0.00  0.00     0.009 A 
ATOM     22  C   UNL d   1      28.904 -14.816   6.070  0.00  0.00     0.048 C 
ATOM     23  C   UNL d   1      27.769 -11.617   4.439  0.00  0.00     0.039 A 
ATOM     24  C   UNL d   1      27.514 -12.006   3.127  0.00  0.00     0.095 A 
BRANCH  24  25
ATOM     25  O   UNL d   1      26.846 -11.091   2.370  0.00  0.00    -0.354 OA
ATOM     26  C   UNL d   1      26.682  -9.807   2.979  0.00  0.00     0.210 C 
ENDBRANCH  24  25
ENDBRANCH  15  18
ENDBRANCH   1  14
BRANCH  12  27
ATOM     27  C   UNL d   1      24.865 -16.791  -0.461  0.00  0.00     0.034 C 
ATOM     28  C   UNL d   1      25.046 -18.163  -0.318  0.00  0.00     0.029 C 
ATOM     29  C   UNL d   1      23.911 -18.950  -0.189  0.00  0.00     0.002 C 
ATOM     30  C   UNL d   1      22.664 -18.433  -0.541  0.00  0.00     0.000 C 
ATOM     31  C   UNL d   1      22.527 -17.093  -0.896  0.00  0.00     0.002 C 
ATOM     32  C   UNL d   1      23.614 -16.241  -0.752  0.00  0.00     0.029 C 
ENDBRANCH  12  27
BRANCH   4  33
ATOM     33  C   UNL d   1      30.318 -12.953  -3.853  0.00  0.00     0.205 C 
BRANCH  33  34
ATOM     34  O   UNL d   1      30.885 -12.375  -5.017  0.00  0.00    -0.396 OA
ATOM     35  H   UNL d   1      30.211 -11.809  -5.429  0.00  0.00     0.209 HD
ENDBRANCH  33  34
ENDBRANCH   4  33
TORSDOF 6
ENDMDL
MODEL 6
REMARK VINA RESULT:    -6.849      2.182      6.908
REMARK INTER + INTRA:         -10.401
REMARK INTER:                  -8.638
REMARK INTRA:                  -1.762
REMARK CONF_INDEPENDENT:        1.790
REMARK UNBOUND:                -1.762
REMARK  6 active torsions:
REMARK  status: ('A' for Active; 'I' for Inactive)
REMARK    1  A    between atoms: O_2  and  C_3 
REMARK    2  A    between atoms: C_9  and  N_10 
REMARK       I    between atoms: N_10  and  C_11 
REMARK    3  A    between atoms: C_11  and  C_13 
REMARK    4  A    between atoms: C_16  and  C_17 
REMARK    5  A    between atoms: C_17  and  O_18 
REMARK    6  A    between atoms: N_26  and  C_27 
ROOT
ATOM      1  C   UNL d   1      28.711 -15.259  -5.627  0.00  0.00     0.084 A 
ATOM      2  C   UNL d   1      28.696 -14.227  -6.485  0.00  0.00     0.036 A 
ATOM      3  C   UNL d   1      27.894 -13.039  -6.252  0.00  0.00     0.011 A 
ATOM      4  C   UNL d   1      27.857 -11.967  -7.159  0.00  0.00    -0.004 A 
ATOM      5  C   UNL d   1      27.030 -10.904  -6.817  0.00  0.00     0.127 A 
ATOM      6  N   UNL d   1      26.283 -10.846  -5.689  0.00  0.00    -0.262 NA
ATOM      7  C   UNL d   1      26.354 -11.879  -4.818  0.00  0.00     0.065 A 
ATOM      8  C   UNL d   1      25.530 -11.772  -3.573  0.00  0.00     0.073 C 
ATOM      9  C   UNL d   1      27.147 -12.989  -5.075  0.00  0.00     0.113 A 
ATOM     10  O   UNL d   1      27.178 -14.062  -4.151  0.00  0.00    -0.290 OA
ATOM     11  C   UNL d   1      27.979 -15.170  -4.380  0.00  0.00     0.164 A 
ATOM     12  N   UNL d   1      28.172 -15.954  -3.382  0.00  0.00    -0.336 N 
ATOM     13  H   UNL d   1      28.916 -16.657  -3.401  0.00  0.00     0.168 HD
ENDROOT
BRANCH   1  14
ATOM     14  C   UNL d   1      29.791 -16.228  -5.879  0.00  0.00     0.260 C 
ATOM     15  N   UNL d   1      30.164 -16.448  -7.194  0.00  0.00    -0.320 N 
ATOM     16  H   UNL d   1      29.843 -15.822  -7.924  0.00  0.00     0.169 HD
ATOM     17  O   UNL d   1      30.176 -16.779  -4.851  0.00  0.00    -0.267 OA
BRANCH  15  18
ATOM     18  C   UNL d   1      31.207 -17.346  -7.628  0.00  0.00     0.069 A 
ATOM     19  C   UNL d   1      32.273 -16.809  -8.395  0.00  0.00     0.039 A 
ATOM     20  C   UNL d   1      33.336 -17.627  -8.841  0.00  0.00    -0.060 A 
ATOM     21  C   UNL d   1      33.346 -18.979  -8.503  0.00  0.00     0.009 A 
ATOM     22  C   UNL d   1      34.475 -17.100  -9.672  0.00  0.00     0.048 C 
ATOM     23  C   UNL d   1      32.316 -19.518  -7.756  0.00  0.00     0.039 A 
ATOM     24  C   UNL d   1      31.252 -18.726  -7.335  0.00  0.00     0.095 A 
BRANCH  24  25
ATOM     25  O   UNL d   1      30.187 -19.406  -6.827  0.00  0.00    -0.354 OA
ATOM     26  C   UNL d   1      30.405 -20.003  -5.545  0.00  0.00     0.210 C 
ENDBRANCH  24  25
ENDBRANCH  15  18
ENDBRANCH   1  14
BRANCH  12  27
ATOM     27  C   UNL d   1      27.362 -15.974  -2.251  0.00  0.00     0.034 C 
ATOM     28  C   UNL d   1      25.989 -15.951  -2.476  0.00  0.00     0.029 C 
ATOM     29  C   UNL d   1      25.163 -16.371  -1.443  0.00  0.00     0.002 C 
ATOM     30  C   UNL d   1      25.667 -16.466  -0.146  0.00  0.00     0.000 C 
ATOM     31  C   UNL d   1      27.024 -16.272   0.103  0.00  0.00     0.002 C 
ATOM     32  C   UNL d   1      27.895 -16.130  -0.969  0.00  0.00     0.029 C 
ENDBRANCH  12  27
BRANCH   4  33
ATOM     33  C   UNL d   1      28.665 -11.966  -8.433  0.00  0.00     0.205 C 
BRANCH  33  34
ATOM     34  O   UNL d   1      28.246 -12.950  -9.364  0.00  0.00    -0.396 OA
ATOM     35  H   UNL d   1      28.905 -13.666  -9.361  0.00  0.00     0.209 HD
ENDBRANCH  33  34
ENDBRANCH   4  33
TORSDOF 6
ENDMDL
MODEL 7
REMARK VINA RESULT:    -6.841      4.753      8.780
REMARK INTER + INTRA:         -10.470
REMARK INTER:                  -8.631
REMARK INTRA:                  -1.839
REMARK CONF_INDEPENDENT:        1.790
REMARK UNBOUND:                -1.839
REMARK  6 active torsions:
REMARK  status: ('A' for Active; 'I' for Inactive)
REMARK    1  A    between atoms: O_2  and  C_3 
REMARK    2  A    between atoms: C_9  and  N_10 
REMARK       I    between atoms: N_10  and  C_11 
REMARK    3  A    between atoms: C_11  and  C_13 
REMARK    4  A    between atoms: C_16  and  C_17 
REMARK    5  A    between atoms: C_17  and  O_18 
REMARK    6  A    between atoms: N_26  and  C_27 
ROOT
ATOM      1  C   UNL d   1      27.396 -12.158  -0.180  0.00  0.00     0.084 A 
ATOM      2  C   UNL d   1      26.807 -12.611  -1.297  0.00  0.00     0.036 A 
ATOM      3  C   UNL d   1      26.447 -14.007  -1.470  0.00  0.00     0.011 A 
ATOM      4  C   UNL d   1      25.852 -14.490  -2.647  0.00  0.00    -0.004 A 
ATOM      5  C   UNL d   1      25.579 -15.852  -2.681  0.00  0.00     0.127 A 
ATOM      6  N   UNL d   1      25.845 -16.713  -1.668  0.00  0.00    -0.262 NA
ATOM      7  C   UNL d   1      26.394 -16.220  -0.534  0.00  0.00     0.065 A 
ATOM      8  C   UNL d   1      26.656 -17.196   0.570  0.00  0.00     0.073 C 
ATOM      9  C   UNL d   1      26.710 -14.874  -0.409  0.00  0.00     0.113 A 
ATOM     10  O   UNL d   1      27.306 -14.399   0.785  0.00  0.00    -0.290 OA
ATOM     11  C   UNL d   1      27.609 -13.054   0.937  0.00  0.00     0.164 A 
ATOM     12  N   UNL d   1      27.876 -12.659   2.129  0.00  0.00    -0.336 N 
ATOM     13  H   UNL d   1      27.888 -11.662   2.363  0.00  0.00     0.168 HD
ENDROOT
BRANCH   1  14
ATOM     14  C   UNL d   1      27.416 -10.689  -0.070  0.00  0.00     0.260 C 
ATOM     15  N   UNL d   1      26.655  -9.965  -0.973  0.00  0.00    -0.320 N 
ATOM     16  H   UNL d   1      25.965 -10.437  -1.548  0.00  0.00     0.169 HD
ATOM     17  O   UNL d   1      28.190 -10.294   0.797  0.00  0.00    -0.267 OA
BRANCH  15  18
ATOM     18  C   UNL d   1      26.541  -8.527  -1.007  0.00  0.00     0.069 A 
ATOM     19  C   UNL d   1      27.291  -7.823  -1.984  0.00  0.00     0.039 A 
ATOM     20  C   UNL d   1      27.218  -6.415  -2.085  0.00  0.00    -0.060 A 
ATOM     21  C   UNL d   1      26.378  -5.711  -1.224  0.00  0.00     0.009 A 
ATOM     22  C   UNL d   1      28.011  -5.629  -3.095  0.00  0.00     0.048 C 
ATOM     23  C   UNL d   1      25.640  -6.382  -0.267  0.00  0.00     0.039 A 
ATOM     24  C   UNL d   1      25.726  -7.765  -0.143  0.00  0.00     0.095 A 
BRANCH  24  25
ATOM     25  O   UNL d   1      25.155  -8.285   0.979  0.00  0.00    -0.354 OA
ATOM     26  C   UNL d   1      26.057  -8.515   2.066  0.00  0.00     0.210 C 
ENDBRANCH  24  25
ENDBRANCH  15  18
ENDBRANCH   1  14
BRANCH  12  27
ATOM     27  C   UNL d   1      28.239 -13.517   3.162  0.00  0.00     0.034 C 
ATOM     28  C   UNL d   1      29.563 -13.947   3.169  0.00  0.00     0.029 C 
ATOM     29  C   UNL d   1      30.067 -14.451   4.359  0.00  0.00     0.002 C 
ATOM     30  C   UNL d   1      29.193 -14.831   5.378  0.00  0.00     0.000 C 
ATOM     31  C   UNL d   1      27.826 -14.588   5.266  0.00  0.00     0.002 C 
ATOM     32  C   UNL d   1      27.358 -13.831   4.200  0.00  0.00     0.029 C 
ENDBRANCH  12  27
BRANCH   4  33
ATOM     33  C   UNL d   1      25.528 -13.587  -3.811  0.00  0.00     0.205 C 
BRANCH  33  34
ATOM     34  O   UNL d   1      24.475 -14.076  -4.624  0.00  0.00    -0.396 OA
ATOM     35  H   UNL d   1      24.029 -13.312  -5.030  0.00  0.00     0.209 HD
ENDBRANCH  33  34
ENDBRANCH   4  33
TORSDOF 6
ENDMDL
MODEL 8
REMARK VINA RESULT:    -6.683      5.106      8.254
REMARK INTER + INTRA:         -10.356
REMARK INTER:                  -8.473
REMARK INTRA:                  -1.883
REMARK CONF_INDEPENDENT:        1.790
REMARK UNBOUND:                -1.883
REMARK  6 active torsions:
REMARK  status: ('A' for Active; 'I' for Inactive)
REMARK    1  A    between atoms: O_2  and  C_3 
REMARK    2  A    between atoms: C_9  and  N_10 
REMARK       I    between atoms: N_10  and  C_11 
REMARK    3  A    between atoms: C_11  and  C_13 
REMARK    4  A    between atoms: C_16  and  C_17 
REMARK    5  A    between atoms: C_17  and  O_18 
REMARK    6  A    between atoms: N_26  and  C_27 
ROOT
ATOM      1  C   UNL d   1      27.345 -11.946   0.152  0.00  0.00     0.084 A 
ATOM      2  C   UNL d   1      27.032 -10.664  -0.091  0.00  0.00     0.036 A 
ATOM      3  C   UNL d   1      26.937  -9.676   0.968  0.00  0.00     0.011 A 
ATOM      4  C   UNL d   1      26.585  -8.339   0.721  0.00  0.00    -0.004 A 
ATOM      5  C   UNL d   1      26.514  -7.508   1.833  0.00  0.00     0.127 A 
ATOM      6  N   UNL d   1      26.761  -7.907   3.104  0.00  0.00    -0.262 NA
ATOM      7  C   UNL d   1      27.123  -9.193   3.315  0.00  0.00     0.065 A 
ATOM      8  C   UNL d   1      27.406  -9.592   4.730  0.00  0.00     0.073 C 
ATOM      9  C   UNL d   1      27.214 -10.100   2.269  0.00  0.00     0.113 A 
ATOM     10  O   UNL d   1      27.573 -11.445   2.531  0.00  0.00    -0.290 OA
ATOM     11  C   UNL d   1      27.690 -12.360   1.497  0.00  0.00     0.164 A 
ATOM     12  N   UNL d   1      28.286 -13.463   1.772  0.00  0.00    -0.336 N 
ATOM     13  H   UNL d   1      28.610 -14.087   1.028  0.00  0.00     0.168 HD
ENDROOT
BRANCH   1  14
ATOM     14  C   UNL d   1      27.678 -12.719  -1.057  0.00  0.00     0.260 C 
ATOM     15  N   UNL d   1      26.716 -12.804  -2.050  0.00  0.00    -0.320 N 
ATOM     16  H   UNL d   1      25.905 -12.196  -2.025  0.00  0.00     0.169 HD
ATOM     17  O   UNL d   1      28.778 -13.257  -0.981  0.00  0.00    -0.267 OA
BRANCH  15  18
ATOM     18  C   UNL d   1      26.870 -13.502  -3.304  0.00  0.00     0.069 A 
ATOM     19  C   UNL d   1      27.984 -13.172  -4.117  0.00  0.00     0.039 A 
ATOM     20  C   UNL d   1      28.206 -13.826  -5.351  0.00  0.00    -0.060 A 
ATOM     21  C   UNL d   1      27.325 -14.825  -5.763  0.00  0.00     0.009 A 
ATOM     22  C   UNL d   1      29.365 -13.493  -6.252  0.00  0.00     0.048 C 
ATOM     23  C   UNL d   1      26.235 -15.159  -4.981  0.00  0.00     0.039 A 
ATOM     24  C   UNL d   1      25.995 -14.502  -3.778  0.00  0.00     0.095 A 
BRANCH  24  25
ATOM     25  O   UNL d   1      24.773 -14.736  -3.223  0.00  0.00    -0.354 OA
ATOM     26  C   UNL d   1      24.788 -15.557  -2.051  0.00  0.00     0.210 C 
ENDBRANCH  24  25
ENDBRANCH  15  18
ENDBRANCH   1  14
BRANCH  12  27
ATOM     27  C   UNL d   1      28.471 -13.936   3.068  0.00  0.00     0.034 C 
ATOM     28  C   UNL d   1      29.789 -14.148   3.463  0.00  0.00     0.029 C 
ATOM     29  C   UNL d   1      30.046 -14.220   4.825  0.00  0.00     0.002 C 
ATOM     30  C   UNL d   1      28.995 -14.425   5.720  0.00  0.00     0.000 C 
ATOM     31  C   UNL d   1      27.676 -14.425   5.275  0.00  0.00     0.002 C 
ATOM     32  C   UNL d   1      27.405 -14.073   3.959  0.00  0.00     0.029 C 
ENDBRANCH  12  27
BRANCH   4  33
ATOM     33  C   UNL d   1      26.299  -7.829  -0.670  0.00  0.00     0.205 C 
BRANCH  33  34
ATOM     34  O   UNL d   1      25.003  -7.272  -0.807  0.00  0.00    -0.396 OA
ATOM     35  H   UNL d   1      24.670  -7.499  -1.692  0.00  0.00     0.209 HD
ENDBRANCH  33  34
ENDBRANCH   4  33
TORSDOF 6
ENDMDL
MODEL 9
REMARK VINA RESULT:    -6.677      2.110      6.922
REMARK INTER + INTRA:         -10.301
REMARK INTER:                  -8.467
REMARK INTRA:                  -1.834
REMARK CONF_INDEPENDENT:        1.790
REMARK UNBOUND:                -1.834
REMARK  6 active torsions:
REMARK  status: ('A' for Active; 'I' for Inactive)
REMARK    1  A    between atoms: O_2  and  C_3 
REMARK    2  A    between atoms: C_9  and  N_10 
REMARK       I    between atoms: N_10  and  C_11 
REMARK    3  A    between atoms: C_11  and  C_13 
REMARK    4  A    between atoms: C_16  and  C_17 
REMARK    5  A    between atoms: C_17  and  O_18 
REMARK    6  A    between atoms: N_26  and  C_27 
ROOT
ATOM      1  C   UNL d   1      28.605 -15.213  -5.648  0.00  0.00     0.084 A 
ATOM      2  C   UNL d   1      28.626 -14.161  -6.482  0.00  0.00     0.036 A 
ATOM      3  C   UNL d   1      27.861 -12.955  -6.224  0.00  0.00     0.011 A 
ATOM      4  C   UNL d   1      27.859 -11.861  -7.105  0.00  0.00    -0.004 A 
ATOM      5  C   UNL d   1      27.066 -10.780  -6.740  0.00  0.00     0.127 A 
ATOM      6  N   UNL d   1      26.318 -10.726  -5.612  0.00  0.00    -0.262 NA
ATOM      7  C   UNL d   1      26.354 -11.780  -4.765  0.00  0.00     0.065 A 
ATOM      8  C   UNL d   1      25.530 -11.676  -3.520  0.00  0.00     0.073 C 
ATOM      9  C   UNL d   1      27.112 -12.908  -5.047  0.00  0.00     0.113 A 
ATOM     10  O   UNL d   1      27.106 -14.003  -4.148  0.00  0.00    -0.290 OA
ATOM     11  C   UNL d   1      27.873 -15.130  -4.402  0.00  0.00     0.164 A 
ATOM     12  N   UNL d   1      28.038 -15.943  -3.422  0.00  0.00    -0.336 N 
ATOM     13  H   UNL d   1      28.760 -16.668  -3.455  0.00  0.00     0.168 HD
ENDROOT
BRANCH   1  14
ATOM     14  C   UNL d   1      29.655 -16.210  -5.921  0.00  0.00     0.260 C 
ATOM     15  N   UNL d   1      30.180 -16.258  -7.201  0.00  0.00    -0.320 N 
ATOM     16  H   UNL d   1      29.988 -15.508  -7.857  0.00  0.00     0.169 HD
ATOM     17  O   UNL d   1      29.877 -16.933  -4.954  0.00  0.00    -0.267 OA
BRANCH  15  18
ATOM     18  C   UNL d   1      31.220 -17.155  -7.645  0.00  0.00     0.069 A 
ATOM     19  C   UNL d   1      30.952 -18.548  -7.621  0.00  0.00     0.039 A 
ATOM     20  C   UNL d   1      31.919 -19.484  -8.056  0.00  0.00    -0.060 A 
ATOM     21  C   UNL d   1      33.146 -19.027  -8.533  0.00  0.00     0.009 A 
ATOM     22  C   UNL d   1      31.682 -20.970  -8.030  0.00  0.00     0.048 C 
ATOM     23  C   UNL d   1      33.422 -17.673  -8.564  0.00  0.00     0.039 A 
ATOM     24  C   UNL d   1      32.487 -16.746  -8.114  0.00  0.00     0.095 A 
BRANCH  24  25
ATOM     25  O   UNL d   1      32.955 -15.477  -7.959  0.00  0.00    -0.354 OA
ATOM     26  C   UNL d   1      32.310 -14.491  -8.770  0.00  0.00     0.210 C 
ENDBRANCH  24  25
ENDBRANCH  15  18
ENDBRANCH   1  14
BRANCH  12  27
ATOM     27  C   UNL d   1      27.225 -15.964  -2.293  0.00  0.00     0.034 C 
ATOM     28  C   UNL d   1      25.852 -15.950  -2.522  0.00  0.00     0.029 C 
ATOM     29  C   UNL d   1      25.026 -16.371  -1.491  0.00  0.00     0.002 C 
ATOM     30  C   UNL d   1      25.527 -16.458  -0.191  0.00  0.00     0.000 C 
ATOM     31  C   UNL d   1      26.882 -16.255   0.061  0.00  0.00     0.002 C 
ATOM     32  C   UNL d   1      27.755 -16.112  -1.009  0.00  0.00     0.029 C 
ENDBRANCH  12  27
BRANCH   4  33
ATOM     33  C   UNL d   1      28.671 -11.856  -8.377  0.00  0.00     0.205 C 
BRANCH  33  34
ATOM     34  O   UNL d   1      28.343 -12.919  -9.256  0.00  0.00    -0.396 OA
ATOM     35  H   UNL d   1      29.134 -13.475  -9.362  0.00  0.00     0.209 HD
ENDBRANCH  33  34
ENDBRANCH   4  33
TORSDOF 6
ENDMDL
