MODEL 1
REMARK VINA RESULT:    -7.650      0.000      0.000
REMARK INTER + INTRA:          -9.559
REMARK INTER:                  -9.142
REMARK INTRA:                  -0.417
REMARK CONF_INDEPENDENT:        1.492
REMARK UNBOUND:                -0.417
REMARK  5 active torsions:
REMARK  status: ('A' for Active; 'I' for Inactive)
REMARK       I    between atoms: N_2  and  C_3 
REMARK    1  A    between atoms: C_3  and  C_5 
REMARK    2  A    between atoms: C_10  and  N_11 
REMARK    3  A    between atoms: N_11  and  C_12 
REMARK    4  A    between atoms: C_12  and  C_13 
REMARK    5  A    between atoms: C_17  and  O_18 
ROOT
ATOM      1  C   UNL d   1      22.503 -18.105  -0.786  0.00  0.00     0.034 A 
ATOM      2  C   UNL d   1      23.283 -19.108  -0.217  0.00  0.00     0.017 A 
ATOM      3  C   UNL d   1      24.663 -18.911  -0.072  0.00  0.00     0.010 A 
ATOM      4  C   UNL d   1      25.279 -17.726  -0.524  0.00  0.00    -0.036 A 
ATOM      5  C   UNL d   1      26.763 -17.545  -0.362  0.00  0.00     0.050 C 
ATOM      6  C   UNL d   1      24.495 -16.705  -1.081  0.00  0.00     0.035 A 
ATOM      7  C   UNL d   1      23.124 -16.913  -1.138  0.00  0.00     0.046 A 
ENDROOT
BRANCH   6   8
ATOM      8  N   UNL d   1      25.056 -15.575  -1.646  0.00  0.00    -0.385 N 
ATOM      9  H   UNL d   1      25.797 -15.133  -1.119  0.00  0.00     0.160 HD
BRANCH   8  10
ATOM     10  C   UNL d   1      24.403 -14.745  -2.657  0.00  0.00     0.158 C 
BRANCH  10  11
ATOM     11  C   UNL d   1      25.396 -14.155  -3.630  0.00  0.00    -0.038 A 
ATOM     12  C   UNL d   1      25.540 -12.765  -3.734  0.00  0.00     0.009 A 
ATOM     13  C   UNL d   1      26.426 -12.222  -4.665  0.00  0.00     0.003 A 
ATOM     14  C   UNL d   1      27.178 -13.062  -5.493  0.00  0.00     0.037 A 
ATOM     15  C   UNL d   1      27.047 -14.447  -5.401  0.00  0.00     0.068 A 
ATOM     16  C   UNL d   1      26.147 -14.972  -4.484  0.00  0.00     0.045 A 
BRANCH  15  17
ATOM     17  O   UNL d   1      27.818 -15.210  -6.237  0.00  0.00    -0.356 OA
ATOM     18  C   UNL d   1      29.231 -15.012  -6.137  0.00  0.00     0.210 C 
ENDBRANCH  15  17
ENDBRANCH  10  11
ENDBRANCH   8  10
ENDBRANCH   6   8
BRANCH   1  19
ATOM     19  C   UNL d   1      21.021 -18.216  -0.898  0.00  0.00     0.251 C 
ATOM     20  N   UNL d   1      20.408 -19.447  -0.703  0.00  0.00    -0.361 N 
ATOM     21  C   UNL d   1      20.531 -20.242   0.513  0.00  0.00     0.149 C 
ATOM     22  H   UNL d   1      19.467 -19.425  -1.076  0.00  0.00     0.162 HD
ATOM     23  O   UNL d   1      20.353 -17.251  -1.270  0.00  0.00    -0.268 OA
ENDBRANCH   1  19
TORSDOF 5
ENDMDL
MODEL 2
REMARK VINA RESULT:    -7.502      2.121      6.777
REMARK INTER + INTRA:          -9.692
REMARK INTER:                  -8.994
REMARK INTRA:                  -0.698
REMARK CONF_INDEPENDENT:        1.492
REMARK UNBOUND:                -0.698
REMARK  5 active torsions:
REMARK  status: ('A' for Active; 'I' for Inactive)
REMARK       I    between atoms: N_2  and  C_3 
REMARK    1  A    between atoms: C_3  and  C_5 
REMARK    2  A    between atoms: C_10  and  N_11 
REMARK    3  A    between atoms: N_11  and  C_12 
REMARK    4  A    between atoms: C_12  and  C_13 
REMARK    5  A    between atoms: C_17  and  O_18 
ROOT
ATOM      1  C   UNL d   1      27.264 -15.452  -3.497  0.00  0.00     0.034 A 
ATOM      2  C   UNL d   1      28.655 -15.397  -3.572  0.00  0.00     0.017 A 
ATOM      3  C   UNL d   1      29.424 -15.930  -2.529  0.00  0.00     0.010 A 
ATOM      4  C   UNL d   1      28.813 -16.490  -1.388  0.00  0.00    -0.036 A 
ATOM      5  C   UNL d   1      29.664 -17.048  -0.281  0.00  0.00     0.050 C 
ATOM      6  C   UNL d   1      27.414 -16.564  -1.316  0.00  0.00     0.035 A 
ATOM      7  C   UNL d   1      26.693 -16.092  -2.404  0.00  0.00     0.046 A 
ENDROOT
BRANCH   6   8
ATOM      8  N   UNL d   1      26.760 -16.994  -0.176  0.00  0.00    -0.385 N 
ATOM      9  H   UNL d   1      27.117 -16.642   0.702  0.00  0.00     0.160 HD
BRANCH   8  10
ATOM     10  C   UNL d   1      25.939 -18.200  -0.098  0.00  0.00     0.158 C 
BRANCH  10  11
ATOM     11  C   UNL d   1      24.488 -17.916  -0.406  0.00  0.00    -0.038 A 
ATOM     12  C   UNL d   1      24.032 -16.595  -0.495  0.00  0.00     0.009 A 
ATOM     13  C   UNL d   1      22.682 -16.335  -0.735  0.00  0.00     0.003 A 
ATOM     14  C   UNL d   1      21.780 -17.393  -0.895  0.00  0.00     0.037 A 
ATOM     15  C   UNL d   1      22.218 -18.713  -0.810  0.00  0.00     0.068 A 
ATOM     16  C   UNL d   1      23.560 -18.956  -0.551  0.00  0.00     0.045 A 
BRANCH  15  17
ATOM     17  O   UNL d   1      21.284 -19.699  -0.982  0.00  0.00    -0.356 OA
ATOM     18  C   UNL d   1      19.919 -19.295  -0.850  0.00  0.00     0.210 C 
ENDBRANCH  15  17
ENDBRANCH  10  11
ENDBRANCH   8  10
ENDBRANCH   6   8
BRANCH   1  19
ATOM     19  C   UNL d   1      26.388 -14.977  -4.604  0.00  0.00     0.251 C 
ATOM     20  N   UNL d   1      25.215 -14.296  -4.307  0.00  0.00    -0.361 N 
ATOM     21  C   UNL d   1      25.155 -13.066  -3.525  0.00  0.00     0.149 C 
ATOM     22  H   UNL d   1      24.609 -14.286  -5.118  0.00  0.00     0.162 HD
ATOM     23  O   UNL d   1      26.641 -15.281  -5.770  0.00  0.00    -0.268 OA
ENDBRANCH   1  19
TORSDOF 5
ENDMDL
MODEL 3
REMARK VINA RESULT:    -7.128      2.225      6.814
REMARK INTER + INTRA:          -9.211
REMARK INTER:                  -8.619
REMARK INTRA:                  -0.592
REMARK CONF_INDEPENDENT:        1.492
REMARK UNBOUND:                -0.592
REMARK  5 active torsions:
REMARK  status: ('A' for Active; 'I' for Inactive)
REMARK       I    between atoms: N_2  and  C_3 
REMARK    1  A    between atoms: C_3  and  C_5 
REMARK    2  A    between atoms: C_10  and  N_11 
REMARK    3  A    between atoms: N_11  and  C_12 
REMARK    4  A    between atoms: C_12  and  C_13 
REMARK    5  A    between atoms: C_17  and  O_18 
ROOT
ATOM      1  C   UNL d   1      26.367 -14.395  -2.771  0.00  0.00     0.034 A 
ATOM      2  C   UNL d   1      26.682 -13.188  -2.150  0.00  0.00     0.017 A 
ATOM      3  C   UNL d   1      27.035 -13.181  -0.793  0.00  0.00     0.010 A 
ATOM      4  C   UNL d   1      27.042 -14.372  -0.038  0.00  0.00    -0.036 A 
ATOM      5  C   UNL d   1      27.417 -14.334   1.417  0.00  0.00     0.050 C 
ATOM      6  C   UNL d   1      26.744 -15.592  -0.664  0.00  0.00     0.035 A 
ATOM      7  C   UNL d   1      26.473 -15.562  -2.024  0.00  0.00     0.046 A 
ENDROOT
BRANCH   6   8
ATOM      8  N   UNL d   1      26.621 -16.770   0.049  0.00  0.00    -0.385 N 
ATOM      9  H   UNL d   1      27.282 -16.908   0.802  0.00  0.00     0.160 HD
BRANCH   8  10
ATOM     10  C   UNL d   1      25.957 -17.973  -0.450  0.00  0.00     0.158 C 
BRANCH  10  11
ATOM     11  C   UNL d   1      24.473 -17.764  -0.634  0.00  0.00    -0.038 A 
ATOM     12  C   UNL d   1      23.922 -16.481  -0.516  0.00  0.00     0.009 A 
ATOM     13  C   UNL d   1      22.545 -16.298  -0.643  0.00  0.00     0.003 A 
ATOM     14  C   UNL d   1      21.709 -17.391  -0.895  0.00  0.00     0.037 A 
ATOM     15  C   UNL d   1      22.242 -18.673  -1.016  0.00  0.00     0.068 A 
ATOM     16  C   UNL d   1      23.611 -18.844  -0.867  0.00  0.00     0.045 A 
BRANCH  15  17
ATOM     17  O   UNL d   1      21.368 -19.697  -1.269  0.00  0.00    -0.356 OA
ATOM     18  C   UNL d   1      20.039 -19.521  -0.770  0.00  0.00     0.210 C 
ENDBRANCH  15  17
ENDBRANCH  10  11
ENDBRANCH   8  10
ENDBRANCH   6   8
BRANCH   1  19
ATOM     19  C   UNL d   1      26.061 -14.485  -4.226  0.00  0.00     0.251 C 
ATOM     20  N   UNL d   1      27.086 -14.347  -5.153  0.00  0.00    -0.361 N 
ATOM     21  C   UNL d   1      28.276 -15.190  -5.193  0.00  0.00     0.149 C 
ATOM     22  H   UNL d   1      26.698 -14.156  -6.069  0.00  0.00     0.162 HD
ATOM     23  O   UNL d   1      24.895 -14.569  -4.611  0.00  0.00    -0.268 OA
ENDBRANCH   1  19
TORSDOF 5
ENDMDL
MODEL 4
REMARK VINA RESULT:    -6.858      1.207      1.964
REMARK INTER + INTRA:          -8.740
REMARK INTER:                  -8.349
REMARK INTRA:                  -0.390
REMARK CONF_INDEPENDENT:        1.492
REMARK UNBOUND:                -0.390
REMARK  5 active torsions:
REMARK  status: ('A' for Active; 'I' for Inactive)
REMARK       I    between atoms: N_2  and  C_3 
REMARK    1  A    between atoms: C_3  and  C_5 
REMARK    2  A    between atoms: C_10  and  N_11 
REMARK    3  A    between atoms: N_11  and  C_12 
REMARK    4  A    between atoms: C_12  and  C_13 
REMARK    5  A    between atoms: C_17  and  O_18 
ROOT
ATOM      1  C   UNL d   1      22.743 -17.906  -0.724  0.00  0.00     0.034 A 
ATOM      2  C   UNL d   1      23.485 -18.797   0.048  0.00  0.00     0.017 A 
ATOM      3  C   UNL d   1      24.857 -18.575   0.232  0.00  0.00     0.010 A 
ATOM      4  C   UNL d   1      25.504 -17.482  -0.380  0.00  0.00    -0.036 A 
ATOM      5  C   UNL d   1      26.978 -17.272  -0.171  0.00  0.00     0.050 C 
ATOM      6  C   UNL d   1      24.758 -16.572  -1.143  0.00  0.00     0.035 A 
ATOM      7  C   UNL d   1      23.391 -16.789  -1.238  0.00  0.00     0.046 A 
ENDROOT
BRANCH   6   8
ATOM      8  N   UNL d   1      25.356 -15.552  -1.861  0.00  0.00    -0.385 N 
ATOM      9  H   UNL d   1      26.239 -15.213  -1.502  0.00  0.00     0.160 HD
BRANCH   8  10
ATOM     10  C   UNL d   1      24.648 -14.659  -2.776  0.00  0.00     0.158 C 
BRANCH  10  11
ATOM     11  C   UNL d   1      25.563 -14.099  -3.838  0.00  0.00    -0.038 A 
ATOM     12  C   UNL d   1      26.443 -14.943  -4.527  0.00  0.00     0.009 A 
ATOM     13  C   UNL d   1      27.318 -14.415  -5.477  0.00  0.00     0.003 A 
ATOM     14  C   UNL d   1      27.316 -13.043  -5.751  0.00  0.00     0.037 A 
ATOM     15  C   UNL d   1      26.446 -12.190  -5.075  0.00  0.00     0.068 A 
ATOM     16  C   UNL d   1      25.595 -12.727  -4.118  0.00  0.00     0.045 A 
BRANCH  15  17
ATOM     17  O   UNL d   1      26.492 -10.860  -5.395  0.00  0.00    -0.356 OA
ATOM     18  C   UNL d   1      25.580 -10.430  -6.409  0.00  0.00     0.210 C 
ENDBRANCH  15  17
ENDBRANCH  10  11
ENDBRANCH   8  10
ENDBRANCH   6   8
BRANCH   1  19
ATOM     19  C   UNL d   1      21.269 -18.038  -0.895  0.00  0.00     0.251 C 
ATOM     20  N   UNL d   1      20.670 -19.282  -0.753  0.00  0.00    -0.361 N 
ATOM     21  C   UNL d   1      20.759 -20.104   0.449  0.00  0.00     0.149 C 
ATOM     22  H   UNL d   1      19.743 -19.266  -1.161  0.00  0.00     0.162 HD
ATOM     23  O   UNL d   1      20.599 -17.075  -1.270  0.00  0.00    -0.268 OA
ENDBRANCH   1  19
TORSDOF 5
ENDMDL
MODEL 5
REMARK VINA RESULT:    -6.679      2.789      7.037
REMARK INTER + INTRA:          -8.833
REMARK INTER:                  -8.171
REMARK INTRA:                  -0.663
REMARK CONF_INDEPENDENT:        1.492
REMARK UNBOUND:                -0.663
REMARK  5 active torsions:
REMARK  status: ('A' for Active; 'I' for Inactive)
REMARK       I    between atoms: N_2  and  C_3 
REMARK    1  A    between atoms: C_3  and  C_5 
REMARK    2  A    between atoms: C_10  and  N_11 
REMARK    3  A    between atoms: N_11  and  C_12 
REMARK    4  A    between atoms: C_12  and  C_13 
REMARK    5  A    between atoms: C_17  and  O_18 
ROOT
ATOM      1  C   UNL d   1      26.751 -14.269  -4.588  0.00  0.00     0.034 A 
ATOM      2  C   UNL d   1      27.423 -14.400  -5.801  0.00  0.00     0.017 A 
ATOM      3  C   UNL d   1      28.569 -15.204  -5.873  0.00  0.00     0.010 A 
ATOM      4  C   UNL d   1      29.071 -15.855  -4.727  0.00  0.00    -0.036 A 
ATOM      5  C   UNL d   1      30.307 -16.706  -4.832  0.00  0.00     0.050 C 
ATOM      6  C   UNL d   1      28.387 -15.741  -3.508  0.00  0.00     0.035 A 
ATOM      7  C   UNL d   1      27.217 -14.995  -3.500  0.00  0.00     0.046 A 
ENDROOT
BRANCH   6   8
ATOM      8  N   UNL d   1      28.896 -16.258  -2.331  0.00  0.00    -0.385 N 
ATOM      9  H   UNL d   1      29.370 -17.149  -2.403  0.00  0.00     0.160 HD
BRANCH   8  10
ATOM     10  C   UNL d   1      28.437 -15.882  -0.995  0.00  0.00     0.158 C 
BRANCH  10  11
ATOM     11  C   UNL d   1      27.228 -16.678  -0.568  0.00  0.00    -0.038 A 
ATOM     12  C   UNL d   1      27.381 -17.816   0.234  0.00  0.00     0.009 A 
ATOM     13  C   UNL d   1      26.266 -18.575   0.591  0.00  0.00     0.003 A 
ATOM     14  C   UNL d   1      24.990 -18.200   0.155  0.00  0.00     0.037 A 
ATOM     15  C   UNL d   1      24.821 -17.069  -0.642  0.00  0.00     0.068 A 
ATOM     16  C   UNL d   1      25.942 -16.335  -1.006  0.00  0.00     0.045 A 
BRANCH  15  17
ATOM     17  O   UNL d   1      23.545 -16.756  -1.028  0.00  0.00    -0.356 OA
ATOM     18  C   UNL d   1      22.507 -17.560  -0.463  0.00  0.00     0.210 C 
ENDBRANCH  15  17
ENDBRANCH  10  11
ENDBRANCH   8  10
ENDBRANCH   6   8
BRANCH   1  19
ATOM     19  C   UNL d   1      25.484 -13.495  -4.459  0.00  0.00     0.251 C 
ATOM     20  N   UNL d   1      25.528 -12.107  -4.421  0.00  0.00    -0.361 N 
ATOM     21  C   UNL d   1      26.111 -11.275  -5.468  0.00  0.00     0.149 C 
ATOM     22  H   UNL d   1      24.653 -11.745  -4.061  0.00  0.00     0.162 HD
ATOM     23  O   UNL d   1      24.416 -14.079  -4.275  0.00  0.00    -0.268 OA
ENDBRANCH   1  19
TORSDOF 5
ENDMDL
MODEL 6
REMARK VINA RESULT:    -6.670      2.444      7.574
REMARK INTER + INTRA:          -8.684
REMARK INTER:                  -8.161
REMARK INTRA:                  -0.523
REMARK CONF_INDEPENDENT:        1.492
REMARK UNBOUND:                -0.523
REMARK  5 active torsions:
REMARK  status: ('A' for Active; 'I' for Inactive)
REMARK       I    between atoms: N_2  and  C_3 
REMARK    1  A    between atoms: C_3  and  C_5 
REMARK    2  A    between atoms: C_10  and  N_11 
REMARK    3  A    between atoms: N_11  and  C_12 
REMARK    4  A    between atoms: C_12  and  C_13 
REMARK    5  A    between atoms: C_17  and  O_18 
ROOT
ATOM      1  C   UNL d   1      29.030 -15.828  -4.600  0.00  0.00     0.034 A 
ATOM      2  C   UNL d   1      30.107 -16.595  -4.161  0.00  0.00     0.017 A 
ATOM      3  C   UNL d   1      30.156 -17.014  -2.824  0.00  0.00     0.010 A 
ATOM      4  C   UNL d   1      29.150 -16.644  -1.909  0.00  0.00    -0.036 A 
ATOM      5  C   UNL d   1      29.232 -17.102  -0.480  0.00  0.00     0.050 C 
ATOM      6  C   UNL d   1      28.054 -15.887  -2.352  0.00  0.00     0.035 A 
ATOM      7  C   UNL d   1      28.009 -15.557  -3.698  0.00  0.00     0.046 A 
ENDROOT
BRANCH   6   8
ATOM      8  N   UNL d   1      27.101 -15.397  -1.478  0.00  0.00    -0.385 N 
ATOM      9  H   UNL d   1      27.349 -15.404  -0.497  0.00  0.00     0.160 HD
BRANCH   8  10
ATOM     10  C   UNL d   1      25.674 -15.303  -1.779  0.00  0.00     0.158 C 
BRANCH  10  11
ATOM     11  C   UNL d   1      24.889 -16.430  -1.152  0.00  0.00    -0.038 A 
ATOM     12  C   UNL d   1      25.554 -17.461  -0.475  0.00  0.00     0.009 A 
ATOM     13  C   UNL d   1      24.829 -18.524   0.065  0.00  0.00     0.003 A 
ATOM     14  C   UNL d   1      23.436 -18.561  -0.060  0.00  0.00     0.037 A 
ATOM     15  C   UNL d   1      22.760 -17.543  -0.729  0.00  0.00     0.068 A 
ATOM     16  C   UNL d   1      23.496 -16.502  -1.278  0.00  0.00     0.045 A 
BRANCH  15  17
ATOM     17  O   UNL d   1      21.396 -17.639  -0.809  0.00  0.00    -0.356 OA
ATOM     18  C   UNL d   1      20.869 -18.964  -0.907  0.00  0.00     0.210 C 
ENDBRANCH  15  17
ENDBRANCH  10  11
ENDBRANCH   8  10
ENDBRANCH   6   8
BRANCH   1  19
ATOM     19  C   UNL d   1      28.875 -15.415  -6.024  0.00  0.00     0.251 C 
ATOM     20  N   UNL d   1      30.004 -15.235  -6.813  0.00  0.00    -0.361 N 
ATOM     21  C   UNL d   1      31.007 -16.264  -7.059  0.00  0.00     0.149 C 
ATOM     22  H   UNL d   1      29.763 -14.702  -7.640  0.00  0.00     0.162 HD
ATOM     23  O   UNL d   1      27.764 -15.128  -6.469  0.00  0.00    -0.268 OA
ENDBRANCH   1  19
TORSDOF 5
ENDMDL
MODEL 7
REMARK VINA RESULT:    -6.570      2.502      7.812
REMARK INTER + INTRA:          -8.551
REMARK INTER:                  -8.062
REMARK INTRA:                  -0.489
REMARK CONF_INDEPENDENT:        1.492
REMARK UNBOUND:                -0.489
REMARK  5 active torsions:
REMARK  status: ('A' for Active; 'I' for Inactive)
REMARK       I    between atoms: N_2  and  C_3 
REMARK    1  A    between atoms: C_3  and  C_5 
REMARK    2  A    between atoms: C_10  and  N_11 
REMARK    3  A    between atoms: N_11  and  C_12 
REMARK    4  A    between atoms: C_12  and  C_13 
REMARK    5  A    between atoms: C_17  and  O_18 
ROOT
ATOM      1  C   UNL d   1      25.840 -11.120  -4.273  0.00  0.00     0.034 A 
ATOM      2  C   UNL d   1      26.779 -11.473  -5.240  0.00  0.00     0.017 A 
ATOM      3  C   UNL d   1      27.086 -12.826  -5.442  0.00  0.00     0.010 A 
ATOM      4  C   UNL d   1      26.484 -13.832  -4.659  0.00  0.00    -0.036 A 
ATOM      5  C   UNL d   1      26.838 -15.275  -4.894  0.00  0.00     0.050 C 
ATOM      6  C   UNL d   1      25.524 -13.483  -3.698  0.00  0.00     0.035 A 
ATOM      7  C   UNL d   1      25.197 -12.140  -3.583  0.00  0.00     0.046 A 
ENDROOT
BRANCH   6   8
ATOM      8  N   UNL d   1      24.990 -14.412  -2.825  0.00  0.00    -0.385 N 
ATOM      9  H   UNL d   1      23.980 -14.447  -2.774  0.00  0.00     0.160 HD
BRANCH   8  10
ATOM     10  C   UNL d   1      25.711 -14.995  -1.695  0.00  0.00     0.158 C 
BRANCH  10  11
ATOM     11  C   UNL d   1      25.008 -16.214  -1.146  0.00  0.00    -0.038 A 
ATOM     12  C   UNL d   1      25.746 -17.237  -0.537  0.00  0.00     0.009 A 
ATOM     13  C   UNL d   1      25.099 -18.382  -0.069  0.00  0.00     0.003 A 
ATOM     14  C   UNL d   1      23.712 -18.510  -0.201  0.00  0.00     0.037 A 
ATOM     15  C   UNL d   1      22.964 -17.500  -0.803  0.00  0.00     0.068 A 
ATOM     16  C   UNL d   1      23.624 -16.376  -1.281  0.00  0.00     0.045 A 
BRANCH  15  17
ATOM     17  O   UNL d   1      21.611 -17.687  -0.893  0.00  0.00    -0.356 OA
ATOM     18  C   UNL d   1      21.123 -18.950  -0.431  0.00  0.00     0.210 C 
ENDBRANCH  15  17
ENDBRANCH  10  11
ENDBRANCH   8  10
ENDBRANCH   6   8
BRANCH   1  19
ATOM     19  C   UNL d   1      25.409  -9.710  -4.060  0.00  0.00     0.251 C 
ATOM     20  N   UNL d   1      25.336  -9.201  -2.770  0.00  0.00    -0.361 N 
ATOM     21  C   UNL d   1      26.458  -9.162  -1.839  0.00  0.00     0.149 C 
ATOM     22  H   UNL d   1      24.780  -8.355  -2.765  0.00  0.00     0.162 HD
ATOM     23  O   UNL d   1      25.013  -9.032  -5.009  0.00  0.00    -0.268 OA
ENDBRANCH   1  19
TORSDOF 5
ENDMDL
MODEL 8
REMARK VINA RESULT:    -6.267      3.076      4.979
REMARK INTER + INTRA:          -8.613
REMARK INTER:                  -7.758
REMARK INTRA:                  -0.855
REMARK CONF_INDEPENDENT:        1.492
REMARK UNBOUND:                -0.855
REMARK  5 active torsions:
REMARK  status: ('A' for Active; 'I' for Inactive)
REMARK       I    between atoms: N_2  and  C_3 
REMARK    1  A    between atoms: C_3  and  C_5 
REMARK    2  A    between atoms: C_10  and  N_11 
REMARK    3  A    between atoms: N_11  and  C_12 
REMARK    4  A    between atoms: C_12  and  C_13 
REMARK    5  A    between atoms: C_17  and  O_18 
ROOT
ATOM      1  C   UNL d   1      25.416 -15.413  -2.463  0.00  0.00     0.034 A 
ATOM      2  C   UNL d   1      24.402 -15.983  -1.697  0.00  0.00     0.017 A 
ATOM      3  C   UNL d   1      24.732 -16.877  -0.668  0.00  0.00     0.010 A 
ATOM      4  C   UNL d   1      26.074 -17.234  -0.420  0.00  0.00    -0.036 A 
ATOM      5  C   UNL d   1      26.398 -18.200   0.686  0.00  0.00     0.050 C 
ATOM      6  C   UNL d   1      27.100 -16.648  -1.176  0.00  0.00     0.035 A 
ATOM      7  C   UNL d   1      26.732 -15.714  -2.134  0.00  0.00     0.046 A 
ENDROOT
BRANCH   6   8
ATOM      8  N   UNL d   1      28.418 -17.047  -1.057  0.00  0.00    -0.385 N 
ATOM      9  H   UNL d   1      28.627 -17.676  -0.293  0.00  0.00     0.160 HD
BRANCH   8  10
ATOM     10  C   UNL d   1      29.556 -16.322  -1.620  0.00  0.00     0.158 C 
BRANCH  10  11
ATOM     11  C   UNL d   1      29.701 -16.564  -3.103  0.00  0.00    -0.038 A 
ATOM     12  C   UNL d   1      30.552 -17.572  -3.573  0.00  0.00     0.009 A 
ATOM     13  C   UNL d   1      30.718 -17.764  -4.945  0.00  0.00     0.003 A 
ATOM     14  C   UNL d   1      30.030 -16.956  -5.857  0.00  0.00     0.037 A 
ATOM     15  C   UNL d   1      29.178 -15.950  -5.406  0.00  0.00     0.068 A 
ATOM     16  C   UNL d   1      29.039 -15.757  -4.038  0.00  0.00     0.045 A 
BRANCH  15  17
ATOM     17  O   UNL d   1      28.531 -15.200  -6.352  0.00  0.00    -0.356 OA
ATOM     18  C   UNL d   1      27.777 -14.090  -5.859  0.00  0.00     0.210 C 
ENDBRANCH  15  17
ENDBRANCH  10  11
ENDBRANCH   8  10
ENDBRANCH   6   8
BRANCH   1  19
ATOM     19  C   UNL d   1      25.141 -14.398  -3.518  0.00  0.00     0.251 C 
ATOM     20  N   UNL d   1      25.155 -13.048  -3.192  0.00  0.00    -0.361 N 
ATOM     21  C   UNL d   1      26.297 -12.356  -2.606  0.00  0.00     0.149 C 
ATOM     22  H   UNL d   1      24.690 -12.515  -3.917  0.00  0.00     0.162 HD
ATOM     23  O   UNL d   1      24.794 -14.752  -4.645  0.00  0.00    -0.268 OA
ENDBRANCH   1  19
TORSDOF 5
ENDMDL
MODEL 9
REMARK VINA RESULT:    -6.071      3.883      6.426
REMARK INTER + INTRA:          -8.556
REMARK INTER:                  -7.563
REMARK INTRA:                  -0.993
REMARK CONF_INDEPENDENT:        1.492
REMARK UNBOUND:                -0.993
REMARK  5 active torsions:
REMARK  status: ('A' for Active; 'I' for Inactive)
REMARK       I    between atoms: N_2  and  C_3 
REMARK    1  A    between atoms: C_3  and  C_5 
REMARK    2  A    between atoms: C_10  and  N_11 
REMARK    3  A    between atoms: N_11  and  C_12 
REMARK    4  A    between atoms: C_12  and  C_13 
REMARK    5  A    between atoms: C_17  and  O_18 
ROOT
ATOM      1  C   UNL d   1      25.440 -15.413  -2.466  0.00  0.00     0.034 A 
ATOM      2  C   UNL d   1      24.412 -16.197  -1.945  0.00  0.00     0.017 A 
ATOM      3  C   UNL d   1      24.686 -17.089  -0.899  0.00  0.00     0.010 A 
ATOM      4  C   UNL d   1      25.993 -17.230  -0.388  0.00  0.00    -0.036 A 
ATOM      5  C   UNL d   1      26.259 -18.200   0.729  0.00  0.00     0.050 C 
ATOM      6  C   UNL d   1      27.027 -16.430  -0.896  0.00  0.00     0.035 A 
ATOM      7  C   UNL d   1      26.696 -15.508  -1.880  0.00  0.00     0.046 A 
ENDROOT
BRANCH   6   8
ATOM      8  N   UNL d   1      28.345 -16.607  -0.518  0.00  0.00    -0.385 N 
ATOM      9  H   UNL d   1      28.632 -17.559  -0.331  0.00  0.00     0.160 HD
BRANCH   8  10
ATOM     10  C   UNL d   1      29.190 -15.559   0.050  0.00  0.00     0.158 C 
BRANCH  10  11
ATOM     11  C   UNL d   1      28.395 -14.580   0.881  0.00  0.00    -0.038 A 
ATOM     12  C   UNL d   1      27.929 -13.388   0.311  0.00  0.00     0.009 A 
ATOM     13  C   UNL d   1      27.233 -12.465   1.093  0.00  0.00     0.003 A 
ATOM     14  C   UNL d   1      26.990 -12.730   2.445  0.00  0.00     0.037 A 
ATOM     15  C   UNL d   1      27.445 -13.912   3.026  0.00  0.00     0.068 A 
ATOM     16  C   UNL d   1      28.155 -14.811   2.241  0.00  0.00     0.045 A 
BRANCH  15  17
ATOM     17  O   UNL d   1      27.168 -14.109   4.353  0.00  0.00    -0.356 OA
ATOM     18  C   UNL d   1      28.159 -14.823   5.097  0.00  0.00     0.210 C 
ENDBRANCH  15  17
ENDBRANCH  10  11
ENDBRANCH   8  10
ENDBRANCH   6   8
BRANCH   1  19
ATOM     19  C   UNL d   1      25.203 -14.390  -3.522  0.00  0.00     0.251 C 
ATOM     20  N   UNL d   1      25.181 -13.044  -3.181  0.00  0.00    -0.361 N 
ATOM     21  C   UNL d   1      26.282 -12.342  -2.532  0.00  0.00     0.149 C 
ATOM     22  H   UNL d   1      24.745 -12.509  -3.923  0.00  0.00     0.162 HD
ATOM     23  O   UNL d   1      24.919 -14.736  -4.669  0.00  0.00    -0.268 OA
ENDBRANCH   1  19
TORSDOF 5
ENDMDL
