MODEL 1
REMARK VINA RESULT:    -7.712      0.000      0.000
REMARK INTER + INTRA:         -10.356
REMARK INTER:                  -9.502
REMARK INTRA:                  -0.854
REMARK CONF_INDEPENDENT:        1.790
REMARK UNBOUND:                -0.854
REMARK  6 active torsions:
REMARK  status: ('A' for Active; 'I' for Inactive)
REMARK    1  A    between atoms: O_2  and  N_3 
REMARK       I    between atoms: N_3  and  C_4 
REMARK       I    between atoms: C_4  and  N_6 
REMARK    2  A    between atoms: C_7  and  N_6 
REMARK    3  A    between atoms: C_7  and  C_9 
REMARK    4  A    between atoms: C_12  and  O_13 
REMARK    5  A    between atoms: O_13  and  C_14 
REMARK    6  A    between atoms: C_19  and  O_20 
ROOT
ATOM      1  C   UNL d   1      25.008 -15.986  -1.803  0.00  0.00    -0.033 A 
ATOM      2  C   UNL d   1      23.619 -15.888  -1.645  0.00  0.00     0.012 A 
ATOM      3  C   UNL d   1      22.936 -16.819  -0.852  0.00  0.00     0.040 A 
ATOM      4  C   UNL d   1      23.625 -17.895  -0.273  0.00  0.00     0.102 A 
ATOM      5  C   UNL d   1      25.022 -17.955  -0.414  0.00  0.00     0.102 A 
ATOM      6  C   UNL d   1      25.680 -17.027  -1.181  0.00  0.00     0.049 A 
ENDROOT
BRANCH   1   7
ATOM      7  C   UNL d   1      25.836 -14.911  -2.457  0.00  0.00     0.115 C 
ATOM      8  C   UNL d   1      26.931 -14.504  -1.466  0.00  0.00     0.037 C 
BRANCH   7   9
ATOM      9  N   UNL d   1      26.428 -15.352  -3.720  0.00  0.00    -0.333 N 
ATOM     10  C   UNL d   1      26.662 -14.616  -4.835  0.00  0.00     0.340 C 
ATOM     11  N   UNL d   1      26.438 -13.286  -4.712  0.00  0.00    -0.217 N 
ATOM     12  O   UNL d   1      27.037 -15.200  -5.855  0.00  0.00    -0.245 OA
ATOM     13  H   UNL d   1      26.356 -12.847  -3.810  0.00  0.00     0.199 HD
ATOM     14  H   UNL d   1      26.668 -16.321  -3.876  0.00  0.00     0.165 HD
BRANCH  11  15
ATOM     15  O   UNL d   1      26.742 -12.465  -5.813  0.00  0.00    -0.281 OA
ATOM     16  C   UNL d   1      25.904 -11.317  -5.764  0.00  0.00     0.237 C 
ENDBRANCH  11  15
ENDBRANCH   7   9
ENDBRANCH   1   7
BRANCH   5  17
ATOM     17  O   UNL d   1      25.754 -18.889   0.241  0.00  0.00    -0.353 OA
ATOM     18  C   UNL d   1      26.658 -18.575   1.282  0.00  0.00     0.210 C 
ENDBRANCH   5  17
BRANCH   4  19
ATOM     19  O   UNL d   1      22.816 -18.800   0.367  0.00  0.00    -0.343 OA
BRANCH  19  20
ATOM     20  C   UNL d   1      21.405 -18.786   0.146  0.00  0.00     0.129 C 
ATOM     21  C   UNL d   1      20.928 -19.157  -1.269  0.00  0.00     0.032 C 
ATOM     22  C   UNL d   1      19.514 -19.690  -1.053  0.00  0.00     0.002 C 
ATOM     23  C   UNL d   1      19.368 -20.071   0.433  0.00  0.00     0.002 C 
ATOM     24  C   UNL d   1      20.632 -19.632   1.165  0.00  0.00     0.032 C 
ENDBRANCH  19  20
ENDBRANCH   4  19
TORSDOF 6
ENDMDL
MODEL 2
REMARK VINA RESULT:    -7.428      2.734      7.846
REMARK INTER + INTRA:         -10.416
REMARK INTER:                  -9.218
REMARK INTRA:                  -1.198
REMARK CONF_INDEPENDENT:        1.790
REMARK UNBOUND:                -1.198
REMARK  6 active torsions:
REMARK  status: ('A' for Active; 'I' for Inactive)
REMARK    1  A    between atoms: O_2  and  N_3 
REMARK       I    between atoms: N_3  and  C_4 
REMARK       I    between atoms: C_4  and  N_6 
REMARK    2  A    between atoms: C_7  and  N_6 
REMARK    3  A    between atoms: C_7  and  C_9 
REMARK    4  A    between atoms: C_12  and  O_13 
REMARK    5  A    between atoms: O_13  and  C_14 
REMARK    6  A    between atoms: C_19  and  O_20 
ROOT
ATOM      1  C   UNL d   1      25.106 -17.152  -1.238  0.00  0.00    -0.033 A 
ATOM      2  C   UNL d   1      26.289 -16.822  -0.564  0.00  0.00     0.012 A 
ATOM      3  C   UNL d   1      27.110 -15.797  -1.051  0.00  0.00     0.040 A 
ATOM      4  C   UNL d   1      26.791 -15.145  -2.251  0.00  0.00     0.102 A 
ATOM      5  C   UNL d   1      25.582 -15.467  -2.892  0.00  0.00     0.102 A 
ATOM      6  C   UNL d   1      24.780 -16.463  -2.395  0.00  0.00     0.049 A 
ENDROOT
BRANCH   1   7
ATOM      7  C   UNL d   1      24.072 -18.088  -0.667  0.00  0.00     0.115 C 
ATOM      8  C   UNL d   1      24.332 -18.200   0.839  0.00  0.00     0.037 C 
BRANCH   7   9
ATOM      9  N   UNL d   1      22.705 -17.631  -0.917  0.00  0.00    -0.333 N 
ATOM     10  C   UNL d   1      21.554 -18.339  -0.807  0.00  0.00     0.340 C 
ATOM     11  N   UNL d   1      21.681 -19.578  -0.276  0.00  0.00    -0.217 N 
ATOM     12  O   UNL d   1      20.506 -17.821  -1.202  0.00  0.00    -0.245 OA
ATOM     13  H   UNL d   1      22.508 -19.852   0.229  0.00  0.00     0.199 HD
ATOM     14  H   UNL d   1      22.520 -16.703  -1.271  0.00  0.00     0.165 HD
BRANCH  11  15
ATOM     15  O   UNL d   1      20.509 -20.326  -0.064  0.00  0.00    -0.281 OA
ATOM     16  C   UNL d   1      19.932 -19.919   1.171  0.00  0.00     0.237 C 
ENDBRANCH  11  15
ENDBRANCH   7   9
ENDBRANCH   1   7
BRANCH   5  17
ATOM     17  O   UNL d   1      25.155 -14.772  -3.974  0.00  0.00    -0.353 OA
ATOM     18  C   UNL d   1      24.974 -13.369  -3.972  0.00  0.00     0.210 C 
ENDBRANCH   5  17
BRANCH   4  19
ATOM     19  O   UNL d   1      27.745 -14.255  -2.677  0.00  0.00    -0.343 OA
BRANCH  19  20
ATOM     20  C   UNL d   1      28.611 -14.593  -3.761  0.00  0.00     0.129 C 
ATOM     21  C   UNL d   1      29.100 -16.051  -3.821  0.00  0.00     0.032 C 
ATOM     22  C   UNL d   1      29.398 -16.279  -5.300  0.00  0.00     0.002 C 
ATOM     23  C   UNL d   1      28.659 -15.196  -6.111  0.00  0.00     0.002 C 
ATOM     24  C   UNL d   1      28.033 -14.210  -5.129  0.00  0.00     0.032 C 
ENDBRANCH  19  20
ENDBRANCH   4  19
TORSDOF 6
ENDMDL
MODEL 3
REMARK VINA RESULT:    -7.378      3.531      5.251
REMARK INTER + INTRA:         -10.124
REMARK INTER:                  -9.167
REMARK INTRA:                  -0.957
REMARK CONF_INDEPENDENT:        1.790
REMARK UNBOUND:                -0.957
REMARK  6 active torsions:
REMARK  status: ('A' for Active; 'I' for Inactive)
REMARK    1  A    between atoms: O_2  and  N_3 
REMARK       I    between atoms: N_3  and  C_4 
REMARK       I    between atoms: C_4  and  N_6 
REMARK    2  A    between atoms: C_7  and  N_6 
REMARK    3  A    between atoms: C_7  and  C_9 
REMARK    4  A    between atoms: C_12  and  O_13 
REMARK    5  A    between atoms: O_13  and  C_14 
REMARK    6  A    between atoms: C_19  and  O_20 
ROOT
ATOM      1  C   UNL d   1      26.286 -16.652   0.310  0.00  0.00    -0.033 A 
ATOM      2  C   UNL d   1      25.998 -18.017   0.431  0.00  0.00     0.012 A 
ATOM      3  C   UNL d   1      24.925 -18.572  -0.278  0.00  0.00     0.040 A 
ATOM      4  C   UNL d   1      24.091 -17.755  -1.053  0.00  0.00     0.102 A 
ATOM      5  C   UNL d   1      24.418 -16.394  -1.190  0.00  0.00     0.102 A 
ATOM      6  C   UNL d   1      25.482 -15.867  -0.502  0.00  0.00     0.049 A 
ENDROOT
BRANCH   1   7
ATOM      7  C   UNL d   1      27.540 -16.026   0.866  0.00  0.00     0.115 C 
ATOM      8  C   UNL d   1      28.633 -16.158  -0.199  0.00  0.00     0.037 C 
BRANCH   7   9
ATOM      9  N   UNL d   1      27.350 -14.623   1.234  0.00  0.00    -0.333 N 
ATOM     10  C   UNL d   1      27.742 -13.997   2.371  0.00  0.00     0.340 C 
ATOM     11  N   UNL d   1      28.514 -14.734   3.204  0.00  0.00    -0.217 N 
ATOM     12  O   UNL d   1      27.362 -12.839   2.563  0.00  0.00    -0.245 OA
ATOM     13  H   UNL d   1      28.971 -15.575   2.892  0.00  0.00     0.199 HD
ATOM     14  H   UNL d   1      26.824 -13.994   0.644  0.00  0.00     0.165 HD
BRANCH  11  15
ATOM     15  O   UNL d   1      29.016 -14.107   4.360  0.00  0.00    -0.281 OA
ATOM     16  C   UNL d   1      28.345 -14.646   5.492  0.00  0.00     0.237 C 
ENDBRANCH  11  15
ENDBRANCH   7   9
ENDBRANCH   1   7
BRANCH   5  17
ATOM     17  O   UNL d   1      23.734 -15.589  -2.038  0.00  0.00    -0.353 OA
ATOM     18  C   UNL d   1      24.338 -14.542  -2.770  0.00  0.00     0.210 C 
ENDBRANCH   5  17
BRANCH   4  19
ATOM     19  O   UNL d   1      23.006 -18.404  -1.587  0.00  0.00    -0.343 OA
BRANCH  19  20
ATOM     20  C   UNL d   1      21.757 -18.405  -0.895  0.00  0.00     0.129 C 
ATOM     21  C   UNL d   1      20.657 -19.319  -1.465  0.00  0.00     0.032 C 
ATOM     22  C   UNL d   1      19.773 -19.626  -0.259  0.00  0.00     0.002 C 
ATOM     23  C   UNL d   1      20.582 -19.324   1.018  0.00  0.00     0.002 C 
ATOM     24  C   UNL d   1      21.905 -18.687   0.605  0.00  0.00     0.032 C 
ENDBRANCH  19  20
ENDBRANCH   4  19
TORSDOF 6
ENDMDL
MODEL 4
REMARK VINA RESULT:    -7.227      2.610      7.982
REMARK INTER + INTRA:         -10.097
REMARK INTER:                  -9.017
REMARK INTRA:                  -1.080
REMARK CONF_INDEPENDENT:        1.790
REMARK UNBOUND:                -1.080
REMARK  6 active torsions:
REMARK  status: ('A' for Active; 'I' for Inactive)
REMARK    1  A    between atoms: O_2  and  N_3 
REMARK       I    between atoms: N_3  and  C_4 
REMARK       I    between atoms: C_4  and  N_6 
REMARK    2  A    between atoms: C_7  and  N_6 
REMARK    3  A    between atoms: C_7  and  C_9 
REMARK    4  A    between atoms: C_12  and  O_13 
REMARK    5  A    between atoms: O_13  and  C_14 
REMARK    6  A    between atoms: C_19  and  O_20 
ROOT
ATOM      1  C   UNL d   1      25.501 -17.092  -1.574  0.00  0.00    -0.033 A 
ATOM      2  C   UNL d   1      26.838 -16.896  -1.203  0.00  0.00     0.012 A 
ATOM      3  C   UNL d   1      27.622 -15.952  -1.879  0.00  0.00     0.040 A 
ATOM      4  C   UNL d   1      27.098 -15.253  -2.975  0.00  0.00     0.102 A 
ATOM      5  C   UNL d   1      25.745 -15.438  -3.310  0.00  0.00     0.102 A 
ATOM      6  C   UNL d   1      24.985 -16.355  -2.628  0.00  0.00     0.049 A 
ENDROOT
BRANCH   1   7
ATOM      7  C   UNL d   1      24.540 -17.925  -0.766  0.00  0.00     0.115 C 
ATOM      8  C   UNL d   1      25.173 -18.156   0.609  0.00  0.00     0.037 C 
BRANCH   7   9
ATOM      9  N   UNL d   1      23.230 -17.290  -0.627  0.00  0.00    -0.333 N 
ATOM     10  C   UNL d   1      22.016 -17.798  -0.951  0.00  0.00     0.340 C 
ATOM     11  N   UNL d   1      22.011 -19.098  -1.330  0.00  0.00    -0.217 N 
ATOM     12  O   UNL d   1      21.033 -17.053  -0.895  0.00  0.00    -0.245 OA
ATOM     13  H   UNL d   1      22.793 -19.705  -1.139  0.00  0.00     0.199 HD
ATOM     14  H   UNL d   1      23.142 -16.335  -0.306  0.00  0.00     0.165 HD
BRANCH  11  15
ATOM     15  O   UNL d   1      20.769 -19.700  -1.600  0.00  0.00    -0.281 OA
ATOM     16  C   UNL d   1      20.076 -19.877  -0.371  0.00  0.00     0.237 C 
ENDBRANCH  11  15
ENDBRANCH   7   9
ENDBRANCH   1   7
BRANCH   5  17
ATOM     17  O   UNL d   1      25.149 -14.686  -4.265  0.00  0.00    -0.353 OA
ATOM     18  C   UNL d   1      25.071 -13.275  -4.206  0.00  0.00     0.210 C 
ENDBRANCH   5  17
BRANCH   4  19
ATOM     19  O   UNL d   1      28.011 -14.459  -3.623  0.00  0.00    -0.343 OA
BRANCH  19  20
ATOM     20  C   UNL d   1      28.109 -14.491  -5.047  0.00  0.00     0.129 C 
ATOM     21  C   UNL d   1      28.479 -13.167  -5.740  0.00  0.00     0.032 C 
ATOM     22  C   UNL d   1      29.135 -13.606  -7.047  0.00  0.00     0.002 C 
ATOM     23  C   UNL d   1      29.569 -15.077  -6.895  0.00  0.00     0.002 C 
ATOM     24  C   UNL d   1      29.046 -15.593  -5.558  0.00  0.00     0.032 C 
ENDBRANCH  19  20
ENDBRANCH   4  19
TORSDOF 6
ENDMDL
MODEL 5
REMARK VINA RESULT:    -6.784      2.768      7.546
REMARK INTER + INTRA:          -9.631
REMARK INTER:                  -8.574
REMARK INTRA:                  -1.057
REMARK CONF_INDEPENDENT:        1.790
REMARK UNBOUND:                -1.057
REMARK  6 active torsions:
REMARK  status: ('A' for Active; 'I' for Inactive)
REMARK    1  A    between atoms: O_2  and  N_3 
REMARK       I    between atoms: N_3  and  C_4 
REMARK       I    between atoms: C_4  and  N_6 
REMARK    2  A    between atoms: C_7  and  N_6 
REMARK    3  A    between atoms: C_7  and  C_9 
REMARK    4  A    between atoms: C_12  and  O_13 
REMARK    5  A    between atoms: O_13  and  C_14 
REMARK    6  A    between atoms: C_19  and  O_20 
ROOT
ATOM      1  C   UNL d   1      24.751 -17.004  -1.189  0.00  0.00    -0.033 A 
ATOM      2  C   UNL d   1      24.409 -15.869  -1.934  0.00  0.00     0.012 A 
ATOM      3  C   UNL d   1      25.410 -15.005  -2.396  0.00  0.00     0.040 A 
ATOM      4  C   UNL d   1      26.751 -15.231  -2.055  0.00  0.00     0.102 A 
ATOM      5  C   UNL d   1      27.078 -16.394  -1.336  0.00  0.00     0.102 A 
ATOM      6  C   UNL d   1      26.087 -17.240  -0.904  0.00  0.00     0.049 A 
ENDROOT
BRANCH   1   7
ATOM      7  C   UNL d   1      23.762 -18.086  -0.841  0.00  0.00     0.115 C 
ATOM      8  C   UNL d   1      24.041 -18.522   0.601  0.00  0.00     0.037 C 
BRANCH   7   9
ATOM      9  N   UNL d   1      22.375 -17.643  -0.982  0.00  0.00    -0.333 N 
ATOM     10  C   UNL d   1      21.247 -18.389  -0.895  0.00  0.00     0.340 C 
ATOM     11  N   UNL d   1      21.426 -19.672  -0.502  0.00  0.00    -0.217 N 
ATOM     12  O   UNL d   1      20.170 -17.861  -1.188  0.00  0.00    -0.245 OA
ATOM     13  H   UNL d   1      22.281 -19.974  -0.065  0.00  0.00     0.199 HD
ATOM     14  H   UNL d   1      22.153 -16.689  -1.229  0.00  0.00     0.165 HD
BRANCH  11  15
ATOM     15  O   UNL d   1      20.281 -20.469  -0.317  0.00  0.00    -0.281 OA
ATOM     16  C   UNL d   1      19.610 -20.028   0.857  0.00  0.00     0.237 C 
ENDBRANCH  11  15
ENDBRANCH   7   9
ENDBRANCH   1   7
BRANCH   5  17
ATOM     17  O   UNL d   1      28.367 -16.736  -1.103  0.00  0.00    -0.353 OA
ATOM     18  C   UNL d   1      28.972 -16.658   0.173  0.00  0.00     0.210 C 
ENDBRANCH   5  17
BRANCH   4  19
ATOM     19  O   UNL d   1      27.608 -14.240  -2.462  0.00  0.00    -0.343 OA
BRANCH  19  20
ATOM     20  C   UNL d   1      28.206 -14.294  -3.758  0.00  0.00     0.129 C 
ATOM     21  C   UNL d   1      29.047 -15.543  -4.075  0.00  0.00     0.032 C 
ATOM     22  C   UNL d   1      28.983 -15.654  -5.596  0.00  0.00     0.002 C 
ATOM     23  C   UNL d   1      27.780 -14.825  -6.087  0.00  0.00     0.002 C 
ATOM     24  C   UNL d   1      27.195 -14.079  -4.892  0.00  0.00     0.032 C 
ENDBRANCH  19  20
ENDBRANCH   4  19
TORSDOF 6
ENDMDL
MODEL 6
REMARK VINA RESULT:    -6.727      2.735      7.927
REMARK INTER + INTRA:          -9.482
REMARK INTER:                  -8.517
REMARK INTRA:                  -0.964
REMARK CONF_INDEPENDENT:        1.790
REMARK UNBOUND:                -0.964
REMARK  6 active torsions:
REMARK  status: ('A' for Active; 'I' for Inactive)
REMARK    1  A    between atoms: O_2  and  N_3 
REMARK       I    between atoms: N_3  and  C_4 
REMARK       I    between atoms: C_4  and  N_6 
REMARK    2  A    between atoms: C_7  and  N_6 
REMARK    3  A    between atoms: C_7  and  C_9 
REMARK    4  A    between atoms: C_12  and  O_13 
REMARK    5  A    between atoms: O_13  and  C_14 
REMARK    6  A    between atoms: C_19  and  O_20 
ROOT
ATOM      1  C   UNL d   1      24.923 -17.110  -1.100  0.00  0.00    -0.033 A 
ATOM      2  C   UNL d   1      25.904 -16.533  -0.284  0.00  0.00     0.012 A 
ATOM      3  C   UNL d   1      26.686 -15.477  -0.768  0.00  0.00     0.040 A 
ATOM      4  C   UNL d   1      26.543 -15.039  -2.092  0.00  0.00     0.102 A 
ATOM      5  C   UNL d   1      25.529 -15.607  -2.883  0.00  0.00     0.102 A 
ATOM      6  C   UNL d   1      24.760 -16.631  -2.390  0.00  0.00     0.049 A 
ENDROOT
BRANCH   1   7
ATOM      7  C   UNL d   1      23.906 -18.097  -0.587  0.00  0.00     0.115 C 
ATOM      8  C   UNL d   1      24.105 -18.219   0.927  0.00  0.00     0.037 C 
BRANCH   7   9
ATOM      9  N   UNL d   1      22.533 -17.696  -0.892  0.00  0.00    -0.333 N 
ATOM     10  C   UNL d   1      21.409 -18.450  -0.831  0.00  0.00     0.340 C 
ATOM     11  N   UNL d   1      21.565 -19.686  -0.300  0.00  0.00    -0.217 N 
ATOM     12  O   UNL d   1      20.357 -17.974  -1.268  0.00  0.00    -0.245 OA
ATOM     13  H   UNL d   1      22.382 -19.928   0.238  0.00  0.00     0.199 HD
ATOM     14  H   UNL d   1      22.325 -16.774  -1.250  0.00  0.00     0.165 HD
BRANCH  11  15
ATOM     15  O   UNL d   1      20.417 -20.482  -0.138  0.00  0.00    -0.281 OA
ATOM     16  C   UNL d   1      19.574 -19.868   0.828  0.00  0.00     0.237 C 
ENDBRANCH  11  15
ENDBRANCH   7   9
ENDBRANCH   1   7
BRANCH   5  17
ATOM     17  O   UNL d   1      25.251 -15.126  -4.119  0.00  0.00    -0.353 OA
ATOM     18  C   UNL d   1      25.906 -15.571  -5.290  0.00  0.00     0.210 C 
ENDBRANCH   5  17
BRANCH   4  19
ATOM     19  O   UNL d   1      27.457 -14.090  -2.472  0.00  0.00    -0.343 OA
BRANCH  19  20
ATOM     20  C   UNL d   1      27.128 -13.139  -3.485  0.00  0.00     0.129 C 
ATOM     21  C   UNL d   1      25.979 -12.165  -3.166  0.00  0.00     0.032 C 
ATOM     22  C   UNL d   1      26.279 -10.945  -4.032  0.00  0.00     0.002 C 
ATOM     23  C   UNL d   1      27.763 -11.002  -4.443  0.00  0.00     0.002 C 
ATOM     24  C   UNL d   1      28.340 -12.331  -3.964  0.00  0.00     0.032 C 
ENDBRANCH  19  20
ENDBRANCH   4  19
TORSDOF 6
ENDMDL
MODEL 7
REMARK VINA RESULT:    -6.369      3.045      7.652
REMARK INTER + INTRA:          -9.362
REMARK INTER:                  -8.159
REMARK INTRA:                  -1.203
REMARK CONF_INDEPENDENT:        1.790
REMARK UNBOUND:                -1.203
REMARK  6 active torsions:
REMARK  status: ('A' for Active; 'I' for Inactive)
REMARK    1  A    between atoms: O_2  and  N_3 
REMARK       I    between atoms: N_3  and  C_4 
REMARK       I    between atoms: C_4  and  N_6 
REMARK    2  A    between atoms: C_7  and  N_6 
REMARK    3  A    between atoms: C_7  and  C_9 
REMARK    4  A    between atoms: C_12  and  O_13 
REMARK    5  A    between atoms: O_13  and  C_14 
REMARK    6  A    between atoms: C_19  and  O_20 
ROOT
ATOM      1  C   UNL d   1      24.059 -17.667  -0.536  0.00  0.00    -0.033 A 
ATOM      2  C   UNL d   1      24.900 -18.423   0.291  0.00  0.00     0.012 A 
ATOM      3  C   UNL d   1      26.290 -18.296   0.182  0.00  0.00     0.040 A 
ATOM      4  C   UNL d   1      26.849 -17.470  -0.804  0.00  0.00     0.102 A 
ATOM      5  C   UNL d   1      25.989 -16.693  -1.600  0.00  0.00     0.102 A 
ATOM      6  C   UNL d   1      24.629 -16.816  -1.470  0.00  0.00     0.049 A 
ENDROOT
BRANCH   1   7
ATOM      7  C   UNL d   1      22.568 -17.587  -0.335  0.00  0.00     0.115 C 
ATOM      8  C   UNL d   1      22.155 -16.124  -0.520  0.00  0.00     0.037 C 
BRANCH   7   9
ATOM      9  N   UNL d   1      21.832 -18.447  -1.262  0.00  0.00    -0.333 N 
ATOM     10  C   UNL d   1      20.723 -19.186  -1.014  0.00  0.00     0.340 C 
ATOM     11  N   UNL d   1      20.160 -19.001   0.204  0.00  0.00    -0.217 N 
ATOM     12  O   UNL d   1      20.328 -19.964  -1.887  0.00  0.00    -0.245 OA
ATOM     13  H   UNL d   1      20.388 -18.202   0.773  0.00  0.00     0.199 HD
ATOM     14  H   UNL d   1      22.160 -18.602  -2.205  0.00  0.00     0.165 HD
BRANCH  11  15
ATOM     15  O   UNL d   1      18.961 -19.682   0.484  0.00  0.00    -0.281 OA
ATOM     16  C   UNL d   1      19.254 -21.065   0.638  0.00  0.00     0.237 C 
ENDBRANCH  11  15
ENDBRANCH   7   9
ENDBRANCH   1   7
BRANCH   5  17
ATOM     17  O   UNL d   1      26.476 -15.773  -2.467  0.00  0.00    -0.353 OA
ATOM     18  C   UNL d   1      25.862 -15.473  -3.705  0.00  0.00     0.210 C 
ENDBRANCH   5  17
BRANCH   4  19
ATOM     19  O   UNL d   1      28.217 -17.539  -0.885  0.00  0.00    -0.343 OA
BRANCH  19  20
ATOM     20  C   UNL d   1      29.017 -16.410  -0.531  0.00  0.00     0.129 C 
ATOM     21  C   UNL d   1      29.420 -15.467  -1.678  0.00  0.00     0.032 C 
ATOM     22  C   UNL d   1      29.643 -14.123  -0.989  0.00  0.00     0.002 C 
ATOM     23  C   UNL d   1      28.934 -14.163   0.379  0.00  0.00     0.002 C 
ATOM     24  C   UNL d   1      28.406 -15.577   0.602  0.00  0.00     0.032 C 
ENDBRANCH  19  20
ENDBRANCH   4  19
TORSDOF 6
ENDMDL
MODEL 8
REMARK VINA RESULT:    -6.319      2.770      8.082
REMARK INTER + INTRA:          -9.191
REMARK INTER:                  -8.109
REMARK INTRA:                  -1.082
REMARK CONF_INDEPENDENT:        1.790
REMARK UNBOUND:                -1.082
REMARK  6 active torsions:
REMARK  status: ('A' for Active; 'I' for Inactive)
REMARK    1  A    between atoms: O_2  and  N_3 
REMARK       I    between atoms: N_3  and  C_4 
REMARK       I    between atoms: C_4  and  N_6 
REMARK    2  A    between atoms: C_7  and  N_6 
REMARK    3  A    between atoms: C_7  and  C_9 
REMARK    4  A    between atoms: C_12  and  O_13 
REMARK    5  A    between atoms: O_13  and  C_14 
REMARK    6  A    between atoms: C_19  and  O_20 
ROOT
ATOM      1  C   UNL d   1      27.730 -15.873  -1.763  0.00  0.00    -0.033 A 
ATOM      2  C   UNL d   1      28.803 -16.023  -2.651  0.00  0.00     0.012 A 
ATOM      3  C   UNL d   1      28.634 -15.733  -4.010  0.00  0.00     0.040 A 
ATOM      4  C   UNL d   1      27.375 -15.363  -4.503  0.00  0.00     0.102 A 
ATOM      5  C   UNL d   1      26.320 -15.184  -3.591  0.00  0.00     0.102 A 
ATOM      6  C   UNL d   1      26.505 -15.456  -2.259  0.00  0.00     0.049 A 
ENDROOT
BRANCH   1   7
ATOM      7  C   UNL d   1      27.886 -15.957  -0.267  0.00  0.00     0.115 C 
ATOM      8  C   UNL d   1      26.728 -15.176   0.363  0.00  0.00     0.037 C 
BRANCH   7   9
ATOM      9  N   UNL d   1      27.896 -17.337   0.219  0.00  0.00    -0.333 N 
ATOM     10  C   UNL d   1      26.853 -18.199   0.306  0.00  0.00     0.340 C 
ATOM     11  N   UNL d   1      25.694 -17.769  -0.245  0.00  0.00    -0.217 N 
ATOM     12  O   UNL d   1      27.030 -19.278   0.879  0.00  0.00    -0.245 OA
ATOM     13  H   UNL d   1      25.672 -16.993  -0.887  0.00  0.00     0.199 HD
ATOM     14  H   UNL d   1      28.734 -17.751   0.603  0.00  0.00     0.165 HD
BRANCH  11  15
ATOM     15  O   UNL d   1      24.601 -18.655  -0.254  0.00  0.00    -0.281 OA
ATOM     16  C   UNL d   1      23.401 -17.893  -0.239  0.00  0.00     0.237 C 
ENDBRANCH  11  15
ENDBRANCH   7   9
ENDBRANCH   1   7
BRANCH   5  17
ATOM     17  O   UNL d   1      25.123 -14.691  -3.991  0.00  0.00    -0.353 OA
ATOM     18  C   UNL d   1      24.903 -13.322  -4.271  0.00  0.00     0.210 C 
ENDBRANCH   5  17
BRANCH   4  19
ATOM     19  O   UNL d   1      27.321 -15.236  -5.869  0.00  0.00    -0.343 OA
BRANCH  19  20
ATOM     20  C   UNL d   1      28.159 -14.292  -6.536  0.00  0.00     0.129 C 
ATOM     21  C   UNL d   1      28.352 -12.932  -5.841  0.00  0.00     0.032 C 
ATOM     22  C   UNL d   1      29.702 -12.442  -6.359  0.00  0.00     0.002 C 
ATOM     23  C   UNL d   1      30.468 -13.655  -6.922  0.00  0.00     0.002 C 
ATOM     24  C   UNL d   1      29.537 -14.863  -6.894  0.00  0.00     0.032 C 
ENDBRANCH  19  20
ENDBRANCH   4  19
TORSDOF 6
ENDMDL
MODEL 9
REMARK VINA RESULT:    -6.294      2.699      4.864
REMARK INTER + INTRA:          -9.238
REMARK INTER:                  -8.084
REMARK INTRA:                  -1.154
REMARK CONF_INDEPENDENT:        1.790
REMARK UNBOUND:                -1.154
REMARK  6 active torsions:
REMARK  status: ('A' for Active; 'I' for Inactive)
REMARK    1  A    between atoms: O_2  and  N_3 
REMARK       I    between atoms: N_3  and  C_4 
REMARK       I    between atoms: C_4  and  N_6 
REMARK    2  A    between atoms: C_7  and  N_6 
REMARK    3  A    between atoms: C_7  and  C_9 
REMARK    4  A    between atoms: C_12  and  O_13 
REMARK    5  A    between atoms: O_13  and  C_14 
REMARK    6  A    between atoms: C_19  and  O_20 
ROOT
ATOM      1  C   UNL d   1      28.732 -15.239  -4.829  0.00  0.00    -0.033 A 
ATOM      2  C   UNL d   1      29.082 -15.725  -3.564  0.00  0.00     0.012 A 
ATOM      3  C   UNL d   1      28.099 -15.897  -2.582  0.00  0.00     0.040 A 
ATOM      4  C   UNL d   1      26.774 -15.515  -2.834  0.00  0.00     0.102 A 
ATOM      5  C   UNL d   1      26.436 -15.062  -4.121  0.00  0.00     0.102 A 
ATOM      6  C   UNL d   1      27.408 -14.914  -5.078  0.00  0.00     0.049 A 
ENDROOT
BRANCH   1   7
ATOM      7  C   UNL d   1      29.686 -15.228  -5.996  0.00  0.00     0.115 C 
ATOM      8  C   UNL d   1      30.031 -16.684  -6.324  0.00  0.00     0.037 C 
BRANCH   7   9
ATOM      9  N   UNL d   1      29.127 -14.558  -7.170  0.00  0.00    -0.333 N 
ATOM     10  C   UNL d   1      28.740 -13.264  -7.289  0.00  0.00     0.340 C 
ATOM     11  N   UNL d   1      29.029 -12.470  -6.231  0.00  0.00    -0.217 N 
ATOM     12  O   UNL d   1      28.155 -12.919  -8.319  0.00  0.00    -0.245 OA
ATOM     13  H   UNL d   1      29.698 -12.749  -5.531  0.00  0.00     0.199 HD
ATOM     14  H   UNL d   1      28.924 -15.070  -8.017  0.00  0.00     0.165 HD
BRANCH  11  15
ATOM     15  O   UNL d   1      28.723 -11.101  -6.333  0.00  0.00    -0.281 OA
ATOM     16  C   UNL d   1      27.338 -10.927  -6.062  0.00  0.00     0.237 C 
ENDBRANCH  11  15
ENDBRANCH   7   9
ENDBRANCH   1   7
BRANCH   5  17
ATOM     17  O   UNL d   1      25.148 -14.816  -4.463  0.00  0.00    -0.353 OA
ATOM     18  C   UNL d   1      24.421 -13.699  -3.992  0.00  0.00     0.210 C 
ENDBRANCH   5  17
BRANCH   4  19
ATOM     19  O   UNL d   1      25.943 -15.616  -1.746  0.00  0.00    -0.343 OA
BRANCH  19  20
ATOM     20  C   UNL d   1      25.100 -16.758  -1.588  0.00  0.00     0.129 C 
ATOM     21  C   UNL d   1      25.571 -17.826  -0.584  0.00  0.00     0.032 C 
ATOM     22  C   UNL d   1      24.280 -18.510  -0.143  0.00  0.00     0.002 C 
ATOM     23  C   UNL d   1      23.102 -17.576  -0.482  0.00  0.00     0.002 C 
ATOM     24  C   UNL d   1      23.646 -16.388  -1.270  0.00  0.00     0.032 C 
ENDBRANCH  19  20
ENDBRANCH   4  19
TORSDOF 6
ENDMDL
