MODEL 1
REMARK VINA RESULT:    -9.754      0.000      0.000
REMARK INTER + INTRA:         -14.553
REMARK INTER:                 -12.737
REMARK INTRA:                  -1.817
REMARK CONF_INDEPENDENT:        2.983
REMARK UNBOUND:                -1.817
REMARK  10 active torsions:
REMARK  status: ('A' for Active; 'I' for Inactive)
REMARK    1  A    between atoms: C_2  and  C_3 
REMARK       I    between atoms: C_2  and  N_22 
REMARK    2  A    between atoms: C_3  and  S_4 
REMARK    3  A    between atoms: S_4  and  C_5 
REMARK    4  A    between atoms: C_8  and  S_9 
REMARK    5  A    between atoms: S_9  and  C_10 
REMARK    6  A    between atoms: C_10  and  C_11 
REMARK    7  A    between atoms: N_22  and  N_23 
REMARK    8  A    between atoms: C_24  and  C_25 
REMARK    9  A    between atoms: C_26  and  C_27 
REMARK   10  A    between atoms: C_32  and  N_33 
ROOT
ATOM      1  C   UNL d   1      29.870 -11.890  -6.173  0.00  0.00     0.186 C 
ENDROOT
BRANCH   1   2
ATOM      2  C   UNL d   1      29.183 -10.538  -6.423  0.00  0.00     0.247 C 
ATOM      3  O   UNL d   1      29.193  -9.943  -7.505  0.00  0.00    -0.271 OA
ATOM      4  N   UNL d   1      28.508  -9.950  -5.378  0.00  0.00    -0.247 N 
ATOM      5  H   UNL d   1      28.073  -9.057  -5.588  0.00  0.00     0.192 HD
BRANCH   4   6
ATOM      6  N   UNL d   1      28.298 -10.565  -4.188  0.00  0.00    -0.185 NA
ATOM      7  C   UNL d   1      27.677  -9.867  -3.285  0.00  0.00     0.139 C 
BRANCH   7   8
ATOM      8  C   UNL d   1      27.405 -10.474  -1.961  0.00  0.00     0.022 C 
ATOM      9  C   UNL d   1      27.127  -9.779  -0.848  0.00  0.00     0.015 C 
BRANCH   9  10
ATOM     10  C   UNL d   1      27.173 -10.404   0.499  0.00  0.00    -0.003 A 
ATOM     11  C   UNL d   1      27.768 -11.685   0.583  0.00  0.00     0.014 A 
ATOM     12  C   UNL d   1      27.774 -12.418   1.781  0.00  0.00     0.001 A 
ATOM     13  C   UNL d   1      27.249 -11.865   2.941  0.00  0.00     0.002 A 
ATOM     14  C   UNL d   1      26.666 -10.602   2.895  0.00  0.00     0.037 A 
ATOM     15  C   UNL d   1      26.603  -9.874   1.684  0.00  0.00     0.113 A 
BRANCH  15  16
ATOM     16  N   UNL d   1      25.889  -8.579   1.766  0.00  0.00    -0.115 N 
ATOM     17  O   UNL d   1      26.280  -7.764   2.605  0.00  0.00    -0.532 OA
ATOM     18  O   UNL d   1      24.914  -8.371   1.023  0.00  0.00    -0.532 OA
ENDBRANCH  15  16
ENDBRANCH   9  10
ENDBRANCH   7   8
ENDBRANCH   4   6
ENDBRANCH   1   2
BRANCH   1  19
ATOM     19  S   UNL d   1      29.008 -13.149  -7.167  0.00  0.00    -0.092 SA
BRANCH  19  20
ATOM     20  C   UNL d   1      27.877 -13.892  -6.089  0.00  0.00     0.159 A 
ATOM     21  N   UNL d   1      27.728 -15.187  -5.925  0.00  0.00    -0.134 NA
ATOM     22  N   UNL d   1      26.669 -15.458  -5.075  0.00  0.00    -0.134 NA
ATOM     23  C   UNL d   1      26.106 -14.358  -4.611  0.00  0.00     0.159 A 
ATOM     24  S   UNL d   1      26.746 -12.920  -5.236  0.00  0.00    -0.033 SA
BRANCH  23  25
ATOM     25  S   UNL d   1      24.993 -14.476  -3.312  0.00  0.00    -0.097 SA
BRANCH  25  26
ATOM     26  C   UNL d   1      25.797 -14.590  -1.706  0.00  0.00     0.121 C 
BRANCH  26  27
ATOM     27  C   UNL d   1      25.788 -15.986  -1.035  0.00  0.00    -0.037 A 
ATOM     28  C   UNL d   1      27.052 -16.462  -0.604  0.00  0.00     0.009 A 
ATOM     29  C   UNL d   1      27.193 -17.720  -0.017  0.00  0.00     0.001 A 
ATOM     30  C   UNL d   1      26.077 -18.532   0.161  0.00  0.00     0.012 A 
ATOM     31  C   UNL d   1      24.796 -18.094  -0.207  0.00  0.00    -0.025 A 
ATOM     32  C   UNL d   1      23.676 -18.927   0.025  0.00  0.00     0.012 A 
ATOM     33  C   UNL d   1      24.626 -16.814  -0.795  0.00  0.00    -0.019 A 
ATOM     34  C   UNL d   1      22.382 -18.544  -0.324  0.00  0.00     0.001 A 
ATOM     35  C   UNL d   1      22.183 -17.313  -0.895  0.00  0.00     0.001 A 
ATOM     36  C   UNL d   1      23.276 -16.480  -1.085  0.00  0.00     0.013 A 
ENDBRANCH  26  27
ENDBRANCH  25  26
ENDBRANCH  23  25
ENDBRANCH  19  20
ENDBRANCH   1  19
TORSDOF 10
ENDMDL
MODEL 2
REMARK VINA RESULT:    -9.539      4.318      7.604
REMARK INTER + INTRA:         -14.060
REMARK INTER:                 -12.522
REMARK INTRA:                  -1.538
REMARK CONF_INDEPENDENT:        2.983
REMARK UNBOUND:                -1.538
REMARK  10 active torsions:
REMARK  status: ('A' for Active; 'I' for Inactive)
REMARK    1  A    between atoms: C_2  and  C_3 
REMARK       I    between atoms: C_2  and  N_22 
REMARK    2  A    between atoms: C_3  and  S_4 
REMARK    3  A    between atoms: S_4  and  C_5 
REMARK    4  A    between atoms: C_8  and  S_9 
REMARK    5  A    between atoms: S_9  and  C_10 
REMARK    6  A    between atoms: C_10  and  C_11 
REMARK    7  A    between atoms: N_22  and  N_23 
REMARK    8  A    between atoms: C_24  and  C_25 
REMARK    9  A    between atoms: C_26  and  C_27 
REMARK   10  A    between atoms: C_32  and  N_33 
ROOT
ATOM      1  C   UNL d   1      30.049 -12.125  -6.498  0.00  0.00     0.186 C 
ENDROOT
BRANCH   1   2
ATOM      2  C   UNL d   1      31.151 -11.612  -7.440  0.00  0.00     0.247 C 
ATOM      3  O   UNL d   1      31.489 -10.429  -7.535  0.00  0.00    -0.271 OA
ATOM      4  N   UNL d   1      31.811 -12.530  -8.227  0.00  0.00    -0.247 N 
ATOM      5  H   UNL d   1      32.527 -12.146  -8.834  0.00  0.00     0.192 HD
BRANCH   4   6
ATOM      6  N   UNL d   1      31.639 -13.869  -8.111  0.00  0.00    -0.185 NA
ATOM      7  C   UNL d   1      32.280 -14.446  -7.140  0.00  0.00     0.139 C 
BRANCH   7   8
ATOM      8  C   UNL d   1      32.136 -15.908  -6.946  0.00  0.00     0.022 C 
ATOM      9  C   UNL d   1      31.042 -16.615  -7.270  0.00  0.00     0.015 C 
BRANCH   9  10
ATOM     10  C   UNL d   1      30.828 -17.999  -6.776  0.00  0.00    -0.003 A 
ATOM     11  C   UNL d   1      30.575 -18.145  -5.391  0.00  0.00     0.014 A 
ATOM     12  C   UNL d   1      30.462 -19.410  -4.792  0.00  0.00     0.001 A 
ATOM     13  C   UNL d   1      30.528 -20.559  -5.567  0.00  0.00     0.002 A 
ATOM     14  C   UNL d   1      30.763 -20.450  -6.934  0.00  0.00     0.037 A 
ATOM     15  C   UNL d   1      30.934 -19.185  -7.544  0.00  0.00     0.113 A 
BRANCH  15  16
ATOM     16  N   UNL d   1      31.253 -19.223  -8.990  0.00  0.00    -0.115 N 
ATOM     17  O   UNL d   1      30.405 -19.697  -9.750  0.00  0.00    -0.532 OA
ATOM     18  O   UNL d   1      32.360 -18.814  -9.382  0.00  0.00    -0.532 OA
ENDBRANCH  15  16
ENDBRANCH   9  10
ENDBRANCH   7   8
ENDBRANCH   4   6
ENDBRANCH   1   2
BRANCH   1  19
ATOM     19  S   UNL d   1      28.905 -13.147  -7.479  0.00  0.00    -0.092 SA
BRANCH  19  20
ATOM     20  C   UNL d   1      27.859 -13.904  -6.327  0.00  0.00     0.159 A 
ATOM     21  N   UNL d   1      27.719 -15.201  -6.172  0.00  0.00    -0.134 NA
ATOM     22  N   UNL d   1      26.731 -15.484  -5.245  0.00  0.00    -0.134 NA
ATOM     23  C   UNL d   1      26.210 -14.390  -4.721  0.00  0.00     0.159 A 
ATOM     24  S   UNL d   1      26.803 -12.943  -5.372  0.00  0.00    -0.033 SA
BRANCH  23  25
ATOM     25  S   UNL d   1      25.203 -14.526  -3.339  0.00  0.00    -0.097 SA
BRANCH  25  26
ATOM     26  C   UNL d   1      26.132 -14.693  -1.807  0.00  0.00     0.121 C 
BRANCH  26  27
ATOM     27  C   UNL d   1      26.005 -16.052  -1.076  0.00  0.00    -0.037 A 
ATOM     28  C   UNL d   1      27.224 -16.614  -0.620  0.00  0.00     0.009 A 
ATOM     29  C   UNL d   1      27.259 -17.853   0.021  0.00  0.00     0.001 A 
ATOM     30  C   UNL d   1      26.078 -18.560   0.230  0.00  0.00     0.012 A 
ATOM     31  C   UNL d   1      24.839 -18.032  -0.162  0.00  0.00    -0.025 A 
ATOM     32  C   UNL d   1      23.653 -18.757   0.101  0.00  0.00     0.012 A 
ATOM     33  C   UNL d   1      24.777 -16.769  -0.805  0.00  0.00    -0.019 A 
ATOM     34  C   UNL d   1      22.395 -18.282  -0.269  0.00  0.00     0.001 A 
ATOM     35  C   UNL d   1      22.301 -17.065  -0.893  0.00  0.00     0.001 A 
ATOM     36  C   UNL d   1      23.460 -16.336  -1.114  0.00  0.00     0.013 A 
ENDBRANCH  26  27
ENDBRANCH  25  26
ENDBRANCH  23  25
ENDBRANCH  19  20
ENDBRANCH   1  19
TORSDOF 10
ENDMDL
MODEL 3
REMARK VINA RESULT:    -9.199      3.918      6.431
REMARK INTER + INTRA:         -14.394
REMARK INTER:                 -12.182
REMARK INTRA:                  -2.211
REMARK CONF_INDEPENDENT:        2.983
REMARK UNBOUND:                -2.211
REMARK  10 active torsions:
REMARK  status: ('A' for Active; 'I' for Inactive)
REMARK    1  A    between atoms: C_2  and  C_3 
REMARK       I    between atoms: C_2  and  N_22 
REMARK    2  A    between atoms: C_3  and  S_4 
REMARK    3  A    between atoms: S_4  and  C_5 
REMARK    4  A    between atoms: C_8  and  S_9 
REMARK    5  A    between atoms: S_9  and  C_10 
REMARK    6  A    between atoms: C_10  and  C_11 
REMARK    7  A    between atoms: N_22  and  N_23 
REMARK    8  A    between atoms: C_24  and  C_25 
REMARK    9  A    between atoms: C_26  and  C_27 
REMARK   10  A    between atoms: C_32  and  N_33 
ROOT
ATOM      1  C   UNL d   1      29.423 -13.453   5.465  0.00  0.00     0.186 C 
ENDROOT
BRANCH   1   2
ATOM      2  C   UNL d   1      28.757 -12.642   6.588  0.00  0.00     0.247 C 
ATOM      3  O   UNL d   1      29.015 -12.775   7.788  0.00  0.00    -0.271 OA
ATOM      4  N   UNL d   1      27.816 -11.700   6.238  0.00  0.00    -0.247 N 
ATOM      5  H   UNL d   1      27.401 -11.191   7.012  0.00  0.00     0.192 HD
BRANCH   4   6
ATOM      6  N   UNL d   1      27.552 -11.354   4.954  0.00  0.00    -0.185 NA
ATOM      7  C   UNL d   1      28.528 -10.806   4.297  0.00  0.00     0.139 C 
BRANCH   7   8
ATOM      8  C   UNL d   1      28.317 -10.406   2.886  0.00  0.00     0.022 C 
ATOM      9  C   UNL d   1      27.615  -9.330   2.497  0.00  0.00     0.015 C 
BRANCH   9  10
ATOM     10  C   UNL d   1      27.172  -9.150   1.091  0.00  0.00    -0.003 A 
ATOM     11  C   UNL d   1      27.772  -9.991   0.123  0.00  0.00     0.014 A 
ATOM     12  C   UNL d   1      27.511  -9.841  -1.248  0.00  0.00     0.001 A 
ATOM     13  C   UNL d   1      26.593  -8.897  -1.685  0.00  0.00     0.002 A 
ATOM     14  C   UNL d   1      25.975  -8.061  -0.759  0.00  0.00     0.037 A 
ATOM     15  C   UNL d   1      26.269  -8.163   0.620  0.00  0.00     0.113 A 
BRANCH  15  16
ATOM     16  N   UNL d   1      25.597  -7.162   1.481  0.00  0.00    -0.115 N 
ATOM     17  O   UNL d   1      24.773  -6.414   0.950  0.00  0.00    -0.532 OA
ATOM     18  O   UNL d   1      25.904  -7.087   2.683  0.00  0.00    -0.532 OA
ENDBRANCH  15  16
ENDBRANCH   9  10
ENDBRANCH   7   8
ENDBRANCH   4   6
ENDBRANCH   1   2
BRANCH   1  19
ATOM     19  S   UNL d   1      28.217 -14.682   4.871  0.00  0.00    -0.092 SA
BRANCH  19  20
ATOM     20  C   UNL d   1      27.668 -14.088   3.342  0.00  0.00     0.159 A 
ATOM     21  N   UNL d   1      26.661 -13.262   3.171  0.00  0.00    -0.134 NA
ATOM     22  N   UNL d   1      26.408 -13.064   1.824  0.00  0.00    -0.134 NA
ATOM     23  C   UNL d   1      27.261 -13.714   1.055  0.00  0.00     0.159 A 
ATOM     24  S   UNL d   1      28.368 -14.685   1.892  0.00  0.00    -0.033 SA
BRANCH  23  25
ATOM     25  S   UNL d   1      27.315 -13.355  -0.621  0.00  0.00    -0.097 SA
BRANCH  25  26
ATOM     26  C   UNL d   1      26.526 -14.614  -1.636  0.00  0.00     0.121 C 
BRANCH  26  27
ATOM     27  C   UNL d   1      26.295 -15.988  -0.963  0.00  0.00    -0.037 A 
ATOM     28  C   UNL d   1      27.463 -16.647  -0.505  0.00  0.00     0.009 A 
ATOM     29  C   UNL d   1      27.402 -17.909   0.088  0.00  0.00     0.001 A 
ATOM     30  C   UNL d   1      26.174 -18.543   0.244  0.00  0.00     0.012 A 
ATOM     31  C   UNL d   1      24.981 -17.920  -0.151  0.00  0.00    -0.025 A 
ATOM     32  C   UNL d   1      23.744 -18.573   0.060  0.00  0.00     0.012 A 
ATOM     33  C   UNL d   1      25.017 -16.631  -0.745  0.00  0.00    -0.019 A 
ATOM     34  C   UNL d   1      22.528 -18.002  -0.317  0.00  0.00     0.001 A 
ATOM     35  C   UNL d   1      22.529 -16.759  -0.894  0.00  0.00     0.001 A 
ATOM     36  C   UNL d   1      23.738 -16.100  -1.063  0.00  0.00     0.013 A 
ENDBRANCH  26  27
ENDBRANCH  25  26
ENDBRANCH  23  25
ENDBRANCH  19  20
ENDBRANCH   1  19
TORSDOF 10
ENDMDL
MODEL 4
REMARK VINA RESULT:    -9.195      4.499      7.644
REMARK INTER + INTRA:         -14.153
REMARK INTER:                 -12.178
REMARK INTRA:                  -1.975
REMARK CONF_INDEPENDENT:        2.983
REMARK UNBOUND:                -1.975
REMARK  10 active torsions:
REMARK  status: ('A' for Active; 'I' for Inactive)
REMARK    1  A    between atoms: C_2  and  C_3 
REMARK       I    between atoms: C_2  and  N_22 
REMARK    2  A    between atoms: C_3  and  S_4 
REMARK    3  A    between atoms: S_4  and  C_5 
REMARK    4  A    between atoms: C_8  and  S_9 
REMARK    5  A    between atoms: S_9  and  C_10 
REMARK    6  A    between atoms: C_10  and  C_11 
REMARK    7  A    between atoms: N_22  and  N_23 
REMARK    8  A    between atoms: C_24  and  C_25 
REMARK    9  A    between atoms: C_26  and  C_27 
REMARK   10  A    between atoms: C_32  and  N_33 
ROOT
ATOM      1  C   UNL d   1      30.178 -12.712   7.437  0.00  0.00     0.186 C 
ENDROOT
BRANCH   1   2
ATOM      2  C   UNL d   1      29.423 -11.850   8.462  0.00  0.00     0.247 C 
ATOM      3  O   UNL d   1      29.408 -12.069   9.676  0.00  0.00    -0.271 OA
ATOM      4  N   UNL d   1      28.721 -10.760   8.000  0.00  0.00    -0.247 N 
ATOM      5  H   UNL d   1      28.235 -10.223   8.712  0.00  0.00     0.192 HD
BRANCH   4   6
ATOM      6  N   UNL d   1      28.777 -10.327   6.717  0.00  0.00    -0.185 NA
ATOM      7  C   UNL d   1      28.106 -11.022   5.849  0.00  0.00     0.139 C 
BRANCH   7   8
ATOM      8  C   UNL d   1      28.114 -10.606   4.427  0.00  0.00     0.022 C 
ATOM      9  C   UNL d   1      27.114  -9.946   3.822  0.00  0.00     0.015 C 
BRANCH   9  10
ATOM     10  C   UNL d   1      27.033  -9.832   2.343  0.00  0.00    -0.003 A 
ATOM     11  C   UNL d   1      27.520 -10.929   1.594  0.00  0.00     0.014 A 
ATOM     12  C   UNL d   1      27.592 -10.892   0.192  0.00  0.00     0.001 A 
ATOM     13  C   UNL d   1      27.117  -9.788  -0.502  0.00  0.00     0.002 A 
ATOM     14  C   UNL d   1      26.621  -8.696   0.203  0.00  0.00     0.037 A 
ATOM     15  C   UNL d   1      26.593  -8.696   1.617  0.00  0.00     0.113 A 
BRANCH  15  16
ATOM     16  N   UNL d   1      26.110  -7.440   2.236  0.00  0.00    -0.115 N 
ATOM     17  O   UNL d   1      25.155  -6.871   1.703  0.00  0.00    -0.532 OA
ATOM     18  O   UNL d   1      26.695  -6.989   3.236  0.00  0.00    -0.532 OA
ENDBRANCH  15  16
ENDBRANCH   9  10
ENDBRANCH   7   8
ENDBRANCH   4   6
ENDBRANCH   1   2
BRANCH   1  19
ATOM     19  S   UNL d   1      29.222 -14.240   7.176  0.00  0.00    -0.092 SA
BRANCH  19  20
ATOM     20  C   UNL d   1      28.618 -14.135   5.558  0.00  0.00     0.159 A 
ATOM     21  N   UNL d   1      27.374 -13.871   5.232  0.00  0.00    -0.134 NA
ATOM     22  N   UNL d   1      27.191 -13.965   3.862  0.00  0.00    -0.134 NA
ATOM     23  C   UNL d   1      28.313 -14.251   3.227  0.00  0.00     0.159 A 
ATOM     24  S   UNL d   1      29.646 -14.522   4.236  0.00  0.00    -0.033 SA
BRANCH  23  25
ATOM     25  S   UNL d   1      28.366 -14.103   1.520  0.00  0.00    -0.097 SA
BRANCH  25  26
ATOM     26  C   UNL d   1      28.265 -15.688   0.673  0.00  0.00     0.121 C 
BRANCH  26  27
ATOM     27  C   UNL d   1      27.229 -15.786  -0.473  0.00  0.00    -0.037 A 
ATOM     28  C   UNL d   1      27.486 -14.963  -1.598  0.00  0.00     0.009 A 
ATOM     29  C   UNL d   1      26.613 -14.926  -2.686  0.00  0.00     0.001 A 
ATOM     30  C   UNL d   1      25.466 -15.713  -2.683  0.00  0.00     0.012 A 
ATOM     31  C   UNL d   1      25.184 -16.579  -1.615  0.00  0.00    -0.025 A 
ATOM     32  C   UNL d   1      24.031 -17.397  -1.660  0.00  0.00     0.012 A 
ATOM     33  C   UNL d   1      26.063 -16.642  -0.503  0.00  0.00    -0.019 A 
ATOM     34  C   UNL d   1      23.700 -18.272  -0.626  0.00  0.00     0.001 A 
ATOM     35  C   UNL d   1      24.528 -18.357   0.463  0.00  0.00     0.001 A 
ATOM     36  C   UNL d   1      25.680 -17.585   0.489  0.00  0.00     0.013 A 
ENDBRANCH  26  27
ENDBRANCH  25  26
ENDBRANCH  23  25
ENDBRANCH  19  20
ENDBRANCH   1  19
TORSDOF 10
ENDMDL
MODEL 5
REMARK VINA RESULT:    -8.708      3.161      4.267
REMARK INTER + INTRA:         -14.343
REMARK INTER:                 -11.691
REMARK INTRA:                  -2.652
REMARK CONF_INDEPENDENT:        2.983
REMARK UNBOUND:                -2.652
REMARK  10 active torsions:
REMARK  status: ('A' for Active; 'I' for Inactive)
REMARK    1  A    between atoms: C_2  and  C_3 
REMARK       I    between atoms: C_2  and  N_22 
REMARK    2  A    between atoms: C_3  and  S_4 
REMARK    3  A    between atoms: S_4  and  C_5 
REMARK    4  A    between atoms: C_8  and  S_9 
REMARK    5  A    between atoms: S_9  and  C_10 
REMARK    6  A    between atoms: C_10  and  C_11 
REMARK    7  A    between atoms: N_22  and  N_23 
REMARK    8  A    between atoms: C_24  and  C_25 
REMARK    9  A    between atoms: C_26  and  C_27 
REMARK   10  A    between atoms: C_32  and  N_33 
ROOT
ATOM      1  C   UNL d   1      31.476 -13.988  -5.991  0.00  0.00     0.186 C 
ENDROOT
BRANCH   1   2
ATOM      2  C   UNL d   1      31.446 -14.313  -7.493  0.00  0.00     0.247 C 
ATOM      3  O   UNL d   1      31.981 -15.303  -8.000  0.00  0.00    -0.271 OA
ATOM      4  N   UNL d   1      30.776 -13.450  -8.330  0.00  0.00    -0.247 N 
ATOM      5  H   UNL d   1      30.786 -13.702  -9.313  0.00  0.00     0.192 HD
BRANCH   4   6
ATOM      6  N   UNL d   1      30.027 -12.413  -7.885  0.00  0.00    -0.185 NA
ATOM      7  C   UNL d   1      28.815 -12.700  -7.514  0.00  0.00     0.139 C 
BRANCH   7   8
ATOM      8  C   UNL d   1      27.937 -11.619  -7.008  0.00  0.00     0.022 C 
ATOM      9  C   UNL d   1      27.653 -11.413  -5.713  0.00  0.00     0.015 C 
BRANCH   9  10
ATOM     10  C   UNL d   1      26.538 -10.530  -5.286  0.00  0.00    -0.003 A 
ATOM     11  C   UNL d   1      25.787  -9.914  -6.315  0.00  0.00     0.014 A 
ATOM     12  C   UNL d   1      24.778  -8.979  -6.033  0.00  0.00     0.001 A 
ATOM     13  C   UNL d   1      24.445  -8.685  -4.718  0.00  0.00     0.002 A 
ATOM     14  C   UNL d   1      25.156  -9.283  -3.682  0.00  0.00     0.037 A 
ATOM     15  C   UNL d   1      26.211 -10.185  -3.950  0.00  0.00     0.113 A 
BRANCH  15  16
ATOM     16  N   UNL d   1      26.929 -10.686  -2.754  0.00  0.00    -0.115 N 
ATOM     17  O   UNL d   1      26.649 -11.818  -2.353  0.00  0.00    -0.532 OA
ATOM     18  O   UNL d   1      27.752  -9.949  -2.184  0.00  0.00    -0.532 OA
ENDBRANCH  15  16
ENDBRANCH   9  10
ENDBRANCH   7   8
ENDBRANCH   4   6
ENDBRANCH   1   2
BRANCH   1  19
ATOM     19  S   UNL d   1      30.812 -15.426  -5.092  0.00  0.00    -0.092 SA
BRANCH  19  20
ATOM     20  C   UNL d   1      29.092 -15.250  -5.147  0.00  0.00     0.159 A 
ATOM     21  N   UNL d   1      28.332 -15.575  -6.168  0.00  0.00    -0.134 NA
ATOM     22  N   UNL d   1      27.016 -15.212  -5.939  0.00  0.00    -0.134 NA
ATOM     23  C   UNL d   1      26.846 -14.675  -4.745  0.00  0.00     0.159 A 
ATOM     24  S   UNL d   1      28.271 -14.479  -3.850  0.00  0.00    -0.033 SA
BRANCH  23  25
ATOM     25  S   UNL d   1      25.254 -14.449  -4.151  0.00  0.00    -0.097 SA
BRANCH  25  26
ATOM     26  C   UNL d   1      25.187 -14.300  -2.359  0.00  0.00     0.121 C 
BRANCH  26  27
ATOM     27  C   UNL d   1      25.493 -15.586  -1.554  0.00  0.00    -0.037 A 
ATOM     28  C   UNL d   1      26.868 -15.860  -1.342  0.00  0.00     0.009 A 
ATOM     29  C   UNL d   1      27.285 -17.006  -0.664  0.00  0.00     0.001 A 
ATOM     30  C   UNL d   1      26.342 -17.905  -0.175  0.00  0.00     0.012 A 
ATOM     31  C   UNL d   1      24.968 -17.662  -0.317  0.00  0.00    -0.025 A 
ATOM     32  C   UNL d   1      24.034 -18.575   0.229  0.00  0.00     0.012 A 
ATOM     33  C   UNL d   1      24.519 -16.498  -0.992  0.00  0.00    -0.019 A 
ATOM     34  C   UNL d   1      22.657 -18.386   0.114  0.00  0.00     0.001 A 
ATOM     35  C   UNL d   1      22.191 -17.271  -0.534  0.00  0.00     0.001 A 
ATOM     36  C   UNL d   1      23.106 -16.356  -1.033  0.00  0.00     0.013 A 
ENDBRANCH  26  27
ENDBRANCH  25  26
ENDBRANCH  23  25
ENDBRANCH  19  20
ENDBRANCH   1  19
TORSDOF 10
ENDMDL
MODEL 6
REMARK VINA RESULT:    -8.698      4.222      7.069
REMARK INTER + INTRA:         -14.602
REMARK INTER:                 -11.681
REMARK INTRA:                  -2.921
REMARK CONF_INDEPENDENT:        2.983
REMARK UNBOUND:                -2.921
REMARK  10 active torsions:
REMARK  status: ('A' for Active; 'I' for Inactive)
REMARK    1  A    between atoms: C_2  and  C_3 
REMARK       I    between atoms: C_2  and  N_22 
REMARK    2  A    between atoms: C_3  and  S_4 
REMARK    3  A    between atoms: S_4  and  C_5 
REMARK    4  A    between atoms: C_8  and  S_9 
REMARK    5  A    between atoms: S_9  and  C_10 
REMARK    6  A    between atoms: C_10  and  C_11 
REMARK    7  A    between atoms: N_22  and  N_23 
REMARK    8  A    between atoms: C_24  and  C_25 
REMARK    9  A    between atoms: C_26  and  C_27 
REMARK   10  A    between atoms: C_32  and  N_33 
ROOT
ATOM      1  C   UNL d   1      27.853 -11.218  -6.016  0.00  0.00     0.186 C 
ENDROOT
BRANCH   1   2
ATOM      2  C   UNL d   1      26.330 -11.123  -6.204  0.00  0.00     0.247 C 
ATOM      3  O   UNL d   1      25.776 -10.383  -7.022  0.00  0.00    -0.271 OA
ATOM      4  N   UNL d   1      25.528 -11.915  -5.414  0.00  0.00    -0.247 N 
ATOM      5  H   UNL d   1      24.530 -11.816  -5.570  0.00  0.00     0.192 HD
BRANCH   4   6
ATOM      6  N   UNL d   1      26.013 -12.872  -4.585  0.00  0.00    -0.185 NA
ATOM      7  C   UNL d   1      25.142 -13.707  -4.105  0.00  0.00     0.139 C 
BRANCH   7   8
ATOM      8  C   UNL d   1      25.598 -14.786  -3.197  0.00  0.00     0.022 C 
ATOM      9  C   UNL d   1      24.780 -15.623  -2.540  0.00  0.00     0.015 C 
BRANCH   9  10
ATOM     10  C   UNL d   1      25.261 -16.468  -1.417  0.00  0.00    -0.003 A 
ATOM     11  C   UNL d   1      26.602 -16.275  -1.007  0.00  0.00     0.014 A 
ATOM     12  C   UNL d   1      27.198 -17.086  -0.029  0.00  0.00     0.001 A 
ATOM     13  C   UNL d   1      26.454 -18.064   0.616  0.00  0.00     0.002 A 
ATOM     14  C   UNL d   1      25.128 -18.273   0.245  0.00  0.00     0.037 A 
ATOM     15  C   UNL d   1      24.530 -17.500  -0.777  0.00  0.00     0.113 A 
BRANCH  15  16
ATOM     16  N   UNL d   1      23.139 -17.880  -1.119  0.00  0.00    -0.115 N 
ATOM     17  O   UNL d   1      22.227 -17.301  -0.526  0.00  0.00    -0.532 OA
ATOM     18  O   UNL d   1      22.941 -18.780  -1.954  0.00  0.00    -0.532 OA
ENDBRANCH  15  16
ENDBRANCH   9  10
ENDBRANCH   7   8
ENDBRANCH   4   6
ENDBRANCH   1   2
BRANCH   1  19
ATOM     19  S   UNL d   1      28.455 -12.617  -7.014  0.00  0.00    -0.092 SA
BRANCH  19  20
ATOM     20  C   UNL d   1      28.487 -13.971  -5.937  0.00  0.00     0.159 A 
ATOM     21  N   UNL d   1      27.873 -15.114  -6.142  0.00  0.00    -0.134 NA
ATOM     22  N   UNL d   1      28.006 -15.950  -5.047  0.00  0.00    -0.134 NA
ATOM     23  C   UNL d   1      28.747 -15.413  -4.095  0.00  0.00     0.159 A 
ATOM     24  S   UNL d   1      29.257 -13.828  -4.408  0.00  0.00    -0.033 SA
BRANCH  23  25
ATOM     25  S   UNL d   1      29.289 -16.400  -2.802  0.00  0.00    -0.097 SA
BRANCH  25  26
ATOM     26  C   UNL d   1      30.715 -17.407  -3.236  0.00  0.00     0.121 C 
BRANCH  26  27
ATOM     27  C   UNL d   1      30.838 -17.812  -4.726  0.00  0.00    -0.037 A 
ATOM     28  C   UNL d   1      30.403 -19.124  -5.039  0.00  0.00     0.009 A 
ATOM     29  C   UNL d   1      30.492 -19.630  -6.336  0.00  0.00     0.001 A 
ATOM     30  C   UNL d   1      31.013 -18.838  -7.355  0.00  0.00     0.012 A 
ATOM     31  C   UNL d   1      31.418 -17.517  -7.111  0.00  0.00    -0.025 A 
ATOM     32  C   UNL d   1      31.905 -16.724  -8.177  0.00  0.00     0.012 A 
ATOM     33  C   UNL d   1      31.326 -16.977  -5.803  0.00  0.00    -0.019 A 
ATOM     34  C   UNL d   1      32.325 -15.407  -7.992  0.00  0.00     0.001 A 
ATOM     35  C   UNL d   1      32.249 -14.856  -6.739  0.00  0.00     0.001 A 
ATOM     36  C   UNL d   1      31.734 -15.620  -5.702  0.00  0.00     0.013 A 
ENDBRANCH  26  27
ENDBRANCH  25  26
ENDBRANCH  23  25
ENDBRANCH  19  20
ENDBRANCH   1  19
TORSDOF 10
ENDMDL
MODEL 7
REMARK VINA RESULT:    -8.480      4.578      8.060
REMARK INTER + INTRA:         -13.989
REMARK INTER:                 -11.463
REMARK INTRA:                  -2.525
REMARK CONF_INDEPENDENT:        2.983
REMARK UNBOUND:                -2.525
REMARK  10 active torsions:
REMARK  status: ('A' for Active; 'I' for Inactive)
REMARK    1  A    between atoms: C_2  and  C_3 
REMARK       I    between atoms: C_2  and  N_22 
REMARK    2  A    between atoms: C_3  and  S_4 
REMARK    3  A    between atoms: S_4  and  C_5 
REMARK    4  A    between atoms: C_8  and  S_9 
REMARK    5  A    between atoms: S_9  and  C_10 
REMARK    6  A    between atoms: C_10  and  C_11 
REMARK    7  A    between atoms: N_22  and  N_23 
REMARK    8  A    between atoms: C_24  and  C_25 
REMARK    9  A    between atoms: C_26  and  C_27 
REMARK   10  A    between atoms: C_32  and  N_33 
ROOT
ATOM      1  C   UNL d   1      30.232 -12.902   7.789  0.00  0.00     0.186 C 
ENDROOT
BRANCH   1   2
ATOM      2  C   UNL d   1      29.713 -11.861   8.794  0.00  0.00     0.247 C 
ATOM      3  O   UNL d   1      30.021 -11.835   9.989  0.00  0.00    -0.271 OA
ATOM      4  N   UNL d   1      28.852 -10.890   8.336  0.00  0.00    -0.247 N 
ATOM      5  H   UNL d   1      28.533 -10.227   9.034  0.00  0.00     0.192 HD
BRANCH   4   6
ATOM      6  N   UNL d   1      28.553 -10.719   7.025  0.00  0.00    -0.185 NA
ATOM      7  C   UNL d   1      29.469 -10.154   6.298  0.00  0.00     0.139 C 
BRANCH   7   8
ATOM      8  C   UNL d   1      29.217  -9.940   4.853  0.00  0.00     0.022 C 
ATOM      9  C   UNL d   1      28.063 -10.228   4.232  0.00  0.00     0.015 C 
BRANCH   9  10
ATOM     10  C   UNL d   1      27.965 -10.291   2.751  0.00  0.00    -0.003 A 
ATOM     11  C   UNL d   1      28.780 -11.248   2.101  0.00  0.00     0.014 A 
ATOM     12  C   UNL d   1      28.851 -11.328   0.701  0.00  0.00     0.001 A 
ATOM     13  C   UNL d   1      28.059 -10.504  -0.086  0.00  0.00     0.002 A 
ATOM     14  C   UNL d   1      27.237  -9.559   0.521  0.00  0.00     0.037 A 
ATOM     15  C   UNL d   1      27.196  -9.429   1.928  0.00  0.00     0.113 A 
BRANCH  15  16
ATOM     16  N   UNL d   1      26.336  -8.334   2.433  0.00  0.00    -0.115 N 
ATOM     17  O   UNL d   1      25.343  -8.034   1.766  0.00  0.00    -0.532 OA
ATOM     18  O   UNL d   1      26.655  -7.739   3.477  0.00  0.00    -0.532 OA
ENDBRANCH  15  16
ENDBRANCH   9  10
ENDBRANCH   7   8
ENDBRANCH   4   6
ENDBRANCH   1   2
BRANCH   1  19
ATOM     19  S   UNL d   1      28.950 -14.181   7.594  0.00  0.00    -0.092 SA
BRANCH  19  20
ATOM     20  C   UNL d   1      28.463 -14.097   5.936  0.00  0.00     0.159 A 
ATOM     21  N   UNL d   1      27.335 -13.579   5.506  0.00  0.00    -0.134 NA
ATOM     22  N   UNL d   1      27.197 -13.763   4.140  0.00  0.00    -0.134 NA
ATOM     23  C   UNL d   1      28.243 -14.368   3.609  0.00  0.00     0.159 A 
ATOM     24  S   UNL d   1      29.424 -14.846   4.725  0.00  0.00    -0.033 SA
BRANCH  23  25
ATOM     25  S   UNL d   1      28.406 -14.407   1.903  0.00  0.00    -0.097 SA
BRANCH  25  26
ATOM     26  C   UNL d   1      26.912 -13.894   1.042  0.00  0.00     0.121 C 
BRANCH  26  27
ATOM     27  C   UNL d   1      26.445 -14.805  -0.120  0.00  0.00    -0.037 A 
ATOM     28  C   UNL d   1      26.195 -16.156   0.229  0.00  0.00     0.009 A 
ATOM     29  C   UNL d   1      25.804 -17.094  -0.727  0.00  0.00     0.001 A 
ATOM     30  C   UNL d   1      25.647 -16.707  -2.055  0.00  0.00     0.012 A 
ATOM     31  C   UNL d   1      25.839 -15.374  -2.448  0.00  0.00    -0.025 A 
ATOM     32  C   UNL d   1      25.631 -15.004  -3.798  0.00  0.00     0.012 A 
ATOM     33  C   UNL d   1      26.225 -14.400  -1.491  0.00  0.00    -0.019 A 
ATOM     34  C   UNL d   1      25.810 -13.695  -4.245  0.00  0.00     0.001 A 
ATOM     35  C   UNL d   1      26.183 -12.731  -3.345  0.00  0.00     0.001 A 
ATOM     36  C   UNL d   1      26.347 -13.085  -2.015  0.00  0.00     0.013 A 
ENDBRANCH  26  27
ENDBRANCH  25  26
ENDBRANCH  23  25
ENDBRANCH  19  20
ENDBRANCH   1  19
TORSDOF 10
ENDMDL
MODEL 8
REMARK VINA RESULT:    -8.233      2.608      3.399
REMARK INTER + INTRA:         -14.392
REMARK INTER:                 -11.216
REMARK INTRA:                  -3.177
REMARK CONF_INDEPENDENT:        2.983
REMARK UNBOUND:                -3.177
REMARK  10 active torsions:
REMARK  status: ('A' for Active; 'I' for Inactive)
REMARK    1  A    between atoms: C_2  and  C_3 
REMARK       I    between atoms: C_2  and  N_22 
REMARK    2  A    between atoms: C_3  and  S_4 
REMARK    3  A    between atoms: S_4  and  C_5 
REMARK    4  A    between atoms: C_8  and  S_9 
REMARK    5  A    between atoms: S_9  and  C_10 
REMARK    6  A    between atoms: C_10  and  C_11 
REMARK    7  A    between atoms: N_22  and  N_23 
REMARK    8  A    between atoms: C_24  and  C_25 
REMARK    9  A    between atoms: C_26  and  C_27 
REMARK   10  A    between atoms: C_32  and  N_33 
ROOT
ATOM      1  C   UNL d   1      30.397 -14.739  -6.082  0.00  0.00     0.186 C 
ENDROOT
BRANCH   1   2
ATOM      2  C   UNL d   1      30.393 -16.272  -5.959  0.00  0.00     0.247 C 
ATOM      3  O   UNL d   1      31.038 -17.029  -6.689  0.00  0.00    -0.271 OA
ATOM      4  N   UNL d   1      29.624 -16.841  -4.969  0.00  0.00    -0.247 N 
ATOM      5  H   UNL d   1      29.649 -17.855  -4.928  0.00  0.00     0.192 HD
BRANCH   4   6
ATOM      6  N   UNL d   1      28.989 -16.120  -4.013  0.00  0.00    -0.185 NA
ATOM      7  C   UNL d   1      29.739 -15.634  -3.070  0.00  0.00     0.139 C 
BRANCH   7   8
ATOM      8  C   UNL d   1      29.117 -14.829  -1.993  0.00  0.00     0.022 C 
ATOM      9  C   UNL d   1      29.719 -14.512  -0.836  0.00  0.00     0.015 C 
BRANCH   9  10
ATOM     10  C   UNL d   1      28.957 -13.981   0.324  0.00  0.00    -0.003 A 
ATOM     11  C   UNL d   1      28.932 -14.787   1.488  0.00  0.00     0.014 A 
ATOM     12  C   UNL d   1      28.159 -14.440   2.608  0.00  0.00     0.001 A 
ATOM     13  C   UNL d   1      27.448 -13.248   2.624  0.00  0.00     0.002 A 
ATOM     14  C   UNL d   1      27.461 -12.427   1.500  0.00  0.00     0.037 A 
ATOM     15  C   UNL d   1      28.190 -12.789   0.344  0.00  0.00     0.113 A 
BRANCH  15  16
ATOM     16  N   UNL d   1      28.053 -11.860  -0.802  0.00  0.00    -0.115 N 
ATOM     17  O   UNL d   1      28.990 -11.796  -1.600  0.00  0.00    -0.532 OA
ATOM     18  O   UNL d   1      27.029 -11.161  -0.901  0.00  0.00    -0.532 OA
ENDBRANCH  15  16
ENDBRANCH   9  10
ENDBRANCH   7   8
ENDBRANCH   4   6
ENDBRANCH   1   2
BRANCH   1  19
ATOM     19  S   UNL d   1      28.894 -14.244  -6.981  0.00  0.00    -0.092 SA
BRANCH  19  20
ATOM     20  C   UNL d   1      27.587 -14.517  -5.881  0.00  0.00     0.159 A 
ATOM     21  N   UNL d   1      26.762 -15.538  -5.926  0.00  0.00    -0.134 NA
ATOM     22  N   UNL d   1      25.764 -15.409  -4.975  0.00  0.00    -0.134 NA
ATOM     23  C   UNL d   1      25.914 -14.325  -4.237  0.00  0.00     0.159 A 
ATOM     24  S   UNL d   1      27.209 -13.333  -4.694  0.00  0.00    -0.033 SA
BRANCH  23  25
ATOM     25  S   UNL d   1      24.974 -14.149  -2.814  0.00  0.00    -0.097 SA
BRANCH  25  26
ATOM     26  C   UNL d   1      25.905 -14.486  -1.311  0.00  0.00     0.121 C 
BRANCH  26  27
ATOM     27  C   UNL d   1      25.815 -15.930  -0.760  0.00  0.00    -0.037 A 
ATOM     28  C   UNL d   1      27.039 -16.489  -0.315  0.00  0.00     0.009 A 
ATOM     29  C   UNL d   1      27.108 -17.795   0.171  0.00  0.00     0.001 A 
ATOM     30  C   UNL d   1      25.957 -18.575   0.230  0.00  0.00     0.012 A 
ATOM     31  C   UNL d   1      24.711 -18.059  -0.157  0.00  0.00    -0.025 A 
ATOM     32  C   UNL d   1      23.553 -18.864  -0.046  0.00  0.00     0.012 A 
ATOM     33  C   UNL d   1      24.614 -16.729  -0.643  0.00  0.00    -0.019 A 
ATOM     34  C   UNL d   1      22.290 -18.403  -0.420  0.00  0.00     0.001 A 
ATOM     35  C   UNL d   1      22.163 -17.123  -0.893  0.00  0.00     0.001 A 
ATOM     36  C   UNL d   1      23.292 -16.321  -0.964  0.00  0.00     0.013 A 
ENDBRANCH  26  27
ENDBRANCH  25  26
ENDBRANCH  23  25
ENDBRANCH  19  20
ENDBRANCH   1  19
TORSDOF 10
ENDMDL
MODEL 9
REMARK VINA RESULT:    -8.152      2.053      3.443
REMARK INTER + INTRA:         -13.946
REMARK INTER:                 -11.135
REMARK INTRA:                  -2.811
REMARK CONF_INDEPENDENT:        2.983
REMARK UNBOUND:                -2.811
REMARK  10 active torsions:
REMARK  status: ('A' for Active; 'I' for Inactive)
REMARK    1  A    between atoms: C_2  and  C_3 
REMARK       I    between atoms: C_2  and  N_22 
REMARK    2  A    between atoms: C_3  and  S_4 
REMARK    3  A    between atoms: S_4  and  C_5 
REMARK    4  A    between atoms: C_8  and  S_9 
REMARK    5  A    between atoms: S_9  and  C_10 
REMARK    6  A    between atoms: C_10  and  C_11 
REMARK    7  A    between atoms: N_22  and  N_23 
REMARK    8  A    between atoms: C_24  and  C_25 
REMARK    9  A    between atoms: C_26  and  C_27 
REMARK   10  A    between atoms: C_32  and  N_33 
ROOT
ATOM      1  C   UNL d   1      27.562 -12.222  -5.417  0.00  0.00     0.186 C 
ENDROOT
BRANCH   1   2
ATOM      2  C   UNL d   1      26.197 -11.533  -5.575  0.00  0.00     0.247 C 
ATOM      3  O   UNL d   1      25.591 -11.430  -6.645  0.00  0.00    -0.271 OA
ATOM      4  N   UNL d   1      25.606 -10.998  -4.453  0.00  0.00    -0.247 N 
ATOM      5  H   UNL d   1      24.708 -10.550  -4.605  0.00  0.00     0.192 HD
BRANCH   4   6
ATOM      6  N   UNL d   1      26.094 -11.172  -3.200  0.00  0.00    -0.185 NA
ATOM      7  C   UNL d   1      26.628 -10.126  -2.644  0.00  0.00     0.139 C 
BRANCH   7   8
ATOM      8  C   UNL d   1      27.178 -10.237  -1.273  0.00  0.00     0.022 C 
ATOM      9  C   UNL d   1      27.190  -9.240  -0.375  0.00  0.00     0.015 C 
BRANCH   9  10
ATOM     10  C   UNL d   1      28.021  -9.302   0.854  0.00  0.00    -0.003 A 
ATOM     11  C   UNL d   1      29.287  -9.924   0.734  0.00  0.00     0.014 A 
ATOM     12  C   UNL d   1      30.114 -10.135   1.848  0.00  0.00     0.001 A 
ATOM     13  C   UNL d   1      29.733  -9.670   3.099  0.00  0.00     0.002 A 
ATOM     14  C   UNL d   1      28.500  -9.043   3.251  0.00  0.00     0.037 A 
ATOM     15  C   UNL d   1      27.631  -8.872   2.148  0.00  0.00     0.113 A 
BRANCH  15  16
ATOM     16  N   UNL d   1      26.322  -8.257   2.469  0.00  0.00    -0.115 N 
ATOM     17  O   UNL d   1      25.315  -8.764   1.968  0.00  0.00    -0.532 OA
ATOM     18  O   UNL d   1      26.283  -7.247   3.192  0.00  0.00    -0.532 OA
ENDBRANCH  15  16
ENDBRANCH   9  10
ENDBRANCH   7   8
ENDBRANCH   4   6
ENDBRANCH   1   2
BRANCH   1  19
ATOM     19  S   UNL d   1      27.320 -14.009  -5.665  0.00  0.00    -0.092 SA
BRANCH  19  20
ATOM     20  C   UNL d   1      26.170 -14.490  -4.465  0.00  0.00     0.159 A 
ATOM     21  N   UNL d   1      24.929 -14.064  -4.395  0.00  0.00    -0.134 NA
ATOM     22  N   UNL d   1      24.303 -14.552  -3.261  0.00  0.00    -0.134 NA
ATOM     23  C   UNL d   1      25.087 -15.351  -2.562  0.00  0.00     0.159 A 
ATOM     24  S   UNL d   1      26.663 -15.499  -3.165  0.00  0.00    -0.033 SA
BRANCH  23  25
ATOM     25  S   UNL d   1      24.405 -16.298  -1.305  0.00  0.00    -0.097 SA
BRANCH  25  26
ATOM     26  C   UNL d   1      25.627 -17.285  -0.427  0.00  0.00     0.121 C 
BRANCH  26  27
ATOM     27  C   UNL d   1      27.010 -16.626  -0.209  0.00  0.00    -0.037 A 
ATOM     28  C   UNL d   1      28.128 -17.430  -0.545  0.00  0.00     0.009 A 
ATOM     29  C   UNL d   1      29.434 -16.972  -0.363  0.00  0.00     0.001 A 
ATOM     30  C   UNL d   1      29.658 -15.699   0.153  0.00  0.00     0.012 A 
ATOM     31  C   UNL d   1      28.589 -14.844   0.461  0.00  0.00    -0.025 A 
ATOM     32  C   UNL d   1      28.850 -13.541   0.945  0.00  0.00     0.012 A 
ATOM     33  C   UNL d   1      27.252 -15.283   0.274  0.00  0.00    -0.019 A 
ATOM     34  C   UNL d   1      27.827 -12.651   1.271  0.00  0.00     0.001 A 
ATOM     35  C   UNL d   1      26.525 -13.044   1.102  0.00  0.00     0.001 A 
ATOM     36  C   UNL d   1      26.269 -14.307   0.589  0.00  0.00     0.013 A 
ENDBRANCH  26  27
ENDBRANCH  25  26
ENDBRANCH  23  25
ENDBRANCH  19  20
ENDBRANCH   1  19
TORSDOF 10
ENDMDL
