MODEL 1
REMARK VINA RESULT:   -11.043      0.000      0.000
REMARK INTER + INTRA:         -15.045
REMARK INTER:                 -14.622
REMARK INTRA:                  -0.423
REMARK CONF_INDEPENDENT:        3.580
REMARK UNBOUND:                -0.423
REMARK  12 active torsions:
REMARK  status: ('A' for Active; 'I' for Inactive)
REMARK    1  A    between atoms: C_2  and  N_3 
REMARK    2  A    between atoms: N_3  and  C_4 
REMARK    3  A    between atoms: N_3  and  C_6 
REMARK    4  A    between atoms: C_6  and  C_7 
REMARK    5  A    between atoms: C_7  and  C_8 
REMARK    6  A    between atoms: C_8  and  N_9 
REMARK    7  A    between atoms: C_10  and  S_11 
REMARK    8  A    between atoms: S_11  and  C_12 
REMARK    9  A    between atoms: C_12  and  C_13 
REMARK   10  A    between atoms: C_15  and  N_16 
REMARK   11  A    between atoms: C_18  and  N_19 
REMARK   12  A    between atoms: N_19  and  C_20 
ROOT
ATOM      1  N   UNL d   1      26.169 -14.971  -2.168  0.00  0.00    -0.292 N 
ATOM      2  C   UNL d   1      26.869 -14.379  -1.121  0.00  0.00     0.172 A 
ATOM      3  N   UNL d   1      27.121 -13.101  -1.109  0.00  0.00    -0.224 NA
ATOM      4  C   UNL d   1      26.713 -12.294  -2.188  0.00  0.00     0.075 A 
ATOM      5  C   UNL d   1      27.084 -10.956  -2.282  0.00  0.00     0.032 C 
ATOM      6  C   UNL d   1      26.838 -10.236  -3.466  0.00  0.00     0.002 C 
ATOM      7  C   UNL d   1      26.007 -10.755  -4.458  0.00  0.00     0.001 C 
ATOM      8  C   UNL d   1      25.530 -12.041  -4.322  0.00  0.00     0.019 C 
ATOM      9  C   UNL d   1      25.983 -12.805  -3.247  0.00  0.00     0.061 A 
ATOM     10  C   UNL d   1      25.759 -14.232  -3.281  0.00  0.00     0.262 A 
ATOM     11  O   UNL d   1      25.221 -14.719  -4.261  0.00  0.00    -0.267 OA
ENDROOT
BRANCH   2  12
ATOM     12  S   UNL d   1      27.497 -15.232   0.297  0.00  0.00    -0.084 SA
BRANCH  12  13
ATOM     13  C   UNL d   1      27.520 -14.190   1.759  0.00  0.00     0.164 C 
BRANCH  13  14
ATOM     14  C   UNL d   1      28.581 -14.389   2.792  0.00  0.00     0.173 A 
ATOM     15  N   UNL d   1      29.835 -14.449   2.400  0.00  0.00    -0.046 NA
ATOM     16  C   UNL d   1      30.705 -14.577   3.377  0.00  0.00     0.737 A 
ATOM     17  N   UNL d   1      30.404 -14.690   4.672  0.00  0.00     0.130 NA
ATOM     18  C   UNL d   1      29.106 -14.703   4.972  0.00  0.00     0.744 A 
ATOM     19  N   UNL d   1      28.159 -14.561   4.048  0.00  0.00    -0.045 NA
BRANCH  16  20
ATOM     20  N   UNL d   1      32.003 -14.579   2.963  0.00  0.00    -0.230 N 
ATOM     21  H   UNL d   1      32.173 -14.274   2.016  0.00  0.00     0.174 HD
ATOM     22  H   UNL d   1      32.740 -14.799   3.605  0.00  0.00     0.174 HD
ENDBRANCH  16  20
BRANCH  18  23
ATOM     23  N   UNL d   1      28.724 -14.825   6.319  0.00  0.00    -0.188 N 
ATOM     24  H   UNL d   1      28.515 -15.776   6.585  0.00  0.00     0.184 HD
BRANCH  23  25
ATOM     25  C   UNL d   1      28.795 -13.844   7.322  0.00  0.00     0.049 A 
ATOM     26  C   UNL d   1      28.941 -14.219   8.665  0.00  0.00     0.030 A 
ATOM     27  C   UNL d   1      28.770 -13.299   9.701  0.00  0.00     0.002 A 
ATOM     28  C   UNL d   1      28.545 -11.959   9.408  0.00  0.00     0.000 A 
ATOM     29  C   UNL d   1      28.531 -11.541   8.078  0.00  0.00     0.002 A 
ATOM     30  C   UNL d   1      28.617 -12.483   7.039  0.00  0.00     0.030 A 
ENDBRANCH  23  25
ENDBRANCH  18  23
ENDBRANCH  13  14
ENDBRANCH  12  13
ENDBRANCH   2  12
BRANCH   1  31
ATOM     31  C   UNL d   1      25.709 -16.325  -2.293  0.00  0.00     0.136 C 
BRANCH  31  32
ATOM     32  C   UNL d   1      24.411 -16.551  -1.549  0.00  0.00     0.048 C 
BRANCH  32  33
ATOM     33  C   UNL d   1      23.960 -17.979  -1.737  0.00  0.00     0.236 C 
BRANCH  33  34
ATOM     34  N   UNL d   1      23.587 -18.573  -0.387  0.00  0.00    -0.072 N 
ATOM     35  H   UNL d   1      23.641 -19.598  -0.499  0.00  0.00     0.279 HD
BRANCH  34  36
ATOM     36  C   UNL d   1      24.648 -18.148   0.605  0.00  0.00     0.230 C 
ATOM     37  C   UNL d   1      26.042 -18.575   0.208  0.00  0.00     0.034 C 
ENDBRANCH  34  36
BRANCH  34  38
ATOM     38  C   UNL d   1      22.154 -18.198  -0.027  0.00  0.00     0.230 C 
ATOM     39  C   UNL d   1      21.192 -19.359  -0.014  0.00  0.00     0.034 C 
ENDBRANCH  34  38
ENDBRANCH  33  34
ENDBRANCH  32  33
ENDBRANCH  31  32
ENDBRANCH   1  31
TORSDOF 12
ENDMDL
MODEL 2
REMARK VINA RESULT:   -10.799      1.311      5.132
REMARK INTER + INTRA:         -14.919
REMARK INTER:                 -14.379
REMARK INTRA:                  -0.540
REMARK CONF_INDEPENDENT:        3.580
REMARK UNBOUND:                -0.540
REMARK  12 active torsions:
REMARK  status: ('A' for Active; 'I' for Inactive)
REMARK    1  A    between atoms: C_2  and  N_3 
REMARK    2  A    between atoms: N_3  and  C_4 
REMARK    3  A    between atoms: N_3  and  C_6 
REMARK    4  A    between atoms: C_6  and  C_7 
REMARK    5  A    between atoms: C_7  and  C_8 
REMARK    6  A    between atoms: C_8  and  N_9 
REMARK    7  A    between atoms: C_10  and  S_11 
REMARK    8  A    between atoms: S_11  and  C_12 
REMARK    9  A    between atoms: C_12  and  C_13 
REMARK   10  A    between atoms: C_15  and  N_16 
REMARK   11  A    between atoms: C_18  and  N_19 
REMARK   12  A    between atoms: N_19  and  C_20 
ROOT
ATOM      1  N   UNL d   1      26.505 -15.054  -1.859  0.00  0.00    -0.292 N 
ATOM      2  C   UNL d   1      26.855 -15.133  -0.515  0.00  0.00     0.172 A 
ATOM      3  N   UNL d   1      26.339 -16.035   0.271  0.00  0.00    -0.224 NA
ATOM      4  C   UNL d   1      25.379 -16.935  -0.229  0.00  0.00     0.075 A 
ATOM      5  C   UNL d   1      24.701 -17.818   0.605  0.00  0.00     0.032 C 
ATOM      6  C   UNL d   1      23.607 -18.554   0.115  0.00  0.00     0.002 C 
ATOM      7  C   UNL d   1      23.339 -18.612  -1.252  0.00  0.00     0.001 C 
ATOM      8  C   UNL d   1      24.084 -17.831  -2.110  0.00  0.00     0.019 C 
ATOM      9  C   UNL d   1      25.006 -16.940  -1.562  0.00  0.00     0.061 A 
ATOM     10  C   UNL d   1      25.539 -15.900  -2.411  0.00  0.00     0.262 A 
ATOM     11  O   UNL d   1      25.135 -15.814  -3.559  0.00  0.00    -0.267 OA
ENDROOT
BRANCH   2  12
ATOM     12  S   UNL d   1      28.008 -14.067   0.302  0.00  0.00    -0.084 SA
BRANCH  12  13
ATOM     13  C   UNL d   1      27.630 -13.871   2.047  0.00  0.00     0.164 C 
BRANCH  13  14
ATOM     14  C   UNL d   1      28.652 -14.247   3.071  0.00  0.00     0.173 A 
ATOM     15  N   UNL d   1      29.887 -14.461   2.676  0.00  0.00    -0.046 NA
ATOM     16  C   UNL d   1      30.730 -14.738   3.646  0.00  0.00     0.737 A 
ATOM     17  N   UNL d   1      30.412 -14.854   4.937  0.00  0.00     0.130 NA
ATOM     18  C   UNL d   1      29.123 -14.703   5.238  0.00  0.00     0.744 A 
ATOM     19  N   UNL d   1      28.206 -14.404   4.322  0.00  0.00    -0.045 NA
BRANCH  16  20
ATOM     20  N   UNL d   1      32.017 -14.900   3.231  0.00  0.00    -0.230 N 
ATOM     21  H   UNL d   1      32.730 -14.472   3.802  0.00  0.00     0.174 HD
ATOM     22  H   UNL d   1      32.227 -15.484   2.444  0.00  0.00     0.174 HD
ENDBRANCH  16  20
BRANCH  18  23
ATOM     23  N   UNL d   1      28.723 -14.818   6.581  0.00  0.00    -0.188 N 
ATOM     24  H   UNL d   1      28.427 -15.752   6.825  0.00  0.00     0.184 HD
BRANCH  23  25
ATOM     25  C   UNL d   1      28.879 -13.870   7.605  0.00  0.00     0.049 A 
ATOM     26  C   UNL d   1      28.487 -12.540   7.399  0.00  0.00     0.030 A 
ATOM     27  C   UNL d   1      28.847 -11.527   8.291  0.00  0.00     0.002 A 
ATOM     28  C   UNL d   1      29.527 -11.845   9.461  0.00  0.00     0.000 A 
ATOM     29  C   UNL d   1      29.808 -13.179   9.751  0.00  0.00     0.002 A 
ATOM     30  C   UNL d   1      29.520 -14.183   8.811  0.00  0.00     0.030 A 
ENDBRANCH  23  25
ENDBRANCH  18  23
ENDBRANCH  13  14
ENDBRANCH  12  13
ENDBRANCH   2  12
BRANCH   1  31
ATOM     31  C   UNL d   1      27.049 -14.210  -2.885  0.00  0.00     0.136 C 
BRANCH  31  32
ATOM     32  C   UNL d   1      26.220 -12.961  -3.086  0.00  0.00     0.048 C 
BRANCH  32  33
ATOM     33  C   UNL d   1      25.728 -12.902  -4.511  0.00  0.00     0.236 C 
BRANCH  33  34
ATOM     34  N   UNL d   1      25.743 -11.459  -4.992  0.00  0.00    -0.072 N 
ATOM     35  H   UNL d   1      24.784 -11.252  -5.311  0.00  0.00     0.279 HD
BRANCH  34  36
ATOM     36  C   UNL d   1      26.044 -10.584  -3.793  0.00  0.00     0.230 C 
ATOM     37  C   UNL d   1      25.258  -9.294  -3.784  0.00  0.00     0.034 C 
ENDBRANCH  34  36
BRANCH  34  38
ATOM     38  C   UNL d   1      26.691 -11.310  -6.176  0.00  0.00     0.230 C 
ATOM     39  C   UNL d   1      27.715 -12.410  -6.295  0.00  0.00     0.034 C 
ENDBRANCH  34  38
ENDBRANCH  33  34
ENDBRANCH  32  33
ENDBRANCH  31  32
ENDBRANCH   1  31
TORSDOF 12
ENDMDL
MODEL 3
REMARK VINA RESULT:   -10.030      3.207      5.540
REMARK INTER + INTRA:         -14.649
REMARK INTER:                 -13.609
REMARK INTRA:                  -1.039
REMARK CONF_INDEPENDENT:        3.580
REMARK UNBOUND:                -1.039
REMARK  12 active torsions:
REMARK  status: ('A' for Active; 'I' for Inactive)
REMARK    1  A    between atoms: C_2  and  N_3 
REMARK    2  A    between atoms: N_3  and  C_4 
REMARK    3  A    between atoms: N_3  and  C_6 
REMARK    4  A    between atoms: C_6  and  C_7 
REMARK    5  A    between atoms: C_7  and  C_8 
REMARK    6  A    between atoms: C_8  and  N_9 
REMARK    7  A    between atoms: C_10  and  S_11 
REMARK    8  A    between atoms: S_11  and  C_12 
REMARK    9  A    between atoms: C_12  and  C_13 
REMARK   10  A    between atoms: C_15  and  N_16 
REMARK   11  A    between atoms: C_18  and  N_19 
REMARK   12  A    between atoms: N_19  and  C_20 
ROOT
ATOM      1  N   UNL d   1      25.924 -14.766  -2.372  0.00  0.00    -0.292 N 
ATOM      2  C   UNL d   1      26.311 -13.932  -1.328  0.00  0.00     0.172 A 
ATOM      3  N   UNL d   1      26.476 -12.652  -1.506  0.00  0.00    -0.224 NA
ATOM      4  C   UNL d   1      26.298 -12.091  -2.785  0.00  0.00     0.075 A 
ATOM      5  C   UNL d   1      26.601 -10.759  -3.048  0.00  0.00     0.032 C 
ATOM      6  C   UNL d   1      26.611 -10.285  -4.373  0.00  0.00     0.002 C 
ATOM      7  C   UNL d   1      26.079 -11.051  -5.410  0.00  0.00     0.001 C 
ATOM      8  C   UNL d   1      25.660 -12.337  -5.141  0.00  0.00     0.019 C 
ATOM      9  C   UNL d   1      25.881 -12.851  -3.864  0.00  0.00     0.061 A 
ATOM     10  C   UNL d   1      25.756 -14.278  -3.671  0.00  0.00     0.262 A 
ATOM     11  O   UNL d   1      25.505 -14.981  -4.636  0.00  0.00    -0.267 OA
ENDROOT
BRANCH   2  12
ATOM     12  S   UNL d   1      26.622 -14.456   0.333  0.00  0.00    -0.084 SA
BRANCH  12  13
ATOM     13  C   UNL d   1      28.099 -13.698   1.017  0.00  0.00     0.164 C 
BRANCH  13  14
ATOM     14  C   UNL d   1      29.329 -14.523   1.216  0.00  0.00     0.173 A 
ATOM     15  N   UNL d   1      30.208 -14.134   2.113  0.00  0.00    -0.046 NA
ATOM     16  C   UNL d   1      31.235 -14.942   2.257  0.00  0.00     0.737 A 
ATOM     17  N   UNL d   1      31.450 -16.053   1.550  0.00  0.00     0.130 NA
ATOM     18  C   UNL d   1      30.552 -16.329   0.605  0.00  0.00     0.744 A 
ATOM     19  N   UNL d   1      29.474 -15.575   0.403  0.00  0.00    -0.045 NA
BRANCH  16  20
ATOM     20  N   UNL d   1      32.107 -14.558   3.230  0.00  0.00    -0.230 N 
ATOM     21  H   UNL d   1      31.723 -14.437   4.155  0.00  0.00     0.174 HD
ATOM     22  H   UNL d   1      33.087 -14.484   3.033  0.00  0.00     0.174 HD
ENDBRANCH  16  20
BRANCH  18  23
ATOM     23  N   UNL d   1      30.725 -17.483  -0.178  0.00  0.00    -0.188 N 
ATOM     24  H   UNL d   1      30.891 -18.312   0.374  0.00  0.00     0.184 HD
BRANCH  23  25
ATOM     25  C   UNL d   1      30.501 -17.625  -1.557  0.00  0.00     0.049 A 
ATOM     26  C   UNL d   1      31.188 -18.606  -2.285  0.00  0.00     0.030 A 
ATOM     27  C   UNL d   1      31.179 -18.617  -3.682  0.00  0.00     0.002 A 
ATOM     28  C   UNL d   1      30.400 -17.700  -4.377  0.00  0.00     0.000 A 
ATOM     29  C   UNL d   1      29.602 -16.801  -3.669  0.00  0.00     0.002 A 
ATOM     30  C   UNL d   1      29.682 -16.738  -2.268  0.00  0.00     0.030 A 
ENDBRANCH  23  25
ENDBRANCH  18  23
ENDBRANCH  13  14
ENDBRANCH  12  13
ENDBRANCH   2  12
BRANCH   1  31
ATOM     31  C   UNL d   1      25.589 -16.161  -2.335  0.00  0.00     0.136 C 
BRANCH  31  32
ATOM     32  C   UNL d   1      24.335 -16.420  -1.529  0.00  0.00     0.048 C 
BRANCH  32  33
ATOM     33  C   UNL d   1      23.912 -17.858  -1.697  0.00  0.00     0.236 C 
BRANCH  33  34
ATOM     34  N   UNL d   1      23.917 -18.548  -0.341  0.00  0.00    -0.072 N 
ATOM     35  H   UNL d   1      24.221 -19.519  -0.513  0.00  0.00     0.279 HD
BRANCH  34  36
ATOM     36  C   UNL d   1      24.965 -17.865   0.511  0.00  0.00     0.230 C 
ATOM     37  C   UNL d   1      26.350 -18.442   0.330  0.00  0.00     0.034 C 
ENDBRANCH  34  36
BRANCH  34  38
ATOM     38  C   UNL d   1      22.507 -18.577   0.238  0.00  0.00     0.230 C 
ATOM     39  C   UNL d   1      21.428 -18.892  -0.765  0.00  0.00     0.034 C 
ENDBRANCH  34  38
ENDBRANCH  33  34
ENDBRANCH  32  33
ENDBRANCH  31  32
ENDBRANCH   1  31
TORSDOF 12
ENDMDL
MODEL 4
REMARK VINA RESULT:    -9.815      2.758      5.079
REMARK INTER + INTRA:         -14.692
REMARK INTER:                 -13.395
REMARK INTRA:                  -1.297
REMARK CONF_INDEPENDENT:        3.580
REMARK UNBOUND:                -1.297
REMARK  12 active torsions:
REMARK  status: ('A' for Active; 'I' for Inactive)
REMARK    1  A    between atoms: C_2  and  N_3 
REMARK    2  A    between atoms: N_3  and  C_4 
REMARK    3  A    between atoms: N_3  and  C_6 
REMARK    4  A    between atoms: C_6  and  C_7 
REMARK    5  A    between atoms: C_7  and  C_8 
REMARK    6  A    between atoms: C_8  and  N_9 
REMARK    7  A    between atoms: C_10  and  S_11 
REMARK    8  A    between atoms: S_11  and  C_12 
REMARK    9  A    between atoms: C_12  and  C_13 
REMARK   10  A    between atoms: C_15  and  N_16 
REMARK   11  A    between atoms: C_18  and  N_19 
REMARK   12  A    between atoms: N_19  and  C_20 
ROOT
ATOM      1  N   UNL d   1      28.038 -15.913   0.117  0.00  0.00    -0.292 N 
ATOM      2  C   UNL d   1      27.232 -14.779   0.112  0.00  0.00     0.172 A 
ATOM      3  N   UNL d   1      25.937 -14.866   0.005  0.00  0.00    -0.224 NA
ATOM      4  C   UNL d   1      25.328 -16.127  -0.144  0.00  0.00     0.075 A 
ATOM      5  C   UNL d   1      23.967 -16.255  -0.403  0.00  0.00     0.032 C 
ATOM      6  C   UNL d   1      23.429 -17.508  -0.752  0.00  0.00     0.002 C 
ATOM      7  C   UNL d   1      24.177 -18.674  -0.602  0.00  0.00     0.001 C 
ATOM      8  C   UNL d   1      25.500 -18.573  -0.227  0.00  0.00     0.019 C 
ATOM      9  C   UNL d   1      26.060 -17.301  -0.114  0.00  0.00     0.061 A 
ATOM     10  C   UNL d   1      27.500 -17.191  -0.055  0.00  0.00     0.262 A 
ATOM     11  O   UNL d   1      28.170 -18.206  -0.145  0.00  0.00    -0.267 OA
ENDROOT
BRANCH   2  12
ATOM     12  S   UNL d   1      27.815 -13.113   0.247  0.00  0.00    -0.084 SA
BRANCH  12  13
ATOM     13  C   UNL d   1      28.006 -12.600   1.957  0.00  0.00     0.164 C 
BRANCH  13  14
ATOM     14  C   UNL d   1      28.879 -13.394   2.875  0.00  0.00     0.173 A 
ATOM     15  N   UNL d   1      30.045 -13.807   2.430  0.00  0.00    -0.046 NA
ATOM     16  C   UNL d   1      30.767 -14.455   3.316  0.00  0.00     0.737 A 
ATOM     17  N   UNL d   1      30.387 -14.745   4.562  0.00  0.00     0.130 NA
ATOM     18  C   UNL d   1      29.157 -14.361   4.903  0.00  0.00     0.744 A 
ATOM     19  N   UNL d   1      28.366 -13.685   4.074  0.00  0.00    -0.045 NA
BRANCH  16  20
ATOM     20  N   UNL d   1      31.997 -14.826   2.862  0.00  0.00    -0.230 N 
ATOM     21  H   UNL d   1      32.788 -14.523   3.410  0.00  0.00     0.174 HD
ATOM     22  H   UNL d   1      32.083 -15.434   2.070  0.00  0.00     0.174 HD
ENDBRANCH  16  20
BRANCH  18  23
ATOM     23  N   UNL d   1      28.696 -14.641   6.200  0.00  0.00    -0.188 N 
ATOM     24  H   UNL d   1      28.545 -15.627   6.361  0.00  0.00     0.184 HD
BRANCH  23  25
ATOM     25  C   UNL d   1      28.623 -13.761   7.292  0.00  0.00     0.049 A 
ATOM     26  C   UNL d   1      28.370 -12.398   7.083  0.00  0.00     0.030 A 
ATOM     27  C   UNL d   1      28.533 -11.461   8.104  0.00  0.00     0.002 A 
ATOM     28  C   UNL d   1      28.861 -11.884   9.387  0.00  0.00     0.000 A 
ATOM     29  C   UNL d   1      28.985 -13.248   9.648  0.00  0.00     0.002 A 
ATOM     30  C   UNL d   1      28.905 -14.179   8.599  0.00  0.00     0.030 A 
ENDBRANCH  23  25
ENDBRANCH  18  23
ENDBRANCH  13  14
ENDBRANCH  12  13
ENDBRANCH   2  12
BRANCH   1  31
ATOM     31  C   UNL d   1      29.454 -16.012   0.336  0.00  0.00     0.136 C 
BRANCH  31  32
ATOM     32  C   UNL d   1      30.215 -16.179  -0.960  0.00  0.00     0.048 C 
BRANCH  32  33
ATOM     33  C   UNL d   1      31.495 -16.937  -0.703  0.00  0.00     0.236 C 
BRANCH  33  34
ATOM     34  N   UNL d   1      31.164 -18.313  -0.146  0.00  0.00    -0.072 N 
ATOM     35  H   UNL d   1      30.306 -18.197   0.416  0.00  0.00     0.279 HD
BRANCH  34  36
ATOM     36  C   UNL d   1      30.845 -19.213  -1.320  0.00  0.00     0.230 C 
ATOM     37  C   UNL d   1      31.293 -18.646  -2.647  0.00  0.00     0.034 C 
ENDBRANCH  34  36
BRANCH  34  38
ATOM     38  C   UNL d   1      32.284 -18.790   0.771  0.00  0.00     0.230 C 
ATOM     39  C   UNL d   1      32.495 -17.935   1.994  0.00  0.00     0.034 C 
ENDBRANCH  34  38
ENDBRANCH  33  34
ENDBRANCH  32  33
ENDBRANCH  31  32
ENDBRANCH   1  31
TORSDOF 12
ENDMDL
MODEL 5
REMARK VINA RESULT:    -9.659      4.449      7.467
REMARK INTER + INTRA:         -14.639
REMARK INTER:                 -13.239
REMARK INTRA:                  -1.400
REMARK CONF_INDEPENDENT:        3.580
REMARK UNBOUND:                -1.400
REMARK  12 active torsions:
REMARK  status: ('A' for Active; 'I' for Inactive)
REMARK    1  A    between atoms: C_2  and  N_3 
REMARK    2  A    between atoms: N_3  and  C_4 
REMARK    3  A    between atoms: N_3  and  C_6 
REMARK    4  A    between atoms: C_6  and  C_7 
REMARK    5  A    between atoms: C_7  and  C_8 
REMARK    6  A    between atoms: C_8  and  N_9 
REMARK    7  A    between atoms: C_10  and  S_11 
REMARK    8  A    between atoms: S_11  and  C_12 
REMARK    9  A    between atoms: C_12  and  C_13 
REMARK   10  A    between atoms: C_15  and  N_16 
REMARK   11  A    between atoms: C_18  and  N_19 
REMARK   12  A    between atoms: N_19  and  C_20 
ROOT
ATOM      1  N   UNL d   1      29.264 -15.834  -4.894  0.00  0.00    -0.292 N 
ATOM      2  C   UNL d   1      29.583 -15.862  -3.541  0.00  0.00     0.172 A 
ATOM      3  N   UNL d   1      28.749 -15.433  -2.637  0.00  0.00    -0.224 NA
ATOM      4  C   UNL d   1      27.507 -14.894  -3.026  0.00  0.00     0.075 A 
ATOM      5  C   UNL d   1      26.650 -14.297  -2.108  0.00  0.00     0.032 C 
ATOM      6  C   UNL d   1      25.520 -13.587  -2.554  0.00  0.00     0.002 C 
ATOM      7  C   UNL d   1      25.098 -13.676  -3.880  0.00  0.00     0.001 C 
ATOM      8  C   UNL d   1      25.876 -14.369  -4.782  0.00  0.00     0.019 C 
ATOM      9  C   UNL d   1      27.107 -14.864  -4.350  0.00  0.00     0.061 A 
ATOM     10  C   UNL d   1      28.061 -15.287  -5.349  0.00  0.00     0.262 A 
ATOM     11  O   UNL d   1      27.773 -15.159  -6.527  0.00  0.00    -0.267 OA
ENDROOT
BRANCH   2  12
ATOM     12  S   UNL d   1      31.104 -16.462  -2.863  0.00  0.00    -0.084 SA
BRANCH  12  13
ATOM     13  C   UNL d   1      30.860 -17.319  -1.304  0.00  0.00     0.164 C 
BRANCH  13  14
ATOM     14  C   UNL d   1      29.643 -17.032  -0.485  0.00  0.00     0.173 A 
ATOM     15  N   UNL d   1      29.667 -16.007   0.336  0.00  0.00    -0.046 NA
ATOM     16  C   UNL d   1      28.540 -15.798   0.981  0.00  0.00     0.737 A 
ATOM     17  N   UNL d   1      27.445 -16.555   0.889  0.00  0.00     0.130 NA
ATOM     18  C   UNL d   1      27.536 -17.622   0.097  0.00  0.00     0.744 A 
ATOM     19  N   UNL d   1      28.632 -17.899  -0.606  0.00  0.00    -0.045 NA
BRANCH  16  20
ATOM     20  N   UNL d   1      28.559 -14.699   1.784  0.00  0.00    -0.230 N 
ATOM     21  H   UNL d   1      28.051 -13.892   1.452  0.00  0.00     0.174 HD
ATOM     22  H   UNL d   1      28.992 -14.737   2.687  0.00  0.00     0.174 HD
ENDBRANCH  16  20
BRANCH  18  23
ATOM     23  N   UNL d   1      26.417 -18.462  -0.039  0.00  0.00    -0.188 N 
ATOM     24  H   UNL d   1      26.588 -19.402   0.291  0.00  0.00     0.184 HD
BRANCH  23  25
ATOM     25  C   UNL d   1      25.104 -18.094  -0.377  0.00  0.00     0.049 A 
ATOM     26  C   UNL d   1      24.838 -16.807  -0.864  0.00  0.00     0.030 A 
ATOM     27  C   UNL d   1      23.532 -16.325  -0.976  0.00  0.00     0.002 A 
ATOM     28  C   UNL d   1      22.459 -17.162  -0.692  0.00  0.00     0.000 A 
ATOM     29  C   UNL d   1      22.699 -18.489  -0.336  0.00  0.00     0.002 A 
ATOM     30  C   UNL d   1      24.014 -18.941  -0.141  0.00  0.00     0.030 A 
ENDBRANCH  23  25
ENDBRANCH  18  23
ENDBRANCH  13  14
ENDBRANCH  12  13
ENDBRANCH   2  12
BRANCH   1  31
ATOM     31  C   UNL d   1      30.004 -16.362  -6.006  0.00  0.00     0.136 C 
BRANCH  31  32
ATOM     32  C   UNL d   1      30.347 -17.822  -5.814  0.00  0.00     0.048 C 
BRANCH  32  33
ATOM     33  C   UNL d   1      30.918 -18.382  -7.093  0.00  0.00     0.236 C 
BRANCH  33  34
ATOM     34  N   UNL d   1      30.532 -19.848  -7.221  0.00  0.00    -0.072 N 
ATOM     35  H   UNL d   1      29.514 -19.863  -7.393  0.00  0.00     0.279 HD
BRANCH  34  36
ATOM     36  C   UNL d   1      31.230 -20.396  -8.447  0.00  0.00     0.230 C 
ATOM     37  C   UNL d   1      30.800 -19.722  -9.729  0.00  0.00     0.034 C 
ENDBRANCH  34  36
BRANCH  34  38
ATOM     38  C   UNL d   1      30.814 -20.581  -5.915  0.00  0.00     0.230 C 
ATOM     39  C   UNL d   1      32.224 -20.424  -5.405  0.00  0.00     0.034 C 
ENDBRANCH  34  38
ENDBRANCH  33  34
ENDBRANCH  32  33
ENDBRANCH  31  32
ENDBRANCH   1  31
TORSDOF 12
ENDMDL
MODEL 6
REMARK VINA RESULT:    -9.429      3.701      6.158
REMARK INTER + INTRA:         -14.908
REMARK INTER:                 -13.009
REMARK INTRA:                  -1.899
REMARK CONF_INDEPENDENT:        3.580
REMARK UNBOUND:                -1.899
REMARK  12 active torsions:
REMARK  status: ('A' for Active; 'I' for Inactive)
REMARK    1  A    between atoms: C_2  and  N_3 
REMARK    2  A    between atoms: N_3  and  C_4 
REMARK    3  A    between atoms: N_3  and  C_6 
REMARK    4  A    between atoms: C_6  and  C_7 
REMARK    5  A    between atoms: C_7  and  C_8 
REMARK    6  A    between atoms: C_8  and  N_9 
REMARK    7  A    between atoms: C_10  and  S_11 
REMARK    8  A    between atoms: S_11  and  C_12 
REMARK    9  A    between atoms: C_12  and  C_13 
REMARK   10  A    between atoms: C_15  and  N_16 
REMARK   11  A    between atoms: C_18  and  N_19 
REMARK   12  A    between atoms: N_19  and  C_20 
ROOT
ATOM      1  N   UNL d   1      26.166 -14.826  -2.744  0.00  0.00    -0.292 N 
ATOM      2  C   UNL d   1      27.171 -14.301  -1.938  0.00  0.00     0.172 A 
ATOM      3  N   UNL d   1      28.313 -13.920  -2.436  0.00  0.00    -0.224 NA
ATOM      4  C   UNL d   1      28.563 -14.068  -3.814  0.00  0.00     0.075 A 
ATOM      5  C   UNL d   1      29.815 -13.807  -4.362  0.00  0.00     0.032 C 
ATOM      6  C   UNL d   1      30.090 -14.160  -5.695  0.00  0.00     0.002 C 
ATOM      7  C   UNL d   1      29.064 -14.537  -6.561  0.00  0.00     0.001 C 
ATOM      8  C   UNL d   1      27.789 -14.684  -6.058  0.00  0.00     0.019 C 
ATOM      9  C   UNL d   1      27.600 -14.549  -4.683  0.00  0.00     0.061 A 
ATOM     10  C   UNL d   1      26.359 -15.023  -4.114  0.00  0.00     0.262 A 
ATOM     11  O   UNL d   1      25.544 -15.558  -4.847  0.00  0.00    -0.267 OA
ENDROOT
BRANCH   2  12
ATOM     12  S   UNL d   1      27.060 -14.078  -0.186  0.00  0.00    -0.084 SA
BRANCH  12  13
ATOM     13  C   UNL d   1      28.609 -13.512   0.525  0.00  0.00     0.164 C 
BRANCH  13  14
ATOM     14  C   UNL d   1      29.683 -14.502   0.842  0.00  0.00     0.173 A 
ATOM     15  N   UNL d   1      30.543 -14.211   1.793  0.00  0.00    -0.046 NA
ATOM     16  C   UNL d   1      31.422 -15.156   2.040  0.00  0.00     0.737 A 
ATOM     17  N   UNL d   1      31.517 -16.315   1.385  0.00  0.00     0.130 NA
ATOM     18  C   UNL d   1      30.658 -16.493   0.382  0.00  0.00     0.744 A 
ATOM     19  N   UNL d   1      29.724 -15.596   0.075  0.00  0.00    -0.045 NA
BRANCH  16  20
ATOM     20  N   UNL d   1      32.271 -14.867   3.065  0.00  0.00    -0.230 N 
ATOM     21  H   UNL d   1      31.879 -14.899   3.994  0.00  0.00     0.174 HD
ATOM     22  H   UNL d   1      33.245 -14.712   2.890  0.00  0.00     0.174 HD
ENDBRANCH  16  20
BRANCH  18  23
ATOM     23  N   UNL d   1      30.710 -17.691  -0.350  0.00  0.00    -0.188 N 
ATOM     24  H   UNL d   1      30.659 -18.513   0.235  0.00  0.00     0.184 HD
BRANCH  23  25
ATOM     25  C   UNL d   1      30.626 -17.849  -1.743  0.00  0.00     0.049 A 
ATOM     26  C   UNL d   1      31.494 -18.728  -2.406  0.00  0.00     0.030 A 
ATOM     27  C   UNL d   1      31.608 -18.728  -3.798  0.00  0.00     0.002 A 
ATOM     28  C   UNL d   1      30.781 -17.912  -4.561  0.00  0.00     0.000 A 
ATOM     29  C   UNL d   1      29.817 -17.128  -3.928  0.00  0.00     0.002 A 
ATOM     30  C   UNL d   1      29.766 -17.067  -2.525  0.00  0.00     0.030 A 
ENDBRANCH  23  25
ENDBRANCH  18  23
ENDBRANCH  13  14
ENDBRANCH  12  13
ENDBRANCH   2  12
BRANCH   1  31
ATOM     31  C   UNL d   1      24.823 -15.187  -2.390  0.00  0.00     0.136 C 
BRANCH  31  32
ATOM     32  C   UNL d   1      24.740 -16.602  -1.860  0.00  0.00     0.048 C 
BRANCH  32  33
ATOM     33  C   UNL d   1      24.586 -16.573  -0.359  0.00  0.00     0.236 C 
BRANCH  33  34
ATOM     34  N   UNL d   1      24.621 -17.994   0.180  0.00  0.00    -0.072 N 
ATOM     35  H   UNL d   1      24.353 -17.931   1.175  0.00  0.00     0.279 HD
BRANCH  34  36
ATOM     36  C   UNL d   1      23.554 -18.783  -0.549  0.00  0.00     0.230 C 
ATOM     37  C   UNL d   1      22.200 -18.114  -0.529  0.00  0.00     0.034 C 
ENDBRANCH  34  36
BRANCH  34  38
ATOM     38  C   UNL d   1      26.036 -18.554   0.093  0.00  0.00     0.230 C 
ATOM     39  C   UNL d   1      27.124 -17.521   0.240  0.00  0.00     0.034 C 
ENDBRANCH  34  38
ENDBRANCH  33  34
ENDBRANCH  32  33
ENDBRANCH  31  32
ENDBRANCH   1  31
TORSDOF 12
ENDMDL
MODEL 7
REMARK VINA RESULT:    -8.973      4.267      7.846
REMARK INTER + INTRA:         -14.947
REMARK INTER:                 -12.553
REMARK INTRA:                  -2.394
REMARK CONF_INDEPENDENT:        3.580
REMARK UNBOUND:                -2.394
REMARK  12 active torsions:
REMARK  status: ('A' for Active; 'I' for Inactive)
REMARK    1  A    between atoms: C_2  and  N_3 
REMARK    2  A    between atoms: N_3  and  C_4 
REMARK    3  A    between atoms: N_3  and  C_6 
REMARK    4  A    between atoms: C_6  and  C_7 
REMARK    5  A    between atoms: C_7  and  C_8 
REMARK    6  A    between atoms: C_8  and  N_9 
REMARK    7  A    between atoms: C_10  and  S_11 
REMARK    8  A    between atoms: S_11  and  C_12 
REMARK    9  A    between atoms: C_12  and  C_13 
REMARK   10  A    between atoms: C_15  and  N_16 
REMARK   11  A    between atoms: C_18  and  N_19 
REMARK   12  A    between atoms: N_19  and  C_20 
ROOT
ATOM      1  N   UNL d   1      29.237 -15.986  -5.008  0.00  0.00    -0.292 N 
ATOM      2  C   UNL d   1      29.375 -16.307  -3.661  0.00  0.00     0.172 A 
ATOM      3  N   UNL d   1      28.441 -16.031  -2.797  0.00  0.00    -0.224 NA
ATOM      4  C   UNL d   1      27.274 -15.361  -3.214  0.00  0.00     0.075 A 
ATOM      5  C   UNL d   1      26.318 -14.923  -2.303  0.00  0.00     0.032 C 
ATOM      6  C   UNL d   1      25.273 -14.080  -2.726  0.00  0.00     0.002 C 
ATOM      7  C   UNL d   1      25.025 -13.876  -4.083  0.00  0.00     0.001 C 
ATOM      8  C   UNL d   1      25.899 -14.407  -5.007  0.00  0.00     0.019 C 
ATOM      9  C   UNL d   1      27.050 -15.041  -4.541  0.00  0.00     0.061 A 
ATOM     10  C   UNL d   1      28.116 -15.298  -5.482  0.00  0.00     0.262 A 
ATOM     11  O   UNL d   1      27.988 -14.918  -6.634  0.00  0.00    -0.267 OA
ENDROOT
BRANCH   2  12
ATOM     12  S   UNL d   1      30.780 -17.108  -2.943  0.00  0.00    -0.084 SA
BRANCH  12  13
ATOM     13  C   UNL d   1      30.393 -17.866  -1.361  0.00  0.00     0.164 C 
BRANCH  13  14
ATOM     14  C   UNL d   1      29.334 -17.266  -0.494  0.00  0.00     0.173 A 
ATOM     15  N   UNL d   1      29.569 -16.101   0.067  0.00  0.00    -0.046 NA
ATOM     16  C   UNL d   1      28.568 -15.624   0.773  0.00  0.00     0.737 A 
ATOM     17  N   UNL d   1      27.404 -16.244   0.981  0.00  0.00     0.130 NA
ATOM     18  C   UNL d   1      27.283 -17.458   0.444  0.00  0.00     0.744 A 
ATOM     19  N   UNL d   1      28.240 -18.008  -0.299  0.00  0.00    -0.045 NA
BRANCH  16  20
ATOM     20  N   UNL d   1      28.801 -14.391   1.300  0.00  0.00    -0.230 N 
ATOM     21  H   UNL d   1      28.607 -14.279   2.285  0.00  0.00     0.174 HD
ATOM     22  H   UNL d   1      29.217 -13.670   0.742  0.00  0.00     0.174 HD
ENDBRANCH  16  20
BRANCH  18  23
ATOM     23  N   UNL d   1      26.082 -18.164   0.632  0.00  0.00    -0.188 N 
ATOM     24  H   UNL d   1      26.118 -18.801   1.414  0.00  0.00     0.184 HD
BRANCH  23  25
ATOM     25  C   UNL d   1      24.847 -17.937   0.002  0.00  0.00     0.049 A 
ATOM     26  C   UNL d   1      24.488 -16.642  -0.397  0.00  0.00     0.030 A 
ATOM     27  C   UNL d   1      23.185 -16.338  -0.796  0.00  0.00     0.002 A 
ATOM     28  C   UNL d   1      22.237 -17.350  -0.896  0.00  0.00     0.000 A 
ATOM     29  C   UNL d   1      22.610 -18.667  -0.633  0.00  0.00     0.002 A 
ATOM     30  C   UNL d   1      23.897 -18.955  -0.149  0.00  0.00     0.030 A 
ENDBRANCH  23  25
ENDBRANCH  18  23
ENDBRANCH  13  14
ENDBRANCH  12  13
ENDBRANCH   2  12
BRANCH   1  31
ATOM     31  C   UNL d   1      30.103 -16.312  -6.106  0.00  0.00     0.136 C 
BRANCH  31  32
ATOM     32  C   UNL d   1      31.267 -15.352  -6.210  0.00  0.00     0.048 C 
BRANCH  32  33
ATOM     33  C   UNL d   1      31.356 -14.813  -7.617  0.00  0.00     0.236 C 
BRANCH  33  34
ATOM     34  N   UNL d   1      30.372 -13.666  -7.782  0.00  0.00    -0.072 N 
ATOM     35  H   UNL d   1      29.465 -14.097  -8.022  0.00  0.00     0.279 HD
BRANCH  34  36
ATOM     36  C   UNL d   1      30.233 -12.989  -6.435  0.00  0.00     0.230 C 
ATOM     37  C   UNL d   1      29.172 -11.913  -6.414  0.00  0.00     0.034 C 
ENDBRANCH  34  36
BRANCH  34  38
ATOM     38  C   UNL d   1      30.802 -12.766  -8.935  0.00  0.00     0.230 C 
ATOM     39  C   UNL d   1      32.269 -12.420  -8.940  0.00  0.00     0.034 C 
ENDBRANCH  34  38
ENDBRANCH  33  34
ENDBRANCH  32  33
ENDBRANCH  31  32
ENDBRANCH   1  31
TORSDOF 12
ENDMDL
MODEL 8
REMARK VINA RESULT:    -8.736      3.246      5.830
REMARK INTER + INTRA:         -14.773
REMARK INTER:                 -12.315
REMARK INTRA:                  -2.458
REMARK CONF_INDEPENDENT:        3.580
REMARK UNBOUND:                -2.458
REMARK  12 active torsions:
REMARK  status: ('A' for Active; 'I' for Inactive)
REMARK    1  A    between atoms: C_2  and  N_3 
REMARK    2  A    between atoms: N_3  and  C_4 
REMARK    3  A    between atoms: N_3  and  C_6 
REMARK    4  A    between atoms: C_6  and  C_7 
REMARK    5  A    between atoms: C_7  and  C_8 
REMARK    6  A    between atoms: C_8  and  N_9 
REMARK    7  A    between atoms: C_10  and  S_11 
REMARK    8  A    between atoms: S_11  and  C_12 
REMARK    9  A    between atoms: C_12  and  C_13 
REMARK   10  A    between atoms: C_15  and  N_16 
REMARK   11  A    between atoms: C_18  and  N_19 
REMARK   12  A    between atoms: N_19  and  C_20 
ROOT
ATOM      1  N   UNL d   1      27.011 -15.793  -0.141  0.00  0.00    -0.292 N 
ATOM      2  C   UNL d   1      26.771 -14.492   0.289  0.00  0.00     0.172 A 
ATOM      3  N   UNL d   1      26.280 -13.591  -0.512  0.00  0.00    -0.224 NA
ATOM      4  C   UNL d   1      26.013 -13.916  -1.856  0.00  0.00     0.075 A 
ATOM      5  C   UNL d   1      25.622 -12.950  -2.779  0.00  0.00     0.032 C 
ATOM      6  C   UNL d   1      25.565 -13.264  -4.149  0.00  0.00     0.002 C 
ATOM      7  C   UNL d   1      25.647 -14.586  -4.583  0.00  0.00     0.001 C 
ATOM      8  C   UNL d   1      25.914 -15.575  -3.661  0.00  0.00     0.019 C 
ATOM      9  C   UNL d   1      26.194 -15.197  -2.347  0.00  0.00     0.061 A 
ATOM     10  C   UNL d   1      26.793 -16.174  -1.468  0.00  0.00     0.262 A 
ATOM     11  O   UNL d   1      27.070 -17.275  -1.915  0.00  0.00    -0.267 OA
ENDROOT
BRANCH   2  12
ATOM     12  S   UNL d   1      27.081 -13.885   1.923  0.00  0.00    -0.084 SA
BRANCH  12  13
ATOM     13  C   UNL d   1      28.762 -13.285   2.115  0.00  0.00     0.164 C 
BRANCH  13  14
ATOM     14  C   UNL d   1      29.910 -14.208   1.862  0.00  0.00     0.173 A 
ATOM     15  N   UNL d   1      31.033 -14.007   2.515  0.00  0.00    -0.046 NA
ATOM     16  C   UNL d   1      31.973 -14.892   2.270  0.00  0.00     0.737 A 
ATOM     17  N   UNL d   1      31.876 -15.904   1.405  0.00  0.00     0.130 NA
ATOM     18  C   UNL d   1      30.733 -15.985   0.725  0.00  0.00     0.744 A 
ATOM     19  N   UNL d   1      29.723 -15.142   0.924  0.00  0.00    -0.045 NA
BRANCH  16  20
ATOM     20  N   UNL d   1      33.110 -14.707   2.996  0.00  0.00    -0.230 N 
ATOM     21  H   UNL d   1      32.987 -14.484   3.973  0.00  0.00     0.174 HD
ATOM     22  H   UNL d   1      34.008 -14.866   2.582  0.00  0.00     0.174 HD
ENDBRANCH  16  20
BRANCH  18  23
ATOM     23  N   UNL d   1      30.570 -17.027  -0.205  0.00  0.00    -0.188 N 
ATOM     24  H   UNL d   1      30.373 -17.916   0.231  0.00  0.00     0.184 HD
BRANCH  23  25
ATOM     25  C   UNL d   1      30.459 -16.920  -1.601  0.00  0.00     0.049 A 
ATOM     26  C   UNL d   1      29.901 -15.770  -2.177  0.00  0.00     0.030 A 
ATOM     27  C   UNL d   1      29.550 -15.728  -3.528  0.00  0.00     0.002 A 
ATOM     28  C   UNL d   1      29.843 -16.808  -4.353  0.00  0.00     0.000 A 
ATOM     29  C   UNL d   1      30.520 -17.908  -3.828  0.00  0.00     0.002 A 
ATOM     30  C   UNL d   1      30.792 -17.981  -2.452  0.00  0.00     0.030 A 
ENDBRANCH  23  25
ENDBRANCH  18  23
ENDBRANCH  13  14
ENDBRANCH  12  13
ENDBRANCH   2  12
BRANCH   1  31
ATOM     31  C   UNL d   1      27.438 -16.931   0.623  0.00  0.00     0.136 C 
BRANCH  31  32
ATOM     32  C   UNL d   1      26.495 -18.103   0.463  0.00  0.00     0.048 C 
BRANCH  32  33
ATOM     33  C   UNL d   1      25.068 -17.616   0.504  0.00  0.00     0.236 C 
BRANCH  33  34
ATOM     34  N   UNL d   1      24.359 -18.016  -0.781  0.00  0.00    -0.072 N 
ATOM     35  H   UNL d   1      25.102 -18.182  -1.479  0.00  0.00     0.279 HD
BRANCH  34  36
ATOM     36  C   UNL d   1      23.651 -19.328  -0.520  0.00  0.00     0.230 C 
ATOM     37  C   UNL d   1      22.146 -19.218  -0.591  0.00  0.00     0.034 C 
ENDBRANCH  34  36
BRANCH  34  38
ATOM     38  C   UNL d   1      23.479 -16.873  -1.272  0.00  0.00     0.230 C 
ATOM     39  C   UNL d   1      22.548 -16.312  -0.228  0.00  0.00     0.034 C 
ENDBRANCH  34  38
ENDBRANCH  33  34
ENDBRANCH  32  33
ENDBRANCH  31  32
ENDBRANCH   1  31
TORSDOF 12
ENDMDL
MODEL 9
REMARK VINA RESULT:    -8.234      3.502      6.264
REMARK INTER + INTRA:         -14.846
REMARK INTER:                 -11.813
REMARK INTRA:                  -3.033
REMARK CONF_INDEPENDENT:        3.580
REMARK UNBOUND:                -3.033
REMARK  12 active torsions:
REMARK  status: ('A' for Active; 'I' for Inactive)
REMARK    1  A    between atoms: C_2  and  N_3 
REMARK    2  A    between atoms: N_3  and  C_4 
REMARK    3  A    between atoms: N_3  and  C_6 
REMARK    4  A    between atoms: C_6  and  C_7 
REMARK    5  A    between atoms: C_7  and  C_8 
REMARK    6  A    between atoms: C_8  and  N_9 
REMARK    7  A    between atoms: C_10  and  S_11 
REMARK    8  A    between atoms: S_11  and  C_12 
REMARK    9  A    between atoms: C_12  and  C_13 
REMARK   10  A    between atoms: C_15  and  N_16 
REMARK   11  A    between atoms: C_18  and  N_19 
REMARK   12  A    between atoms: N_19  and  C_20 
ROOT
ATOM      1  N   UNL d   1      26.965 -14.716  -4.237  0.00  0.00    -0.292 N 
ATOM      2  C   UNL d   1      28.050 -15.449  -3.769  0.00  0.00     0.172 A 
ATOM      3  N   UNL d   1      27.938 -16.253  -2.750  0.00  0.00    -0.224 NA
ATOM      4  C   UNL d   1      26.706 -16.367  -2.077  0.00  0.00     0.075 A 
ATOM      5  C   UNL d   1      26.580 -17.103  -0.903  0.00  0.00     0.032 C 
ATOM      6  C   UNL d   1      25.396 -17.028  -0.146  0.00  0.00     0.002 C 
ATOM      7  C   UNL d   1      24.250 -16.431  -0.669  0.00  0.00     0.001 C 
ATOM      8  C   UNL d   1      24.327 -15.799  -1.891  0.00  0.00     0.019 C 
ATOM      9  C   UNL d   1      25.575 -15.695  -2.506  0.00  0.00     0.061 A 
ATOM     10  C   UNL d   1      25.722 -14.762  -3.599  0.00  0.00     0.262 A 
ATOM     11  O   UNL d   1      24.767 -14.074  -3.916  0.00  0.00    -0.267 OA
ENDROOT
BRANCH   2  12
ATOM     12  S   UNL d   1      29.681 -15.409  -4.455  0.00  0.00    -0.084 SA
BRANCH  12  13
ATOM     13  C   UNL d   1      30.946 -15.283  -3.187  0.00  0.00     0.164 C 
BRANCH  13  14
ATOM     14  C   UNL d   1      30.743 -15.959  -1.869  0.00  0.00     0.173 A 
ATOM     15  N   UNL d   1      31.044 -17.234  -1.766  0.00  0.00    -0.046 NA
ATOM     16  C   UNL d   1      30.881 -17.737  -0.563  0.00  0.00     0.737 A 
ATOM     17  N   UNL d   1      30.407 -17.075   0.495  0.00  0.00     0.130 NA
ATOM     18  C   UNL d   1      30.048 -15.810   0.280  0.00  0.00     0.744 A 
ATOM     19  N   UNL d   1      30.196 -15.216  -0.902  0.00  0.00    -0.045 NA
BRANCH  16  20
ATOM     20  N   UNL d   1      31.252 -19.043  -0.454  0.00  0.00    -0.230 N 
ATOM     21  H   UNL d   1      32.024 -19.339  -1.032  0.00  0.00     0.174 HD
ATOM     22  H   UNL d   1      30.821 -19.639   0.226  0.00  0.00     0.174 HD
ENDBRANCH  16  20
BRANCH  18  23
ATOM     23  N   UNL d   1      29.537 -15.059   1.354  0.00  0.00    -0.188 N 
ATOM     24  H   UNL d   1      30.050 -15.199   2.212  0.00  0.00     0.184 HD
BRANCH  23  25
ATOM     25  C   UNL d   1      28.570 -14.042   1.304  0.00  0.00     0.049 A 
ATOM     26  C   UNL d   1      28.508 -13.079   2.320  0.00  0.00     0.030 A 
ATOM     27  C   UNL d   1      27.421 -12.210   2.436  0.00  0.00     0.002 A 
ATOM     28  C   UNL d   1      26.417 -12.225   1.475  0.00  0.00     0.000 A 
ATOM     29  C   UNL d   1      26.527 -13.084   0.382  0.00  0.00     0.002 A 
ATOM     30  C   UNL d   1      27.577 -14.014   0.316  0.00  0.00     0.030 A 
ENDBRANCH  23  25
ENDBRANCH  18  23
ENDBRANCH  13  14
ENDBRANCH  12  13
ENDBRANCH   2  12
BRANCH   1  31
ATOM     31  C   UNL d   1      26.877 -13.878  -5.400  0.00  0.00     0.136 C 
BRANCH  31  32
ATOM     32  C   UNL d   1      27.396 -12.483  -5.132  0.00  0.00     0.048 C 
BRANCH  32  33
ATOM     33  C   UNL d   1      26.284 -11.482  -5.325  0.00  0.00     0.236 C 
BRANCH  33  34
ATOM     34  N   UNL d   1      25.582 -11.243  -3.997  0.00  0.00    -0.072 N 
ATOM     35  H   UNL d   1      24.735 -11.833  -4.010  0.00  0.00     0.279 HD
BRANCH  34  36
ATOM     36  C   UNL d   1      26.497 -11.750  -2.903  0.00  0.00     0.230 C 
ATOM     37  C   UNL d   1      27.207 -10.643  -2.159  0.00  0.00     0.034 C 
ENDBRANCH  34  36
BRANCH  34  38
ATOM     38  C   UNL d   1      25.156  -9.784  -3.883  0.00  0.00     0.230 C 
ATOM     39  C   UNL d   1      24.884  -9.110  -5.203  0.00  0.00     0.034 C 
ENDBRANCH  34  38
ENDBRANCH  33  34
ENDBRANCH  32  33
ENDBRANCH  31  32
ENDBRANCH   1  31
TORSDOF 12
ENDMDL
