MODEL 1
REMARK VINA RESULT:    -8.736      0.000      0.000
REMARK INTER + INTRA:         -10.405
REMARK INTER:                  -9.929
REMARK INTRA:                  -0.475
REMARK CONF_INDEPENDENT:        1.193
REMARK UNBOUND:                -0.475
REMARK  4 active torsions:
REMARK  status: ('A' for Active; 'I' for Inactive)
REMARK    1  A    between atoms: C_5  and  C_6 
REMARK       I    between atoms: C_6  and  N_7 
REMARK    2  A    between atoms: C_10  and  N_11 
REMARK       I    between atoms: N_11  and  C_12 
REMARK    3  A    between atoms: C_12  and  C_14 
REMARK    4  A    between atoms: C_15  and  C_16 
ROOT
ATOM      1  N   UNL d   1      24.430 -17.318  -0.327  0.00  0.00    -0.323 N 
ATOM      2  C   UNL d   1      23.497 -18.204  -0.855  0.00  0.00     0.245 C 
ATOM      3  O   UNL d   1      23.303 -18.502  -2.029  0.00  0.00    -0.268 OA
ATOM      4  H   UNL d   1      24.449 -17.215   0.683  0.00  0.00     0.169 HD
ENDROOT
BRANCH   1   5
ATOM      5  C   UNL d   1      25.400 -16.514  -1.054  0.00  0.00     0.042 A 
ATOM      6  C   UNL d   1      24.988 -15.787  -2.208  0.00  0.00     0.047 A 
ATOM      7  C   UNL d   1      25.902 -14.977  -2.951  0.00  0.00     0.034 A 
ATOM      8  C   UNL d   1      27.232 -14.902  -2.550  0.00  0.00     0.017 A 
ATOM      9  C   UNL d   1      27.648 -15.599  -1.440  0.00  0.00     0.010 A 
ATOM     10  C   UNL d   1      26.763 -16.387  -0.697  0.00  0.00    -0.035 A 
ATOM     11  C   UNL d   1      27.427 -17.035   0.468  0.00  0.00     0.050 C 
BRANCH   7  12
ATOM     12  C   UNL d   1      25.461 -14.194  -4.152  0.00  0.00     0.249 C 
ATOM     13  N   UNL d   1      25.168 -12.858  -3.997  0.00  0.00    -0.366 N 
ATOM     14  H   UNL d   1      25.218 -12.334  -3.136  0.00  0.00     0.159 HD
ATOM     15  H   UNL d   1      24.865 -12.341  -4.812  0.00  0.00     0.159 HD
ATOM     16  O   UNL d   1      25.354 -14.719  -5.253  0.00  0.00    -0.268 OA
ENDBRANCH   7  12
ENDBRANCH   1   5
BRANCH   2  17
ATOM     17  C   UNL d   1      22.585 -18.924   0.048  0.00  0.00     0.075 C 
ATOM     18  C   UNL d   1      21.315 -19.076  -0.410  0.00  0.00     0.017 C 
BRANCH  18  19
ATOM     19  C   UNL d   1      20.223 -19.749   0.284  0.00  0.00    -0.035 A 
ATOM     20  C   UNL d   1      19.064 -20.174  -0.389  0.00  0.00     0.011 A 
ATOM     21  C   UNL d   1      18.039 -20.803   0.324  0.00  0.00     0.003 A 
ATOM     22  C   UNL d   1      18.170 -21.005   1.700  0.00  0.00     0.024 A 
ATOM     23  C   UNL d   1      19.322 -20.591   2.354  0.00  0.00     0.034 A 
ATOM     24 CL   UNL d   1      19.530 -20.830   4.042  0.00  0.00    -0.084 Cl
ATOM     25  C   UNL d   1      20.336 -19.968   1.653  0.00  0.00     0.035 A 
ENDBRANCH  18  19
ENDBRANCH   2  17
TORSDOF 4
ENDMDL
MODEL 2
REMARK VINA RESULT:    -8.423      1.504      1.732
REMARK INTER + INTRA:         -10.130
REMARK INTER:                  -9.616
REMARK INTRA:                  -0.513
REMARK CONF_INDEPENDENT:        1.193
REMARK UNBOUND:                -0.513
REMARK  4 active torsions:
REMARK  status: ('A' for Active; 'I' for Inactive)
REMARK    1  A    between atoms: C_5  and  C_6 
REMARK       I    between atoms: C_6  and  N_7 
REMARK    2  A    between atoms: C_10  and  N_11 
REMARK       I    between atoms: N_11  and  C_12 
REMARK    3  A    between atoms: C_12  and  C_14 
REMARK    4  A    between atoms: C_15  and  C_16 
ROOT
ATOM      1  N   UNL d   1      24.753 -16.739  -1.255  0.00  0.00    -0.323 N 
ATOM      2  C   UNL d   1      24.952 -17.845  -0.437  0.00  0.00     0.245 C 
ATOM      3  O   UNL d   1      26.006 -18.292   0.006  0.00  0.00    -0.268 OA
ATOM      4  H   UNL d   1      23.795 -16.516  -1.505  0.00  0.00     0.169 HD
ENDROOT
BRANCH   1   5
ATOM      5  C   UNL d   1      25.763 -15.845  -1.799  0.00  0.00     0.042 A 
ATOM      6  C   UNL d   1      25.891 -15.704  -3.212  0.00  0.00     0.047 A 
ATOM      7  C   UNL d   1      26.862 -14.832  -3.795  0.00  0.00     0.034 A 
ATOM      8  C   UNL d   1      27.717 -14.110  -2.969  0.00  0.00     0.017 A 
ATOM      9  C   UNL d   1      27.610 -14.236  -1.604  0.00  0.00     0.010 A 
ATOM     10  C   UNL d   1      26.658 -15.076  -1.019  0.00  0.00    -0.035 A 
ATOM     11  C   UNL d   1      26.714 -15.043   0.470  0.00  0.00     0.050 C 
BRANCH   7  12
ATOM     12  C   UNL d   1      26.979 -14.667  -5.281  0.00  0.00     0.249 C 
ATOM     13  N   UNL d   1      27.450 -13.472  -5.777  0.00  0.00    -0.366 N 
ATOM     14  H   UNL d   1      27.731 -12.672  -5.232  0.00  0.00     0.159 HD
ATOM     15  H   UNL d   1      27.518 -13.369  -6.781  0.00  0.00     0.159 HD
ATOM     16  O   UNL d   1      26.660 -15.565  -6.051  0.00  0.00    -0.268 OA
ENDBRANCH   7  12
ENDBRANCH   1   5
BRANCH   2  17
ATOM     17  C   UNL d   1      23.795 -18.639   0.008  0.00  0.00     0.075 C 
ATOM     18  C   UNL d   1      22.603 -18.283  -0.536  0.00  0.00     0.017 C 
BRANCH  18  19
ATOM     19  C   UNL d   1      21.312 -18.906  -0.268  0.00  0.00    -0.035 A 
ATOM     20  C   UNL d   1      20.341 -19.068  -1.272  0.00  0.00     0.011 A 
ATOM     21  C   UNL d   1      19.113 -19.659  -0.960  0.00  0.00     0.003 A 
ATOM     22  C   UNL d   1      18.855 -20.085   0.345  0.00  0.00     0.024 A 
ATOM     23  C   UNL d   1      19.823 -19.930   1.327  0.00  0.00     0.034 A 
ATOM     24 CL   UNL d   1      19.554 -20.450   2.941  0.00  0.00    -0.084 Cl
ATOM     25  C   UNL d   1      21.037 -19.345   1.024  0.00  0.00     0.035 A 
ENDBRANCH  18  19
ENDBRANCH   2  17
TORSDOF 4
ENDMDL
MODEL 3
REMARK VINA RESULT:    -8.079      4.571      9.273
REMARK INTER + INTRA:          -9.777
REMARK INTER:                  -9.272
REMARK INTRA:                  -0.505
REMARK CONF_INDEPENDENT:        1.193
REMARK UNBOUND:                -0.505
REMARK  4 active torsions:
REMARK  status: ('A' for Active; 'I' for Inactive)
REMARK    1  A    between atoms: C_5  and  C_6 
REMARK       I    between atoms: C_6  and  N_7 
REMARK    2  A    between atoms: C_10  and  N_11 
REMARK       I    between atoms: N_11  and  C_12 
REMARK    3  A    between atoms: C_12  and  C_14 
REMARK    4  A    between atoms: C_15  and  C_16 
ROOT
ATOM      1  N   UNL d   1      25.724 -16.083  -2.527  0.00  0.00    -0.323 N 
ATOM      2  C   UNL d   1      25.153 -14.981  -3.154  0.00  0.00     0.245 C 
ATOM      3  O   UNL d   1      24.056 -14.469  -2.954  0.00  0.00    -0.268 OA
ATOM      4  H   UNL d   1      26.658 -16.348  -2.822  0.00  0.00     0.169 HD
ENDROOT
BRANCH   1   5
ATOM      5  C   UNL d   1      25.142 -16.908  -1.481  0.00  0.00     0.042 A 
ATOM      6  C   UNL d   1      23.761 -17.255  -1.545  0.00  0.00     0.047 A 
ATOM      7  C   UNL d   1      23.144 -18.070  -0.546  0.00  0.00     0.034 A 
ATOM      8  C   UNL d   1      23.902 -18.530   0.526  0.00  0.00     0.017 A 
ATOM      9  C   UNL d   1      25.235 -18.204   0.605  0.00  0.00     0.010 A 
ATOM     10  C   UNL d   1      25.855 -17.416  -0.370  0.00  0.00    -0.035 A 
ATOM     11  C   UNL d   1      27.302 -17.203  -0.088  0.00  0.00     0.050 C 
BRANCH   7  12
ATOM     12  C   UNL d   1      21.696 -18.454  -0.628  0.00  0.00     0.249 C 
ATOM     13  N   UNL d   1      21.276 -19.586   0.032  0.00  0.00    -0.366 N 
ATOM     14  H   UNL d   1      21.854 -20.205   0.579  0.00  0.00     0.159 HD
ATOM     15  H   UNL d   1      20.298 -19.839  -0.036  0.00  0.00     0.159 HD
ATOM     16  O   UNL d   1      20.894 -17.786  -1.269  0.00  0.00    -0.268 OA
ENDBRANCH   7  12
ENDBRANCH   1   5
BRANCH   2  17
ATOM     17  C   UNL d   1      25.900 -14.274  -4.207  0.00  0.00     0.075 C 
ATOM     18  C   UNL d   1      27.072 -14.852  -4.575  0.00  0.00     0.017 C 
BRANCH  18  19
ATOM     19  C   UNL d   1      27.996 -14.359  -5.591  0.00  0.00    -0.035 A 
ATOM     20  C   UNL d   1      27.801 -13.126  -6.238  0.00  0.00     0.011 A 
ATOM     21  C   UNL d   1      28.707 -12.705  -7.215  0.00  0.00     0.003 A 
ATOM     22  C   UNL d   1      29.800 -13.509  -7.545  0.00  0.00     0.024 A 
ATOM     23  C   UNL d   1      29.989 -14.721  -6.895  0.00  0.00     0.034 A 
ATOM     24 CL   UNL d   1      31.325 -15.736  -7.261  0.00  0.00    -0.084 Cl
ATOM     25  C   UNL d   1      29.095 -15.141  -5.930  0.00  0.00     0.035 A 
ENDBRANCH  18  19
ENDBRANCH   2  17
TORSDOF 4
ENDMDL
MODEL 4
REMARK VINA RESULT:    -8.078      2.364      3.387
REMARK INTER + INTRA:          -9.746
REMARK INTER:                  -9.271
REMARK INTRA:                  -0.475
REMARK CONF_INDEPENDENT:        1.193
REMARK UNBOUND:                -0.475
REMARK  4 active torsions:
REMARK  status: ('A' for Active; 'I' for Inactive)
REMARK    1  A    between atoms: C_5  and  C_6 
REMARK       I    between atoms: C_6  and  N_7 
REMARK    2  A    between atoms: C_10  and  N_11 
REMARK       I    between atoms: N_11  and  C_12 
REMARK    3  A    between atoms: C_12  and  C_14 
REMARK    4  A    between atoms: C_15  and  C_16 
ROOT
ATOM      1  N   UNL d   1      25.108 -16.604  -1.256  0.00  0.00    -0.323 N 
ATOM      2  C   UNL d   1      24.866 -17.678  -0.408  0.00  0.00     0.245 C 
ATOM      3  O   UNL d   1      25.667 -18.485   0.054  0.00  0.00    -0.268 OA
ATOM      4  H   UNL d   1      24.310 -16.035  -1.519  0.00  0.00     0.169 HD
ENDROOT
BRANCH   1   5
ATOM      5  C   UNL d   1      26.383 -16.185  -1.816  0.00  0.00     0.042 A 
ATOM      6  C   UNL d   1      27.593 -16.727  -1.293  0.00  0.00     0.047 A 
ATOM      7  C   UNL d   1      28.871 -16.355  -1.814  0.00  0.00     0.034 A 
ATOM      8  C   UNL d   1      28.943 -15.429  -2.850  0.00  0.00     0.017 A 
ATOM      9  C   UNL d   1      27.786 -14.895  -3.367  0.00  0.00     0.010 A 
ATOM     10  C   UNL d   1      26.529 -15.258  -2.874  0.00  0.00    -0.035 A 
ATOM     11  C   UNL d   1      25.421 -14.566  -3.590  0.00  0.00     0.050 C 
BRANCH   7  12
ATOM     12  C   UNL d   1      30.141 -16.944  -1.277  0.00  0.00     0.249 C 
ATOM     13  N   UNL d   1      30.078 -17.733  -0.151  0.00  0.00    -0.366 N 
ATOM     14  H   UNL d   1      29.245 -17.962   0.369  0.00  0.00     0.159 HD
ATOM     15  H   UNL d   1      30.942 -18.119   0.206  0.00  0.00     0.159 HD
ATOM     16  O   UNL d   1      31.221 -16.733  -1.816  0.00  0.00    -0.268 OA
ENDBRANCH   7  12
ENDBRANCH   1   5
BRANCH   2  17
ATOM     17  C   UNL d   1      23.494 -17.951   0.049  0.00  0.00     0.075 C 
ATOM     18  C   UNL d   1      22.780 -18.802  -0.733  0.00  0.00     0.017 C 
BRANCH  18  19
ATOM     19  C   UNL d   1      21.407 -19.237  -0.504  0.00  0.00    -0.035 A 
ATOM     20  C   UNL d   1      20.460 -19.289  -1.543  0.00  0.00     0.011 A 
ATOM     21  C   UNL d   1      19.152 -19.700  -1.269  0.00  0.00     0.003 A 
ATOM     22  C   UNL d   1      18.792 -20.056   0.033  0.00  0.00     0.024 A 
ATOM     23  C   UNL d   1      19.735 -20.010   1.049  0.00  0.00     0.034 A 
ATOM     24 CL   UNL d   1      19.339 -20.449   2.661  0.00  0.00    -0.084 Cl
ATOM     25  C   UNL d   1      21.028 -19.603   0.783  0.00  0.00     0.035 A 
ENDBRANCH  18  19
ENDBRANCH   2  17
TORSDOF 4
ENDMDL
MODEL 5
REMARK VINA RESULT:    -8.012      4.366      9.004
REMARK INTER + INTRA:          -9.711
REMARK INTER:                  -9.205
REMARK INTRA:                  -0.506
REMARK CONF_INDEPENDENT:        1.193
REMARK UNBOUND:                -0.506
REMARK  4 active torsions:
REMARK  status: ('A' for Active; 'I' for Inactive)
REMARK    1  A    between atoms: C_5  and  C_6 
REMARK       I    between atoms: C_6  and  N_7 
REMARK    2  A    between atoms: C_10  and  N_11 
REMARK       I    between atoms: N_11  and  C_12 
REMARK    3  A    between atoms: C_12  and  C_14 
REMARK    4  A    between atoms: C_15  and  C_16 
ROOT
ATOM      1  N   UNL d   1      25.627 -15.162  -2.077  0.00  0.00    -0.323 N 
ATOM      2  C   UNL d   1      25.758 -15.086  -3.459  0.00  0.00     0.245 C 
ATOM      3  O   UNL d   1      25.530 -15.950  -4.300  0.00  0.00    -0.268 OA
ATOM      4  H   UNL d   1      25.850 -14.328  -1.545  0.00  0.00     0.169 HD
ENDROOT
BRANCH   1   5
ATOM      5  C   UNL d   1      25.196 -16.307  -1.289  0.00  0.00     0.042 A 
ATOM      6  C   UNL d   1      23.819 -16.677  -1.281  0.00  0.00     0.047 A 
ATOM      7  C   UNL d   1      23.347 -17.798  -0.530  0.00  0.00     0.034 A 
ATOM      8  C   UNL d   1      24.247 -18.544   0.225  0.00  0.00     0.017 A 
ATOM      9  C   UNL d   1      25.579 -18.200   0.230  0.00  0.00     0.010 A 
ATOM     10  C   UNL d   1      26.057 -17.112  -0.508  0.00  0.00    -0.035 A 
ATOM     11  C   UNL d   1      27.529 -16.936  -0.365  0.00  0.00     0.050 C 
BRANCH   7  12
ATOM     12  C   UNL d   1      21.902 -18.200  -0.541  0.00  0.00     0.249 C 
ATOM     13  N   UNL d   1      21.566 -19.461  -0.104  0.00  0.00    -0.366 N 
ATOM     14  H   UNL d   1      22.205 -20.165   0.231  0.00  0.00     0.159 HD
ATOM     15  H   UNL d   1      20.589 -19.724  -0.122  0.00  0.00     0.159 HD
ATOM     16  O   UNL d   1      21.030 -17.436  -0.933  0.00  0.00    -0.268 OA
ENDBRANCH   7  12
ENDBRANCH   1   5
BRANCH   2  17
ATOM     17  C   UNL d   1      26.222 -13.834  -4.078  0.00  0.00     0.075 C 
ATOM     18  C   UNL d   1      25.442 -12.747  -3.845  0.00  0.00     0.017 C 
BRANCH  18  19
ATOM     19  C   UNL d   1      25.678 -11.394  -4.337  0.00  0.00    -0.035 A 
ATOM     20  C   UNL d   1      25.905 -11.127  -5.699  0.00  0.00     0.011 A 
ATOM     21  C   UNL d   1      26.141  -9.814  -6.118  0.00  0.00     0.003 A 
ATOM     22  C   UNL d   1      26.150  -8.775  -5.185  0.00  0.00     0.024 A 
ATOM     23  C   UNL d   1      25.915  -9.048  -3.845  0.00  0.00     0.034 A 
ATOM     24 CL   UNL d   1      25.905  -7.800  -2.664  0.00  0.00    -0.084 Cl
ATOM     25  C   UNL d   1      25.683 -10.343  -3.426  0.00  0.00     0.035 A 
ENDBRANCH  18  19
ENDBRANCH   2  17
TORSDOF 4
ENDMDL
MODEL 6
REMARK VINA RESULT:    -7.984      4.652      9.189
REMARK INTER + INTRA:          -9.694
REMARK INTER:                  -9.177
REMARK INTRA:                  -0.517
REMARK CONF_INDEPENDENT:        1.193
REMARK UNBOUND:                -0.517
REMARK  4 active torsions:
REMARK  status: ('A' for Active; 'I' for Inactive)
REMARK    1  A    between atoms: C_5  and  C_6 
REMARK       I    between atoms: C_6  and  N_7 
REMARK    2  A    between atoms: C_10  and  N_11 
REMARK       I    between atoms: N_11  and  C_12 
REMARK    3  A    between atoms: C_12  and  C_14 
REMARK    4  A    between atoms: C_15  and  C_16 
ROOT
ATOM      1  N   UNL d   1      25.617 -15.164  -2.080  0.00  0.00    -0.323 N 
ATOM      2  C   UNL d   1      25.749 -15.089  -3.462  0.00  0.00     0.245 C 
ATOM      3  O   UNL d   1      25.527 -15.955  -4.302  0.00  0.00    -0.268 OA
ATOM      4  H   UNL d   1      25.835 -14.327  -1.549  0.00  0.00     0.169 HD
ENDROOT
BRANCH   1   5
ATOM      5  C   UNL d   1      25.192 -16.310  -1.291  0.00  0.00     0.042 A 
ATOM      6  C   UNL d   1      23.815 -16.679  -1.273  0.00  0.00     0.047 A 
ATOM      7  C   UNL d   1      23.349 -17.802  -0.521  0.00  0.00     0.034 A 
ATOM      8  C   UNL d   1      24.254 -18.549   0.226  0.00  0.00     0.017 A 
ATOM      9  C   UNL d   1      25.586 -18.206   0.222  0.00  0.00     0.010 A 
ATOM     10  C   UNL d   1      26.058 -17.117  -0.518  0.00  0.00    -0.035 A 
ATOM     11  C   UNL d   1      27.532 -16.941  -0.386  0.00  0.00     0.050 C 
BRANCH   7  12
ATOM     12  C   UNL d   1      21.904 -18.203  -0.521  0.00  0.00     0.249 C 
ATOM     13  N   UNL d   1      21.565 -19.447  -0.039  0.00  0.00    -0.366 N 
ATOM     14  H   UNL d   1      22.203 -20.139   0.323  0.00  0.00     0.159 HD
ATOM     15  H   UNL d   1      20.588 -19.710  -0.051  0.00  0.00     0.159 HD
ATOM     16  O   UNL d   1      21.033 -17.453  -0.943  0.00  0.00    -0.268 OA
ENDBRANCH   7  12
ENDBRANCH   1   5
BRANCH   2  17
ATOM     17  C   UNL d   1      26.207 -13.835  -4.082  0.00  0.00     0.075 C 
ATOM     18  C   UNL d   1      25.430 -12.748  -3.837  0.00  0.00     0.017 C 
BRANCH  18  19
ATOM     19  C   UNL d   1      25.661 -11.394  -4.327  0.00  0.00    -0.035 A 
ATOM     20  C   UNL d   1      25.532 -10.269  -3.494  0.00  0.00     0.011 A 
ATOM     21  C   UNL d   1      25.750  -8.990  -4.017  0.00  0.00     0.003 A 
ATOM     22  C   UNL d   1      26.095  -8.836  -5.361  0.00  0.00     0.024 A 
ATOM     23  C   UNL d   1      26.230  -9.954  -6.173  0.00  0.00     0.034 A 
ATOM     24 CL   UNL d   1      26.664  -9.812  -7.829  0.00  0.00    -0.084 Cl
ATOM     25  C   UNL d   1      26.014 -11.218  -5.661  0.00  0.00     0.035 A 
ENDBRANCH  18  19
ENDBRANCH   2  17
TORSDOF 4
ENDMDL
MODEL 7
REMARK VINA RESULT:    -7.951      4.671      9.339
REMARK INTER + INTRA:          -9.663
REMARK INTER:                  -9.144
REMARK INTRA:                  -0.519
REMARK CONF_INDEPENDENT:        1.193
REMARK UNBOUND:                -0.519
REMARK  4 active torsions:
REMARK  status: ('A' for Active; 'I' for Inactive)
REMARK    1  A    between atoms: C_5  and  C_6 
REMARK       I    between atoms: C_6  and  N_7 
REMARK    2  A    between atoms: C_10  and  N_11 
REMARK       I    between atoms: N_11  and  C_12 
REMARK    3  A    between atoms: C_12  and  C_14 
REMARK    4  A    between atoms: C_15  and  C_16 
ROOT
ATOM      1  N   UNL d   1      25.742 -16.047  -2.539  0.00  0.00    -0.323 N 
ATOM      2  C   UNL d   1      25.164 -14.943  -3.155  0.00  0.00     0.245 C 
ATOM      3  O   UNL d   1      24.066 -14.436  -2.947  0.00  0.00    -0.268 OA
ATOM      4  H   UNL d   1      26.676 -16.307  -2.840  0.00  0.00     0.169 HD
ENDROOT
BRANCH   1   5
ATOM      5  C   UNL d   1      25.168 -16.881  -1.495  0.00  0.00     0.042 A 
ATOM      6  C   UNL d   1      23.784 -17.221  -1.547  0.00  0.00     0.047 A 
ATOM      7  C   UNL d   1      23.175 -18.045  -0.551  0.00  0.00     0.034 A 
ATOM      8  C   UNL d   1      23.943 -18.520   0.508  0.00  0.00     0.017 A 
ATOM      9  C   UNL d   1      25.279 -18.200   0.576  0.00  0.00     0.010 A 
ATOM     10  C   UNL d   1      25.891 -17.404  -0.398  0.00  0.00    -0.035 A 
ATOM     11  C   UNL d   1      27.342 -17.200  -0.129  0.00  0.00     0.050 C 
BRANCH   7  12
ATOM     12  C   UNL d   1      21.725 -18.421  -0.621  0.00  0.00     0.249 C 
ATOM     13  N   UNL d   1      21.302 -19.544   0.055  0.00  0.00    -0.366 N 
ATOM     14  H   UNL d   1      21.880 -20.160   0.606  0.00  0.00     0.159 HD
ATOM     15  H   UNL d   1      20.323 -19.793  -0.005  0.00  0.00     0.159 HD
ATOM     16  O   UNL d   1      20.923 -17.757  -1.265  0.00  0.00    -0.268 OA
ENDBRANCH   7  12
ENDBRANCH   1   5
BRANCH   2  17
ATOM     17  C   UNL d   1      25.903 -14.227  -4.207  0.00  0.00     0.075 C 
ATOM     18  C   UNL d   1      27.026 -14.847  -4.653  0.00  0.00     0.017 C 
BRANCH  18  19
ATOM     19  C   UNL d   1      27.931 -14.355  -5.686  0.00  0.00    -0.035 A 
ATOM     20  C   UNL d   1      29.024 -15.114  -6.141  0.00  0.00     0.011 A 
ATOM     21  C   UNL d   1      29.871 -14.591  -7.122  0.00  0.00     0.003 A 
ATOM     22  C   UNL d   1      29.629 -13.319  -7.647  0.00  0.00     0.024 A 
ATOM     23  C   UNL d   1      28.542 -12.582  -7.198  0.00  0.00     0.034 A 
ATOM     24 CL   UNL d   1      28.200 -11.019  -7.823  0.00  0.00    -0.084 Cl
ATOM     25  C   UNL d   1      27.704 -13.094  -6.227  0.00  0.00     0.035 A 
ENDBRANCH  18  19
ENDBRANCH   2  17
TORSDOF 4
ENDMDL
MODEL 8
REMARK VINA RESULT:    -7.713      3.628      6.430
REMARK INTER + INTRA:          -9.374
REMARK INTER:                  -8.907
REMARK INTRA:                  -0.468
REMARK CONF_INDEPENDENT:        1.193
REMARK UNBOUND:                -0.468
REMARK  4 active torsions:
REMARK  status: ('A' for Active; 'I' for Inactive)
REMARK    1  A    between atoms: C_5  and  C_6 
REMARK       I    between atoms: C_6  and  N_7 
REMARK    2  A    between atoms: C_10  and  N_11 
REMARK       I    between atoms: N_11  and  C_12 
REMARK    3  A    between atoms: C_12  and  C_14 
REMARK    4  A    between atoms: C_15  and  C_16 
ROOT
ATOM      1  N   UNL d   1      26.440 -12.608  -3.913  0.00  0.00    -0.323 N 
ATOM      2  C   UNL d   1      25.615 -13.722  -3.811  0.00  0.00     0.245 C 
ATOM      3  O   UNL d   1      24.719 -14.085  -4.567  0.00  0.00    -0.268 OA
ATOM      4  H   UNL d   1      27.141 -12.485  -3.189  0.00  0.00     0.169 HD
ENDROOT
BRANCH   1   5
ATOM      5  C   UNL d   1      26.427 -11.587  -4.949  0.00  0.00     0.042 A 
ATOM      6  C   UNL d   1      25.582 -10.449  -4.804  0.00  0.00     0.047 A 
ATOM      7  C   UNL d   1      25.540  -9.414  -5.790  0.00  0.00     0.034 A 
ATOM      8  C   UNL d   1      26.332  -9.522  -6.929  0.00  0.00     0.017 A 
ATOM      9  C   UNL d   1      27.153 -10.614  -7.086  0.00  0.00     0.010 A 
ATOM     10  C   UNL d   1      27.212 -11.629  -6.124  0.00  0.00    -0.035 A 
ATOM     11  C   UNL d   1      28.176 -12.702  -6.496  0.00  0.00     0.050 C 
BRANCH   7  12
ATOM     12  C   UNL d   1      24.667  -8.206  -5.625  0.00  0.00     0.249 C 
ATOM     13  N   UNL d   1      24.212  -7.888  -4.365  0.00  0.00    -0.366 N 
ATOM     14  H   UNL d   1      24.407  -8.397  -3.517  0.00  0.00     0.159 HD
ATOM     15  H   UNL d   1      23.618  -7.075  -4.266  0.00  0.00     0.159 HD
ATOM     16  O   UNL d   1      24.353  -7.510  -6.582  0.00  0.00    -0.268 OA
ENDBRANCH   7  12
ENDBRANCH   1   5
BRANCH   2  17
ATOM     17  C   UNL d   1      25.774 -14.644  -2.674  0.00  0.00     0.075 C 
ATOM     18  C   UNL d   1      24.781 -15.560  -2.526  0.00  0.00     0.017 C 
BRANCH  18  19
ATOM     19  C   UNL d   1      24.700 -16.583  -1.490  0.00  0.00    -0.035 A 
ATOM     20  C   UNL d   1      25.816 -16.951  -0.718  0.00  0.00     0.011 A 
ATOM     21  C   UNL d   1      25.689 -17.948   0.253  0.00  0.00     0.003 A 
ATOM     22  C   UNL d   1      24.456 -18.574   0.453  0.00  0.00     0.024 A 
ATOM     23  C   UNL d   1      23.358 -18.197  -0.307  0.00  0.00     0.034 A 
ATOM     24 CL   UNL d   1      21.821 -18.932  -0.088  0.00  0.00    -0.084 Cl
ATOM     25  C   UNL d   1      23.480 -17.214  -1.269  0.00  0.00     0.035 A 
ENDBRANCH  18  19
ENDBRANCH   2  17
TORSDOF 4
ENDMDL
MODEL 9
REMARK VINA RESULT:    -7.666      3.779      6.604
REMARK INTER + INTRA:          -9.333
REMARK INTER:                  -8.859
REMARK INTRA:                  -0.474
REMARK CONF_INDEPENDENT:        1.193
REMARK UNBOUND:                -0.474
REMARK  4 active torsions:
REMARK  status: ('A' for Active; 'I' for Inactive)
REMARK    1  A    between atoms: C_5  and  C_6 
REMARK       I    between atoms: C_6  and  N_7 
REMARK    2  A    between atoms: C_10  and  N_11 
REMARK       I    between atoms: N_11  and  C_12 
REMARK    3  A    between atoms: C_12  and  C_14 
REMARK    4  A    between atoms: C_15  and  C_16 
ROOT
ATOM      1  N   UNL d   1      26.814 -13.260  -4.364  0.00  0.00    -0.323 N 
ATOM      2  C   UNL d   1      26.854 -14.638  -4.544  0.00  0.00     0.245 C 
ATOM      3  O   UNL d   1      26.919 -15.272  -5.593  0.00  0.00    -0.268 OA
ATOM      4  H   UNL d   1      26.777 -12.920  -3.409  0.00  0.00     0.169 HD
ENDROOT
BRANCH   1   5
ATOM      5  C   UNL d   1      26.828 -12.231  -5.392  0.00  0.00     0.042 A 
ATOM      6  C   UNL d   1      27.457 -12.494  -6.644  0.00  0.00     0.047 A 
ATOM      7  C   UNL d   1      27.489 -11.519  -7.689  0.00  0.00     0.034 A 
ATOM      8  C   UNL d   1      26.906 -10.274  -7.480  0.00  0.00     0.017 A 
ATOM      9  C   UNL d   1      26.297 -10.001  -6.278  0.00  0.00     0.010 A 
ATOM     10  C   UNL d   1      26.248 -10.949  -5.251  0.00  0.00    -0.035 A 
ATOM     11  C   UNL d   1      25.528 -10.442  -4.049  0.00  0.00     0.050 C 
BRANCH   7  12
ATOM     12  C   UNL d   1      28.131 -11.807  -9.013  0.00  0.00     0.249 C 
ATOM     13  N   UNL d   1      28.888 -12.950  -9.145  0.00  0.00    -0.366 N 
ATOM     14  H   UNL d   1      29.064 -13.632  -8.424  0.00  0.00     0.159 HD
ATOM     15  H   UNL d   1      29.322 -13.130 -10.041  0.00  0.00     0.159 HD
ATOM     16  O   UNL d   1      27.997 -11.049  -9.966  0.00  0.00    -0.268 OA
ENDBRANCH   7  12
ENDBRANCH   1   5
BRANCH   2  17
ATOM     17  C   UNL d   1      26.821 -15.526  -3.371  0.00  0.00     0.075 C 
ATOM     18  C   UNL d   1      25.580 -15.844  -2.918  0.00  0.00     0.017 C 
BRANCH  18  19
ATOM     19  C   UNL d   1      25.272 -16.703  -1.781  0.00  0.00    -0.035 A 
ATOM     20  C   UNL d   1      26.245 -17.056  -0.829  0.00  0.00     0.011 A 
ATOM     21  C   UNL d   1      25.902 -17.895   0.235  0.00  0.00     0.003 A 
ATOM     22  C   UNL d   1      24.596 -18.378   0.349  0.00  0.00     0.024 A 
ATOM     23  C   UNL d   1      23.641 -18.017  -0.590  0.00  0.00     0.034 A 
ATOM     24 CL   UNL d   1      22.021 -18.578  -0.482  0.00  0.00    -0.084 Cl
ATOM     25  C   UNL d   1      23.976 -17.189  -1.644  0.00  0.00     0.035 A 
ENDBRANCH  18  19
ENDBRANCH   2  17
TORSDOF 4
ENDMDL
