MODEL 1
REMARK VINA RESULT:    -8.841      0.000      0.000
REMARK INTER + INTRA:         -10.523
REMARK INTER:                 -10.034
REMARK INTRA:                  -0.489
REMARK CONF_INDEPENDENT:        1.193
REMARK UNBOUND:                -0.489
REMARK  4 active torsions:
REMARK  status: ('A' for Active; 'I' for Inactive)
REMARK    1  A    between atoms: C_8  and  N_9 
REMARK       I    between atoms: N_9  and  C_10 
REMARK    2  A    between atoms: C_10  and  C_12 
REMARK    3  A    between atoms: N_15  and  N_16 
REMARK    4  A    between atoms: N_16  and  C_17 
ROOT
ATOM      1  C   UNL d   1      25.502 -16.761  -1.342  0.00  0.00     0.224 C 
ATOM      2  C   UNL d   1      26.434 -17.146  -0.328  0.00  0.00     0.127 C 
ATOM      3  N   UNL d   1      27.222 -17.450   0.464  0.00  0.00    -0.189 NA
ATOM      4  N   UNL d   1      24.225 -17.027  -1.193  0.00  0.00    -0.158 NA
ENDROOT
BRANCH   1   5
ATOM      5  C   UNL d   1      25.894 -16.039  -2.595  0.00  0.00     0.287 C 
ATOM      6  N   UNL d   1      27.234 -15.883  -3.012  0.00  0.00    -0.320 N 
ATOM      7  H   UNL d   1      27.966 -16.265  -2.423  0.00  0.00     0.169 HD
ATOM      8  O   UNL d   1      24.874 -15.630  -3.129  0.00  0.00    -0.265 OA
BRANCH   6   9
ATOM      9  C   UNL d   1      27.726 -15.224  -4.223  0.00  0.00     0.047 A 
ATOM     10  C   UNL d   1      28.847 -15.768  -4.927  0.00  0.00    -0.035 A 
ATOM     11  C   UNL d   1      29.319 -15.148  -6.118  0.00  0.00     0.009 A 
ATOM     12  C   UNL d   1      29.608 -17.000  -4.504  0.00  0.00     0.050 C 
ATOM     13  C   UNL d   1      28.725 -14.007  -6.632  0.00  0.00     0.001 A 
ATOM     14  C   UNL d   1      27.654 -13.465  -5.963  0.00  0.00     0.009 A 
ATOM     15  C   UNL d   1      27.155 -14.050  -4.784  0.00  0.00    -0.035 A 
ATOM     16  C   UNL d   1      25.994 -13.301  -4.227  0.00  0.00     0.050 C 
ENDBRANCH   6   9
ENDBRANCH   1   5
BRANCH   4  17
ATOM     17  N   UNL d   1      23.697 -17.588  -0.088  0.00  0.00    -0.277 N 
ATOM     18  H   UNL d   1      24.104 -17.502   0.837  0.00  0.00     0.189 HD
BRANCH  17  19
ATOM     19  C   UNL d   1      22.456 -18.261  -0.153  0.00  0.00     0.051 A 
ATOM     20  C   UNL d   1      21.825 -18.593  -1.356  0.00  0.00     0.032 A 
ATOM     21  C   UNL d   1      20.626 -19.329  -1.362  0.00  0.00     0.014 A 
ATOM     22  C   UNL d   1      20.007 -19.720  -0.164  0.00  0.00    -0.026 A 
ATOM     23  C   UNL d   1      18.828 -20.491  -0.153  0.00  0.00     0.012 A 
ATOM     24  C   UNL d   1      20.588 -19.325   1.060  0.00  0.00    -0.024 A 
ATOM     25  C   UNL d   1      18.222 -20.861   1.049  0.00  0.00     0.001 A 
ATOM     26  C   UNL d   1      18.783 -20.458   2.256  0.00  0.00     0.001 A 
ATOM     27  C   UNL d   1      19.953 -19.692   2.262  0.00  0.00     0.012 A 
ATOM     28  C   UNL d   1      21.795 -18.591   1.042  0.00  0.00     0.043 A 
ENDBRANCH  17  19
ENDBRANCH   4  17
TORSDOF 4
ENDMDL
MODEL 2
REMARK VINA RESULT:    -8.533      2.828      5.157
REMARK INTER + INTRA:         -10.614
REMARK INTER:                  -9.726
REMARK INTRA:                  -0.888
REMARK CONF_INDEPENDENT:        1.193
REMARK UNBOUND:                -0.888
REMARK  4 active torsions:
REMARK  status: ('A' for Active; 'I' for Inactive)
REMARK    1  A    between atoms: C_8  and  N_9 
REMARK       I    between atoms: N_9  and  C_10 
REMARK    2  A    between atoms: C_10  and  C_12 
REMARK    3  A    between atoms: N_15  and  N_16 
REMARK    4  A    between atoms: N_16  and  C_17 
ROOT
ATOM      1  C   UNL d   1      27.680 -15.141  -4.311  0.00  0.00     0.224 C 
ATOM      2  C   UNL d   1      26.292 -14.818  -4.416  0.00  0.00     0.127 C 
ATOM      3  N   UNL d   1      25.172 -14.554  -4.547  0.00  0.00    -0.189 NA
ATOM      4  N   UNL d   1      28.269 -15.122  -3.137  0.00  0.00    -0.158 NA
ENDROOT
BRANCH   1   5
ATOM      5  C   UNL d   1      28.532 -15.525  -5.482  0.00  0.00     0.287 C 
ATOM      6  N   UNL d   1      29.797 -16.140  -5.351  0.00  0.00    -0.320 N 
ATOM      7  H   UNL d   1      30.149 -16.313  -4.416  0.00  0.00     0.169 HD
ATOM      8  O   UNL d   1      27.942 -15.198  -6.501  0.00  0.00    -0.265 OA
BRANCH   6   9
ATOM      9  C   UNL d   1      30.696 -16.579  -6.420  0.00  0.00     0.047 A 
ATOM     10  C   UNL d   1      31.357 -15.610  -7.239  0.00  0.00    -0.035 A 
ATOM     11  C   UNL d   1      32.251 -16.024  -8.266  0.00  0.00     0.009 A 
ATOM     12  C   UNL d   1      31.187 -14.116  -7.105  0.00  0.00     0.050 C 
ATOM     13  C   UNL d   1      32.508 -17.362  -8.513  0.00  0.00     0.001 A 
ATOM     14  C   UNL d   1      31.874 -18.307  -7.742  0.00  0.00     0.009 A 
ATOM     15  C   UNL d   1      30.986 -17.938  -6.714  0.00  0.00    -0.035 A 
ATOM     16  C   UNL d   1      30.414 -19.118  -6.008  0.00  0.00     0.050 C 
ENDBRANCH   6   9
ENDBRANCH   1   5
BRANCH   4  17
ATOM     17  N   UNL d   1      27.628 -14.888  -1.977  0.00  0.00    -0.277 N 
ATOM     18  H   UNL d   1      27.665 -14.004  -1.481  0.00  0.00     0.189 HD
BRANCH  17  19
ATOM     19  C   UNL d   1      26.764 -15.863  -1.430  0.00  0.00     0.051 A 
ATOM     20  C   UNL d   1      27.220 -17.000  -0.755  0.00  0.00     0.032 A 
ATOM     21  C   UNL d   1      26.314 -17.901  -0.165  0.00  0.00     0.014 A 
ATOM     22  C   UNL d   1      24.927 -17.708  -0.266  0.00  0.00    -0.026 A 
ATOM     23  C   UNL d   1      24.008 -18.578   0.352  0.00  0.00     0.012 A 
ATOM     24  C   UNL d   1      24.449 -16.609  -1.011  0.00  0.00    -0.024 A 
ATOM     25  C   UNL d   1      22.632 -18.375   0.231  0.00  0.00     0.001 A 
ATOM     26  C   UNL d   1      22.157 -17.302  -0.517  0.00  0.00     0.001 A 
ATOM     27  C   UNL d   1      23.057 -16.430  -1.137  0.00  0.00     0.012 A 
ATOM     28  C   UNL d   1      25.376 -15.714  -1.590  0.00  0.00     0.043 A 
ENDBRANCH  17  19
ENDBRANCH   4  17
TORSDOF 4
ENDMDL
MODEL 3
REMARK VINA RESULT:    -8.510      2.823      4.999
REMARK INTER + INTRA:         -10.624
REMARK INTER:                  -9.704
REMARK INTRA:                  -0.921
REMARK CONF_INDEPENDENT:        1.193
REMARK UNBOUND:                -0.921
REMARK  4 active torsions:
REMARK  status: ('A' for Active; 'I' for Inactive)
REMARK    1  A    between atoms: C_8  and  N_9 
REMARK       I    between atoms: N_9  and  C_10 
REMARK    2  A    between atoms: C_10  and  C_12 
REMARK    3  A    between atoms: N_15  and  N_16 
REMARK    4  A    between atoms: N_16  and  C_17 
ROOT
ATOM      1  C   UNL d   1      27.666 -15.101  -4.320  0.00  0.00     0.224 C 
ATOM      2  C   UNL d   1      26.279 -14.777  -4.447  0.00  0.00     0.127 C 
ATOM      3  N   UNL d   1      25.162 -14.513  -4.595  0.00  0.00    -0.189 NA
ATOM      4  N   UNL d   1      28.238 -15.078  -3.138  0.00  0.00    -0.158 NA
ENDROOT
BRANCH   1   5
ATOM      5  C   UNL d   1      28.536 -15.488  -5.477  0.00  0.00     0.287 C 
ATOM      6  N   UNL d   1      29.815 -16.067  -5.325  0.00  0.00    -0.320 N 
ATOM      7  H   UNL d   1      30.166 -16.210  -4.384  0.00  0.00     0.169 HD
ATOM      8  O   UNL d   1      27.944 -15.200  -6.507  0.00  0.00    -0.265 OA
BRANCH   6   9
ATOM      9  C   UNL d   1      30.732 -16.506  -6.378  0.00  0.00     0.047 A 
ATOM     10  C   UNL d   1      30.997 -17.900  -6.557  0.00  0.00    -0.035 A 
ATOM     11  C   UNL d   1      31.870 -18.340  -7.593  0.00  0.00     0.009 A 
ATOM     12  C   UNL d   1      30.405 -19.001  -5.712  0.00  0.00     0.050 C 
ATOM     13  C   UNL d   1      32.493 -17.448  -8.450  0.00  0.00     0.001 A 
ATOM     14  C   UNL d   1      32.257 -16.104  -8.284  0.00  0.00     0.009 A 
ATOM     15  C   UNL d   1      31.398 -15.630  -7.276  0.00  0.00    -0.035 A 
ATOM     16  C   UNL d   1      31.287 -14.144  -7.277  0.00  0.00     0.050 C 
ENDBRANCH   6   9
ENDBRANCH   1   5
BRANCH   4  17
ATOM     17  N   UNL d   1      27.579 -14.840  -1.988  0.00  0.00    -0.277 N 
ATOM     18  H   UNL d   1      27.590 -13.947  -1.507  0.00  0.00     0.189 HD
BRANCH  17  19
ATOM     19  C   UNL d   1      26.733 -15.826  -1.433  0.00  0.00     0.051 A 
ATOM     20  C   UNL d   1      27.208 -16.946  -0.743  0.00  0.00     0.032 A 
ATOM     21  C   UNL d   1      26.318 -17.858  -0.147  0.00  0.00     0.014 A 
ATOM     22  C   UNL d   1      24.928 -17.694  -0.257  0.00  0.00    -0.026 A 
ATOM     23  C   UNL d   1      24.023 -18.575   0.367  0.00  0.00     0.012 A 
ATOM     24  C   UNL d   1      24.430 -16.614  -1.017  0.00  0.00    -0.024 A 
ATOM     25  C   UNL d   1      22.644 -18.402   0.237  0.00  0.00     0.001 A 
ATOM     26  C   UNL d   1      22.151 -17.348  -0.526  0.00  0.00     0.001 A 
ATOM     27  C   UNL d   1      23.036 -16.465  -1.152  0.00  0.00     0.012 A 
ATOM     28  C   UNL d   1      25.343 -15.708  -1.602  0.00  0.00     0.043 A 
ENDBRANCH  17  19
ENDBRANCH   4  17
TORSDOF 4
ENDMDL
MODEL 4
REMARK VINA RESULT:    -8.256      1.038      2.095
REMARK INTER + INTRA:         -10.071
REMARK INTER:                  -9.450
REMARK INTRA:                  -0.621
REMARK CONF_INDEPENDENT:        1.193
REMARK UNBOUND:                -0.621
REMARK  4 active torsions:
REMARK  status: ('A' for Active; 'I' for Inactive)
REMARK    1  A    between atoms: C_8  and  N_9 
REMARK       I    between atoms: N_9  and  C_10 
REMARK    2  A    between atoms: C_10  and  C_12 
REMARK    3  A    between atoms: N_15  and  N_16 
REMARK    4  A    between atoms: N_16  and  C_17 
ROOT
ATOM      1  C   UNL d   1      25.368 -16.974  -0.597  0.00  0.00     0.224 C 
ATOM      2  C   UNL d   1      26.262 -17.921  -0.008  0.00  0.00     0.127 C 
ATOM      3  N   UNL d   1      27.018 -18.673   0.442  0.00  0.00    -0.189 NA
ATOM      4  N   UNL d   1      24.079 -17.057  -0.364  0.00  0.00    -0.158 NA
ENDROOT
BRANCH   1   5
ATOM      5  C   UNL d   1      25.818 -15.849  -1.479  0.00  0.00     0.287 C 
ATOM      6  N   UNL d   1      26.009 -15.985  -2.872  0.00  0.00    -0.320 N 
ATOM      7  H   UNL d   1      25.849 -16.896  -3.289  0.00  0.00     0.169 HD
ATOM      8  O   UNL d   1      25.986 -14.863  -0.777  0.00  0.00    -0.265 OA
BRANCH   6   9
ATOM      9  C   UNL d   1      26.417 -14.954  -3.827  0.00  0.00     0.047 A 
ATOM     10  C   UNL d   1      25.502 -13.916  -4.190  0.00  0.00    -0.035 A 
ATOM     11  C   UNL d   1      25.896 -12.895  -5.101  0.00  0.00     0.009 A 
ATOM     12  C   UNL d   1      24.091 -13.796  -3.669  0.00  0.00     0.050 C 
ATOM     13  C   UNL d   1      27.160 -12.870  -5.667  0.00  0.00     0.001 A 
ATOM     14  C   UNL d   1      28.047 -13.866  -5.337  0.00  0.00     0.009 A 
ATOM     15  C   UNL d   1      27.698 -14.891  -4.438  0.00  0.00    -0.035 A 
ATOM     16  C   UNL d   1      28.808 -15.861  -4.224  0.00  0.00     0.050 C 
ENDBRANCH   6   9
ENDBRANCH   1   5
BRANCH   4  17
ATOM     17  N   UNL d   1      23.523 -17.950   0.476  0.00  0.00    -0.277 N 
ATOM     18  H   UNL d   1      23.924 -18.208   1.372  0.00  0.00     0.189 HD
BRANCH  17  19
ATOM     19  C   UNL d   1      22.261 -18.515   0.184  0.00  0.00     0.051 A 
ATOM     20  C   UNL d   1      21.760 -18.644  -1.116  0.00  0.00     0.032 A 
ATOM     21  C   UNL d   1      20.529 -19.282  -1.355  0.00  0.00     0.014 A 
ATOM     22  C   UNL d   1      19.748 -19.775  -0.297  0.00  0.00    -0.026 A 
ATOM     23  C   UNL d   1      18.533 -20.451  -0.521  0.00  0.00     0.012 A 
ATOM     24  C   UNL d   1      20.201 -19.583   1.026  0.00  0.00    -0.024 A 
ATOM     25  C   UNL d   1      17.766 -20.924   0.545  0.00  0.00     0.001 A 
ATOM     26  C   UNL d   1      18.201 -20.722   1.850  0.00  0.00     0.001 A 
ATOM     27  C   UNL d   1      19.405 -20.052   2.089  0.00  0.00     0.012 A 
ATOM     28  C   UNL d   1      21.443 -18.945   1.242  0.00  0.00     0.043 A 
ENDBRANCH  17  19
ENDBRANCH   4  17
TORSDOF 4
ENDMDL
MODEL 5
REMARK VINA RESULT:    -7.854      7.171      9.759
REMARK INTER + INTRA:          -9.618
REMARK INTER:                  -9.048
REMARK INTRA:                  -0.571
REMARK CONF_INDEPENDENT:        1.193
REMARK UNBOUND:                -0.571
REMARK  4 active torsions:
REMARK  status: ('A' for Active; 'I' for Inactive)
REMARK    1  A    between atoms: C_8  and  N_9 
REMARK       I    between atoms: N_9  and  C_10 
REMARK    2  A    between atoms: C_10  and  C_12 
REMARK    3  A    between atoms: N_15  and  N_16 
REMARK    4  A    between atoms: N_16  and  C_17 
ROOT
ATOM      1  C   UNL d   1      29.278 -14.412   2.977  0.00  0.00     0.224 C 
ATOM      2  C   UNL d   1      30.621 -14.190   2.540  0.00  0.00     0.127 C 
ATOM      3  N   UNL d   1      31.696 -14.024   2.144  0.00  0.00    -0.189 NA
ATOM      4  N   UNL d   1      29.000 -14.412   4.261  0.00  0.00    -0.158 NA
ENDROOT
BRANCH   1   5
ATOM      5  C   UNL d   1      28.129 -14.637   2.043  0.00  0.00     0.287 C 
ATOM      6  N   UNL d   1      28.090 -15.691   1.103  0.00  0.00    -0.320 N 
ATOM      7  H   UNL d   1      28.890 -16.313   1.050  0.00  0.00     0.169 HD
ATOM      8  O   UNL d   1      27.299 -13.763   2.246  0.00  0.00    -0.265 OA
BRANCH   6   9
ATOM      9  C   UNL d   1      27.014 -16.018   0.166  0.00  0.00     0.047 A 
ATOM     10  C   UNL d   1      26.562 -15.037  -0.772  0.00  0.00    -0.035 A 
ATOM     11  C   UNL d   1      25.533 -15.352  -1.704  0.00  0.00     0.009 A 
ATOM     12  C   UNL d   1      27.106 -13.633  -0.873  0.00  0.00     0.050 C 
ATOM     13  C   UNL d   1      24.932 -16.600  -1.733  0.00  0.00     0.001 A 
ATOM     14  C   UNL d   1      25.347 -17.551  -0.832  0.00  0.00     0.009 A 
ATOM     15  C   UNL d   1      26.365 -17.280   0.102  0.00  0.00    -0.035 A 
ATOM     16  C   UNL d   1      26.656 -18.449   0.979  0.00  0.00     0.050 C 
ENDBRANCH   6   9
ENDBRANCH   1   5
BRANCH   4  17
ATOM     17  N   UNL d   1      29.897 -14.136   5.225  0.00  0.00    -0.277 N 
ATOM     18  H   UNL d   1      30.900 -14.224   5.104  0.00  0.00     0.189 HD
BRANCH  17  19
ATOM     19  C   UNL d   1      29.473 -13.596   6.461  0.00  0.00     0.051 A 
ATOM     20  C   UNL d   1      29.093 -12.260   6.625  0.00  0.00     0.032 A 
ATOM     21  C   UNL d   1      28.608 -11.795   7.862  0.00  0.00     0.014 A 
ATOM     22  C   UNL d   1      28.527 -12.645   8.977  0.00  0.00    -0.026 A 
ATOM     23  C   UNL d   1      28.006 -12.206  10.210  0.00  0.00     0.012 A 
ATOM     24  C   UNL d   1      28.980 -13.975   8.850  0.00  0.00    -0.024 A 
ATOM     25  C   UNL d   1      27.943 -13.063  11.310  0.00  0.00     0.001 A 
ATOM     26  C   UNL d   1      28.406 -14.370  11.193  0.00  0.00     0.001 A 
ATOM     27  C   UNL d   1      28.925 -14.821   9.975  0.00  0.00     0.012 A 
ATOM     28  C   UNL d   1      29.458 -14.422   7.597  0.00  0.00     0.043 A 
ENDBRANCH  17  19
ENDBRANCH   4  17
TORSDOF 4
ENDMDL
MODEL 6
REMARK VINA RESULT:    -7.844      7.012      9.618
REMARK INTER + INTRA:          -9.627
REMARK INTER:                  -9.038
REMARK INTRA:                  -0.589
REMARK CONF_INDEPENDENT:        1.193
REMARK UNBOUND:                -0.589
REMARK  4 active torsions:
REMARK  status: ('A' for Active; 'I' for Inactive)
REMARK    1  A    between atoms: C_8  and  N_9 
REMARK       I    between atoms: N_9  and  C_10 
REMARK    2  A    between atoms: C_10  and  C_12 
REMARK    3  A    between atoms: N_15  and  N_16 
REMARK    4  A    between atoms: N_16  and  C_17 
ROOT
ATOM      1  C   UNL d   1      29.236 -14.450   2.734  0.00  0.00     0.224 C 
ATOM      2  C   UNL d   1      30.570 -14.267   2.254  0.00  0.00     0.127 C 
ATOM      3  N   UNL d   1      31.637 -14.134   1.825  0.00  0.00    -0.189 NA
ATOM      4  N   UNL d   1      28.989 -14.384   4.022  0.00  0.00    -0.158 NA
ENDROOT
BRANCH   1   5
ATOM      5  C   UNL d   1      28.062 -14.706   1.839  0.00  0.00     0.287 C 
ATOM      6  N   UNL d   1      27.963 -15.833   0.994  0.00  0.00    -0.320 N 
ATOM      7  H   UNL d   1      28.736 -16.490   0.982  0.00  0.00     0.169 HD
ATOM      8  O   UNL d   1      27.272 -13.784   1.979  0.00  0.00    -0.265 OA
BRANCH   6   9
ATOM      9  C   UNL d   1      26.858 -16.194   0.104  0.00  0.00     0.047 A 
ATOM     10  C   UNL d   1      26.240 -17.479   0.220  0.00  0.00    -0.035 A 
ATOM     11  C   UNL d   1      25.149 -17.832  -0.625  0.00  0.00     0.009 A 
ATOM     12  C   UNL d   1      26.655 -18.544   1.205  0.00  0.00     0.050 C 
ATOM     13  C   UNL d   1      24.656 -16.961  -1.582  0.00  0.00     0.001 A 
ATOM     14  C   UNL d   1      25.245 -15.727  -1.713  0.00  0.00     0.009 A 
ATOM     15  C   UNL d   1      26.323 -15.338  -0.895  0.00  0.00    -0.035 A 
ATOM     16  C   UNL d   1      26.805 -13.964  -1.207  0.00  0.00     0.050 C 
ENDBRANCH   6   9
ENDBRANCH   1   5
BRANCH   4  17
ATOM     17  N   UNL d   1      29.913 -14.072   4.950  0.00  0.00    -0.277 N 
ATOM     18  H   UNL d   1      30.913 -14.122   4.789  0.00  0.00     0.189 HD
BRANCH  17  19
ATOM     19  C   UNL d   1      29.518 -13.548   6.202  0.00  0.00     0.051 A 
ATOM     20  C   UNL d   1      29.177 -12.206   6.400  0.00  0.00     0.032 A 
ATOM     21  C   UNL d   1      28.719 -11.755   7.652  0.00  0.00     0.014 A 
ATOM     22  C   UNL d   1      28.626 -12.627   8.749  0.00  0.00    -0.026 A 
ATOM     23  C   UNL d   1      28.132 -12.200   9.997  0.00  0.00     0.012 A 
ATOM     24  C   UNL d   1      29.041 -13.966   8.588  0.00  0.00    -0.024 A 
ATOM     25  C   UNL d   1      28.058 -13.080  11.079  0.00  0.00     0.001 A 
ATOM     26  C   UNL d   1      28.482 -14.395  10.928  0.00  0.00     0.001 A 
ATOM     27  C   UNL d   1      28.975 -14.834   9.695  0.00  0.00     0.012 A 
ATOM     28  C   UNL d   1      29.492 -14.398   7.320  0.00  0.00     0.043 A 
ENDBRANCH  17  19
ENDBRANCH   4  17
TORSDOF 4
ENDMDL
MODEL 7
REMARK VINA RESULT:    -7.556      3.517      5.348
REMARK INTER + INTRA:          -9.616
REMARK INTER:                  -8.749
REMARK INTRA:                  -0.867
REMARK CONF_INDEPENDENT:        1.193
REMARK UNBOUND:                -0.867
REMARK  4 active torsions:
REMARK  status: ('A' for Active; 'I' for Inactive)
REMARK    1  A    between atoms: C_8  and  N_9 
REMARK       I    between atoms: N_9  and  C_10 
REMARK    2  A    between atoms: C_10  and  C_12 
REMARK    3  A    between atoms: N_15  and  N_16 
REMARK    4  A    between atoms: N_16  and  C_17 
ROOT
ATOM      1  C   UNL d   1      30.585 -17.610  -1.608  0.00  0.00     0.224 C 
ATOM      2  C   UNL d   1      31.392 -17.082  -0.552  0.00  0.00     0.127 C 
ATOM      3  N   UNL d   1      32.081 -16.665   0.278  0.00  0.00    -0.189 NA
ATOM      4  N   UNL d   1      29.305 -17.825  -1.410  0.00  0.00    -0.158 NA
ENDROOT
BRANCH   1   5
ATOM      5  C   UNL d   1      31.115 -17.934  -2.972  0.00  0.00     0.287 C 
ATOM      6  N   UNL d   1      30.284 -18.198  -4.083  0.00  0.00    -0.320 N 
ATOM      7  H   UNL d   1      29.280 -18.184  -3.942  0.00  0.00     0.169 HD
ATOM      8  O   UNL d   1      32.336 -17.935  -2.912  0.00  0.00    -0.265 OA
BRANCH   6   9
ATOM      9  C   UNL d   1      30.691 -18.497  -5.457  0.00  0.00     0.047 A 
ATOM     10  C   UNL d   1      30.918 -19.852  -5.855  0.00  0.00    -0.035 A 
ATOM     11  C   UNL d   1      31.291 -20.156  -7.195  0.00  0.00     0.009 A 
ATOM     12  C   UNL d   1      30.786 -21.047  -4.943  0.00  0.00     0.050 C 
ATOM     13  C   UNL d   1      31.454 -19.166  -8.150  0.00  0.00     0.001 A 
ATOM     14  C   UNL d   1      31.251 -17.858  -7.781  0.00  0.00     0.009 A 
ATOM     15  C   UNL d   1      30.877 -17.517  -6.468  0.00  0.00    -0.035 A 
ATOM     16  C   UNL d   1      30.709 -16.047  -6.290  0.00  0.00     0.050 C 
ENDBRANCH   6   9
ENDBRANCH   1   5
BRANCH   4  17
ATOM     17  N   UNL d   1      28.656 -17.504  -0.275  0.00  0.00    -0.277 N 
ATOM     18  H   UNL d   1      29.108 -17.418   0.629  0.00  0.00     0.189 HD
BRANCH  17  19
ATOM     19  C   UNL d   1      27.285 -17.162  -0.310  0.00  0.00     0.051 A 
ATOM     20  C   UNL d   1      26.825 -15.849  -0.458  0.00  0.00     0.032 A 
ATOM     21  C   UNL d   1      25.448 -15.575  -0.561  0.00  0.00     0.014 A 
ATOM     22  C   UNL d   1      24.494 -16.602  -0.480  0.00  0.00    -0.026 A 
ATOM     23  C   UNL d   1      23.116 -16.349  -0.622  0.00  0.00     0.012 A 
ATOM     24  C   UNL d   1      24.937 -17.922  -0.252  0.00  0.00    -0.024 A 
ATOM     25  C   UNL d   1      22.182 -17.383  -0.528  0.00  0.00     0.001 A 
ATOM     26  C   UNL d   1      22.614 -18.682  -0.285  0.00  0.00     0.001 A 
ATOM     27  C   UNL d   1      23.979 -18.949  -0.143  0.00  0.00     0.012 A 
ATOM     28  C   UNL d   1      26.324 -18.175  -0.158  0.00  0.00     0.043 A 
ENDBRANCH  17  19
ENDBRANCH   4  17
TORSDOF 4
ENDMDL
MODEL 8
REMARK VINA RESULT:    -7.354      3.256      5.843
REMARK INTER + INTRA:          -9.362
REMARK INTER:                  -8.547
REMARK INTRA:                  -0.815
REMARK CONF_INDEPENDENT:        1.193
REMARK UNBOUND:                -0.815
REMARK  4 active torsions:
REMARK  status: ('A' for Active; 'I' for Inactive)
REMARK    1  A    between atoms: C_8  and  N_9 
REMARK       I    between atoms: N_9  and  C_10 
REMARK    2  A    between atoms: C_10  and  C_12 
REMARK    3  A    between atoms: N_15  and  N_16 
REMARK    4  A    between atoms: N_16  and  C_17 
ROOT
ATOM      1  C   UNL d   1      26.726 -13.486  -3.940  0.00  0.00     0.224 C 
ATOM      2  C   UNL d   1      27.012 -14.649  -4.721  0.00  0.00     0.127 C 
ATOM      3  N   UNL d   1      27.219 -15.572  -5.387  0.00  0.00    -0.189 NA
ATOM      4  N   UNL d   1      27.011 -13.473  -2.658  0.00  0.00    -0.158 NA
ENDROOT
BRANCH   1   5
ATOM      5  C   UNL d   1      26.116 -12.239  -4.503  0.00  0.00     0.287 C 
ATOM      6  N   UNL d   1      26.611 -10.944  -4.233  0.00  0.00    -0.320 N 
ATOM      7  H   UNL d   1      27.409 -10.858  -3.613  0.00  0.00     0.169 HD
ATOM      8  O   UNL d   1      25.155 -12.564  -5.185  0.00  0.00    -0.265 OA
BRANCH   6   9
ATOM      9  C   UNL d   1      26.113  -9.668  -4.748  0.00  0.00     0.047 A 
ATOM     10  C   UNL d   1      26.101  -9.422  -6.157  0.00  0.00    -0.035 A 
ATOM     11  C   UNL d   1      25.597  -8.194  -6.670  0.00  0.00     0.009 A 
ATOM     12  C   UNL d   1      26.593 -10.395  -7.201  0.00  0.00     0.050 C 
ATOM     13  C   UNL d   1      25.112  -7.199  -5.837  0.00  0.00     0.001 A 
ATOM     14  C   UNL d   1      25.126  -7.414  -4.480  0.00  0.00     0.009 A 
ATOM     15  C   UNL d   1      25.612  -8.617  -3.934  0.00  0.00    -0.035 A 
ATOM     16  C   UNL d   1      25.533  -8.637  -2.446  0.00  0.00     0.050 C 
ENDBRANCH   6   9
ENDBRANCH   1   5
BRANCH   4  17
ATOM     17  N   UNL d   1      27.643 -14.474  -2.017  0.00  0.00    -0.277 N 
ATOM     18  H   UNL d   1      28.640 -14.484  -1.831  0.00  0.00     0.189 HD
BRANCH  17  19
ATOM     19  C   UNL d   1      26.905 -15.547  -1.468  0.00  0.00     0.051 A 
ATOM     20  C   UNL d   1      27.498 -16.630  -0.812  0.00  0.00     0.032 A 
ATOM     21  C   UNL d   1      26.711 -17.634  -0.219  0.00  0.00     0.014 A 
ATOM     22  C   UNL d   1      25.309 -17.600  -0.298  0.00  0.00    -0.026 A 
ATOM     23  C   UNL d   1      24.505 -18.575   0.324  0.00  0.00     0.012 A 
ATOM     24  C   UNL d   1      24.697 -16.557  -1.024  0.00  0.00    -0.024 A 
ATOM     25  C   UNL d   1      23.113 -18.530   0.224  0.00  0.00     0.001 A 
ATOM     26  C   UNL d   1      22.508 -17.513  -0.505  0.00  0.00     0.001 A 
ATOM     27  C   UNL d   1      23.292 -16.537  -1.129  0.00  0.00     0.012 A 
ATOM     28  C   UNL d   1      25.507 -15.557  -1.607  0.00  0.00     0.043 A 
ENDBRANCH  17  19
ENDBRANCH   4  17
TORSDOF 4
ENDMDL
MODEL 9
REMARK VINA RESULT:    -7.151      3.010      5.576
REMARK INTER + INTRA:          -9.194
REMARK INTER:                  -8.344
REMARK INTRA:                  -0.851
REMARK CONF_INDEPENDENT:        1.193
REMARK UNBOUND:                -0.851
REMARK  4 active torsions:
REMARK  status: ('A' for Active; 'I' for Inactive)
REMARK    1  A    between atoms: C_8  and  N_9 
REMARK       I    between atoms: N_9  and  C_10 
REMARK    2  A    between atoms: C_10  and  C_12 
REMARK    3  A    between atoms: N_15  and  N_16 
REMARK    4  A    between atoms: N_16  and  C_17 
ROOT
ATOM      1  C   UNL d   1      28.623 -15.181  -4.435  0.00  0.00     0.224 C 
ATOM      2  C   UNL d   1      27.908 -13.953  -4.598  0.00  0.00     0.127 C 
ATOM      3  N   UNL d   1      27.346 -12.956  -4.771  0.00  0.00    -0.189 NA
ATOM      4  N   UNL d   1      28.746 -15.713  -3.242  0.00  0.00    -0.158 NA
ENDROOT
BRANCH   1   5
ATOM      5  C   UNL d   1      29.248 -15.931  -5.572  0.00  0.00     0.287 C 
ATOM      6  N   UNL d   1      30.185 -16.973  -5.390  0.00  0.00    -0.320 N 
ATOM      7  H   UNL d   1      30.458 -17.209  -4.442  0.00  0.00     0.169 HD
ATOM      8  O   UNL d   1      28.813 -15.467  -6.615  0.00  0.00    -0.265 OA
BRANCH   6   9
ATOM      9  C   UNL d   1      30.834 -17.785  -6.420  0.00  0.00     0.047 A 
ATOM     10  C   UNL d   1      31.557 -17.150  -7.479  0.00  0.00    -0.035 A 
ATOM     11  C   UNL d   1      32.212 -17.931  -8.473  0.00  0.00     0.009 A 
ATOM     12  C   UNL d   1      31.700 -15.657  -7.644  0.00  0.00     0.050 C 
ATOM     13  C   UNL d   1      32.170 -19.315  -8.458  0.00  0.00     0.001 A 
ATOM     14  C   UNL d   1      31.470 -19.941  -7.454  0.00  0.00     0.009 A 
ATOM     15  C   UNL d   1      30.813 -19.205  -6.451  0.00  0.00    -0.035 A 
ATOM     16  C   UNL d   1      30.120 -20.082  -5.466  0.00  0.00     0.050 C 
ENDBRANCH   6   9
ENDBRANCH   1   5
BRANCH   4  17
ATOM     17  N   UNL d   1      28.168 -15.216  -2.132  0.00  0.00    -0.277 N 
ATOM     18  H   UNL d   1      28.616 -14.547  -1.515  0.00  0.00     0.189 HD
BRANCH  17  19
ATOM     19  C   UNL d   1      26.828 -15.537  -1.820  0.00  0.00     0.051 A 
ATOM     20  C   UNL d   1      25.733 -14.816  -2.306  0.00  0.00     0.032 A 
ATOM     21  C   UNL d   1      24.417 -15.225  -2.023  0.00  0.00     0.014 A 
ATOM     22  C   UNL d   1      24.161 -16.346  -1.216  0.00  0.00    -0.026 A 
ATOM     23  C   UNL d   1      22.851 -16.792  -0.957  0.00  0.00     0.012 A 
ATOM     24  C   UNL d   1      25.254 -17.039  -0.654  0.00  0.00    -0.024 A 
ATOM     25  C   UNL d   1      22.617 -17.903  -0.143  0.00  0.00     0.001 A 
ATOM     26  C   UNL d   1      23.692 -18.577   0.427  0.00  0.00     0.001 A 
ATOM     27  C   UNL d   1      24.999 -18.146   0.179  0.00  0.00     0.012 A 
ATOM     28  C   UNL d   1      26.567 -16.613  -0.956  0.00  0.00     0.043 A 
ENDBRANCH  17  19
ENDBRANCH   4  17
TORSDOF 4
ENDMDL
