MODEL 1
REMARK VINA RESULT:   -25.285      0.000      0.000
REMARK INTER + INTRA:         -28.558
REMARK INTER:                 -27.075
REMARK INTRA:                  -1.482
REMARK CONF_INDEPENDENT:        1.790
REMARK UNBOUND:                -1.482
REMARK  6 active torsions:
REMARK  status: ('A' for Active; 'I' for Inactive)
REMARK    1  A    between atoms: C_2  and  C_3 
REMARK       I    between atoms: C_3  and  N_5 
REMARK    2  A    between atoms: N_5  and  C_6 
REMARK    3  A    between atoms: C_6  and  C_7 
REMARK       I    between atoms: C_7  and  N_9 
REMARK    4  A    between atoms: N_9  and  N_10 
REMARK       I    between atoms: N_10  and  C_11 
REMARK    5  A    between atoms: C_11  and  C_13 
REMARK    6  A    between atoms: C_15  and  C_16 
ROOT
ATOM      1  N   UNL d   1      23.515 -16.440  -1.263  0.00  0.00    -0.262 N 
ATOM      2  C   UNL d   1      23.422 -17.670  -0.617  0.00  0.00     0.288 C 
ATOM      3  O   UNL d   1      24.409 -18.208  -0.103  0.00  0.00    -0.264 OA
ATOM      4  H   UNL d   1      22.690 -15.928  -1.568  0.00  0.00     0.190 HD
ENDROOT
BRANCH   2   5
ATOM      5  C   UNL d   1      22.101 -18.264  -0.567  0.00  0.00     0.121 A 
ATOM      6  C   UNL d   1      21.572 -19.251   0.248  0.00  0.00     0.071 A 
ATOM      7  C   UNL d   1      20.209 -19.411  -0.127  0.00  0.00     0.089 A 
ATOM      8  N   UNL d   1      19.903 -18.575  -1.129  0.00  0.00    -0.174 NA
ATOM      9  N   UNL d   1      21.030 -17.858  -1.327  0.00  0.00    -0.272 N 
ATOM     10  H   UNL d   1      21.005 -17.119  -2.026  0.00  0.00     0.189 HD
BRANCH   7  11
ATOM     11  C   UNL d   1      19.221 -20.301   0.488  0.00  0.00    -0.006 A 
ATOM     12  C   UNL d   1      18.129 -20.799  -0.236  0.00  0.00     0.014 A 
ATOM     13  C   UNL d   1      17.164 -21.597   0.393  0.00  0.00     0.001 A 
ATOM     14  C   UNL d   1      17.314 -21.956   1.733  0.00  0.00     0.000 A 
ATOM     15  C   UNL d   1      18.410 -21.488   2.455  0.00  0.00     0.001 A 
ATOM     16  C   UNL d   1      19.354 -20.661   1.837  0.00  0.00     0.014 A 
ENDBRANCH   7  11
ENDBRANCH   2   5
BRANCH   1  17
ATOM     17  N   UNL d   1      24.765 -15.735  -1.345  0.00  0.00    -0.266 N 
ATOM     18  C   UNL d   1      24.954 -14.800  -2.363  0.00  0.00     0.253 C 
ATOM     19  O   UNL d   1      24.058 -14.527  -3.167  0.00  0.00    -0.270 OA
ATOM     20  H   UNL d   1      25.479 -16.002  -0.666  0.00  0.00     0.190 HD
BRANCH  18  21
ATOM     21  C   UNL d   1      26.349 -14.121  -2.436  0.00  0.00     0.227 C 
BRANCH  21  22
ATOM     22  N   UNL d   1      26.489 -13.182  -3.563  0.00  0.00    -0.352 N 
ATOM     23  C   UNL d   1      27.067 -13.569  -4.757  0.00  0.00     0.217 C 
ATOM     24  O   UNL d   1      27.486 -14.711  -4.926  0.00  0.00    -0.274 OA
ATOM     25  H   UNL d   1      26.146 -12.236  -3.433  0.00  0.00     0.162 HD
BRANCH  23  26
ATOM     26  C   UNL d   1      27.152 -12.496  -5.846  0.00  0.00     0.098 C 
ATOM     27  C   UNL d   1      26.049 -11.449  -5.689  0.00  0.00     0.014 C 
ENDBRANCH  23  26
ENDBRANCH  21  22
ENDBRANCH  18  21
ENDBRANCH   1  17
TORSDOF 6
ENDMDL
MODEL 2
REMARK VINA RESULT:   -25.204      3.163      3.758
REMARK INTER + INTRA:         -29.202
REMARK INTER:                 -26.994
REMARK INTRA:                  -2.208
REMARK CONF_INDEPENDENT:        1.790
REMARK UNBOUND:                -2.208
REMARK  6 active torsions:
REMARK  status: ('A' for Active; 'I' for Inactive)
REMARK    1  A    between atoms: C_2  and  C_3 
REMARK       I    between atoms: C_3  and  N_5 
REMARK    2  A    between atoms: N_5  and  C_6 
REMARK    3  A    between atoms: C_6  and  C_7 
REMARK       I    between atoms: C_7  and  N_9 
REMARK    4  A    between atoms: N_9  and  N_10 
REMARK       I    between atoms: N_10  and  C_11 
REMARK    5  A    between atoms: C_11  and  C_13 
REMARK    6  A    between atoms: C_15  and  C_16 
ROOT
ATOM      1  N   UNL d   1      24.419 -18.001  -0.466  0.00  0.00    -0.262 N 
ATOM      2  C   UNL d   1      23.260 -17.243  -0.605  0.00  0.00     0.288 C 
ATOM      3  O   UNL d   1      23.303 -16.017  -0.756  0.00  0.00    -0.264 OA
ATOM      4  H   UNL d   1      24.401 -19.020  -0.478  0.00  0.00     0.190 HD
ENDROOT
BRANCH   2   5
ATOM      5  C   UNL d   1      22.010 -17.979  -0.582  0.00  0.00     0.121 A 
ATOM      6  C   UNL d   1      21.543 -18.961   0.275  0.00  0.00     0.071 A 
ATOM      7  C   UNL d   1      20.232 -19.300  -0.161  0.00  0.00     0.089 A 
ATOM      8  N   UNL d   1      19.900 -18.576  -1.239  0.00  0.00    -0.174 NA
ATOM      9  N   UNL d   1      20.952 -17.750  -1.429  0.00  0.00    -0.272 N 
ATOM     10  H   UNL d   1      20.891 -17.069  -2.182  0.00  0.00     0.189 HD
BRANCH   7  11
ATOM     11  C   UNL d   1      19.310 -20.251   0.464  0.00  0.00    -0.006 A 
ATOM     12  C   UNL d   1      18.227 -20.797  -0.239  0.00  0.00     0.014 A 
ATOM     13  C   UNL d   1      17.324 -21.656   0.401  0.00  0.00     0.001 A 
ATOM     14  C   UNL d   1      17.530 -22.028   1.730  0.00  0.00     0.000 A 
ATOM     15  C   UNL d   1      18.618 -21.512   2.431  0.00  0.00     0.001 A 
ATOM     16  C   UNL d   1      19.499 -20.625   1.803  0.00  0.00     0.014 A 
ENDBRANCH   7  11
ENDBRANCH   2   5
BRANCH   1  17
ATOM     17  N   UNL d   1      25.719 -17.390  -0.510  0.00  0.00    -0.266 N 
ATOM     18  C   UNL d   1      26.808 -18.066   0.039  0.00  0.00     0.253 C 
ATOM     19  O   UNL d   1      26.694 -19.197   0.519  0.00  0.00    -0.270 OA
ATOM     20  H   UNL d   1      25.762 -16.450  -0.906  0.00  0.00     0.190 HD
BRANCH  18  21
ATOM     21  C   UNL d   1      28.172 -17.324   0.019  0.00  0.00     0.227 C 
BRANCH  21  22
ATOM     22  N   UNL d   1      28.204 -16.122   0.870  0.00  0.00    -0.352 N 
ATOM     23  C   UNL d   1      27.396 -15.031   0.610  0.00  0.00     0.217 C 
ATOM     24  O   UNL d   1      26.619 -15.022  -0.341  0.00  0.00    -0.274 OA
ATOM     25  H   UNL d   1      28.842 -16.121   1.659  0.00  0.00     0.162 HD
BRANCH  23  26
ATOM     26  C   UNL d   1      27.527 -13.848   1.572  0.00  0.00     0.098 C 
ATOM     27  C   UNL d   1      28.011 -14.297   2.952  0.00  0.00     0.014 C 
ENDBRANCH  23  26
ENDBRANCH  21  22
ENDBRANCH  18  21
ENDBRANCH   1  17
TORSDOF 6
ENDMDL
MODEL 3
REMARK VINA RESULT:   -24.826      1.655      2.881
REMARK INTER + INTRA:         -28.913
REMARK INTER:                 -26.615
REMARK INTRA:                  -2.298
REMARK CONF_INDEPENDENT:        1.790
REMARK UNBOUND:                -2.298
REMARK  6 active torsions:
REMARK  status: ('A' for Active; 'I' for Inactive)
REMARK    1  A    between atoms: C_2  and  C_3 
REMARK       I    between atoms: C_3  and  N_5 
REMARK    2  A    between atoms: N_5  and  C_6 
REMARK    3  A    between atoms: C_6  and  C_7 
REMARK       I    between atoms: C_7  and  N_9 
REMARK    4  A    between atoms: N_9  and  N_10 
REMARK       I    between atoms: N_10  and  C_11 
REMARK    5  A    between atoms: C_11  and  C_13 
REMARK    6  A    between atoms: C_15  and  C_16 
ROOT
ATOM      1  N   UNL d   1      23.553 -16.542  -1.434  0.00  0.00    -0.262 N 
ATOM      2  C   UNL d   1      23.426 -17.658  -0.612  0.00  0.00     0.288 C 
ATOM      3  O   UNL d   1      24.383 -18.099   0.033  0.00  0.00    -0.264 OA
ATOM      4  H   UNL d   1      22.744 -16.092  -1.860  0.00  0.00     0.190 HD
ENDROOT
BRANCH   2   5
ATOM      5  C   UNL d   1      22.105 -18.253  -0.545  0.00  0.00     0.121 A 
ATOM      6  C   UNL d   1      21.582 -19.228   0.288  0.00  0.00     0.071 A 
ATOM      7  C   UNL d   1      20.217 -19.395  -0.077  0.00  0.00     0.089 A 
ATOM      8  N   UNL d   1      19.905 -18.575  -1.090  0.00  0.00    -0.174 NA
ATOM      9  N   UNL d   1      21.030 -17.860  -1.307  0.00  0.00    -0.272 N 
ATOM     10  H   UNL d   1      21.001 -17.133  -2.017  0.00  0.00     0.189 HD
BRANCH   7  11
ATOM     11  C   UNL d   1      19.233 -20.275   0.558  0.00  0.00    -0.006 A 
ATOM     12  C   UNL d   1      19.324 -20.622   1.913  0.00  0.00     0.014 A 
ATOM     13  C   UNL d   1      18.405 -21.516   2.480  0.00  0.00     0.001 A 
ATOM     14  C   UNL d   1      17.352 -22.020   1.716  0.00  0.00     0.000 A 
ATOM     15  C   UNL d   1      17.237 -21.661   0.375  0.00  0.00     0.001 A 
ATOM     16  C   UNL d   1      18.175 -20.798  -0.201  0.00  0.00     0.014 A 
ENDBRANCH   7  11
ENDBRANCH   2   5
BRANCH   1  17
ATOM     17  N   UNL d   1      24.803 -15.843  -1.553  0.00  0.00    -0.266 N 
ATOM     18  C   UNL d   1      24.944 -14.863  -2.535  0.00  0.00     0.253 C 
ATOM     19  O   UNL d   1      24.008 -14.545  -3.274  0.00  0.00    -0.270 OA
ATOM     20  H   UNL d   1      25.551 -16.147  -0.929  0.00  0.00     0.190 HD
BRANCH  18  21
ATOM     21  C   UNL d   1      26.340 -14.191  -2.655  0.00  0.00     0.227 C 
BRANCH  21  22
ATOM     22  N   UNL d   1      27.424 -14.965  -2.025  0.00  0.00    -0.352 N 
ATOM     23  C   UNL d   1      27.489 -15.132  -0.655  0.00  0.00     0.217 C 
ATOM     24  O   UNL d   1      26.645 -14.642   0.092  0.00  0.00    -0.274 OA
ATOM     25  H   UNL d   1      28.125 -15.374  -2.633  0.00  0.00     0.162 HD
BRANCH  23  26
ATOM     26  C   UNL d   1      28.666 -15.957  -0.130  0.00  0.00     0.098 C 
ATOM     27  C   UNL d   1      28.541 -17.429  -0.525  0.00  0.00     0.014 C 
ENDBRANCH  23  26
ENDBRANCH  21  22
ENDBRANCH  18  21
ENDBRANCH   1  17
TORSDOF 6
ENDMDL
MODEL 4
REMARK VINA RESULT:   -24.812      1.646      2.720
REMARK INTER + INTRA:         -28.859
REMARK INTER:                 -26.602
REMARK INTRA:                  -2.257
REMARK CONF_INDEPENDENT:        1.790
REMARK UNBOUND:                -2.257
REMARK  6 active torsions:
REMARK  status: ('A' for Active; 'I' for Inactive)
REMARK    1  A    between atoms: C_2  and  C_3 
REMARK       I    between atoms: C_3  and  N_5 
REMARK    2  A    between atoms: N_5  and  C_6 
REMARK    3  A    between atoms: C_6  and  C_7 
REMARK       I    between atoms: C_7  and  N_9 
REMARK    4  A    between atoms: N_9  and  N_10 
REMARK       I    between atoms: N_10  and  C_11 
REMARK    5  A    between atoms: C_11  and  C_13 
REMARK    6  A    between atoms: C_15  and  C_16 
ROOT
ATOM      1  N   UNL d   1      23.641 -16.722  -1.529  0.00  0.00    -0.262 N 
ATOM      2  C   UNL d   1      23.491 -17.882  -0.774  0.00  0.00     0.288 C 
ATOM      3  O   UNL d   1      24.453 -18.415  -0.209  0.00  0.00    -0.264 OA
ATOM      4  H   UNL d   1      22.840 -16.202  -1.883  0.00  0.00     0.190 HD
ENDROOT
BRANCH   2   5
ATOM      5  C   UNL d   1      22.144 -18.408  -0.676  0.00  0.00     0.121 A 
ATOM      6  C   UNL d   1      21.607 -19.405   0.122  0.00  0.00     0.071 A 
ATOM      7  C   UNL d   1      20.218 -19.474  -0.181  0.00  0.00     0.089 A 
ATOM      8  N   UNL d   1      19.905 -18.575  -1.125  0.00  0.00    -0.174 NA
ATOM      9  N   UNL d   1      21.057 -17.909  -1.354  0.00  0.00    -0.272 N 
ATOM     10  H   UNL d   1      21.035 -17.137  -2.016  0.00  0.00     0.189 HD
BRANCH   7  11
ATOM     11  C   UNL d   1      19.218 -20.339   0.448  0.00  0.00    -0.006 A 
ATOM     12  C   UNL d   1      18.101 -20.805  -0.259  0.00  0.00     0.014 A 
ATOM     13  C   UNL d   1      17.126 -21.581   0.384  0.00  0.00     0.001 A 
ATOM     14  C   UNL d   1      17.290 -21.949   1.720  0.00  0.00     0.000 A 
ATOM     15  C   UNL d   1      18.410 -21.513   2.424  0.00  0.00     0.001 A 
ATOM     16  C   UNL d   1      19.365 -20.708   1.793  0.00  0.00     0.014 A 
ENDBRANCH   7  11
ENDBRANCH   2   5
BRANCH   1  17
ATOM     17  N   UNL d   1      24.923 -16.085  -1.670  0.00  0.00    -0.266 N 
ATOM     18  C   UNL d   1      25.022 -14.913  -2.418  0.00  0.00     0.253 C 
ATOM     19  O   UNL d   1      24.029 -14.380  -2.924  0.00  0.00    -0.270 OA
ATOM     20  H   UNL d   1      25.714 -16.568  -1.245  0.00  0.00     0.190 HD
BRANCH  18  21
ATOM     21  C   UNL d   1      26.443 -14.310  -2.587  0.00  0.00     0.227 C 
BRANCH  21  22
ATOM     22  N   UNL d   1      26.902 -13.543  -1.415  0.00  0.00    -0.352 N 
ATOM     23  C   UNL d   1      27.011 -14.126  -0.168  0.00  0.00     0.217 C 
ATOM     24  O   UNL d   1      26.730 -15.308   0.014  0.00  0.00    -0.274 OA
ATOM     25  H   UNL d   1      27.137 -12.566  -1.556  0.00  0.00     0.162 HD
BRANCH  23  26
ATOM     26  C   UNL d   1      27.499 -13.217   0.963  0.00  0.00     0.098 C 
ATOM     27  C   UNL d   1      28.316 -13.995   1.995  0.00  0.00     0.014 C 
ENDBRANCH  23  26
ENDBRANCH  21  22
ENDBRANCH  18  21
ENDBRANCH   1  17
TORSDOF 6
ENDMDL
MODEL 5
REMARK VINA RESULT:   -24.487      2.098      2.918
REMARK INTER + INTRA:         -28.630
REMARK INTER:                 -26.277
REMARK INTRA:                  -2.353
REMARK CONF_INDEPENDENT:        1.790
REMARK UNBOUND:                -2.353
REMARK  6 active torsions:
REMARK  status: ('A' for Active; 'I' for Inactive)
REMARK    1  A    between atoms: C_2  and  C_3 
REMARK       I    between atoms: C_3  and  N_5 
REMARK    2  A    between atoms: N_5  and  C_6 
REMARK    3  A    between atoms: C_6  and  C_7 
REMARK       I    between atoms: C_7  and  N_9 
REMARK    4  A    between atoms: N_9  and  N_10 
REMARK       I    between atoms: N_10  and  C_11 
REMARK    5  A    between atoms: C_11  and  C_13 
REMARK    6  A    between atoms: C_15  and  C_16 
ROOT
ATOM      1  N   UNL d   1      24.322 -17.682   0.002  0.00  0.00    -0.262 N 
ATOM      2  C   UNL d   1      23.182 -17.066  -0.506  0.00  0.00     0.288 C 
ATOM      3  O   UNL d   1      23.215 -15.917  -0.960  0.00  0.00    -0.264 OA
ATOM      4  H   UNL d   1      24.335 -18.670   0.250  0.00  0.00     0.190 HD
ENDROOT
BRANCH   2   5
ATOM      5  C   UNL d   1      21.967 -17.858  -0.488  0.00  0.00     0.121 A 
ATOM      6  C   UNL d   1      21.524 -18.832   0.392  0.00  0.00     0.071 A 
ATOM      7  C   UNL d   1      20.241 -19.247  -0.064  0.00  0.00     0.089 A 
ATOM      8  N   UNL d   1      19.904 -18.575  -1.173  0.00  0.00    -0.174 NA
ATOM      9  N   UNL d   1      20.922 -17.708  -1.367  0.00  0.00    -0.272 N 
ATOM     10  H   UNL d   1      20.848 -17.057  -2.145  0.00  0.00     0.189 HD
BRANCH   7  11
ATOM     11  C   UNL d   1      19.349 -20.219   0.572  0.00  0.00    -0.006 A 
ATOM     12  C   UNL d   1      19.510 -20.596   1.912  0.00  0.00     0.014 A 
ATOM     13  C   UNL d   1      18.681 -21.575   2.479  0.00  0.00     0.001 A 
ATOM     14  C   UNL d   1      17.646 -22.137   1.732  0.00  0.00     0.000 A 
ATOM     15  C   UNL d   1      17.460 -21.749   0.407  0.00  0.00     0.001 A 
ATOM     16  C   UNL d   1      18.310 -20.800  -0.171  0.00  0.00     0.014 A 
ENDBRANCH   7  11
ENDBRANCH   2   5
BRANCH   1  17
ATOM     17  N   UNL d   1      25.593 -17.012   0.003  0.00  0.00    -0.266 N 
ATOM     18  C   UNL d   1      26.760 -17.763   0.143  0.00  0.00     0.253 C 
ATOM     19  O   UNL d   1      26.732 -18.995   0.217  0.00  0.00    -0.270 OA
ATOM     20  H   UNL d   1      25.566 -15.993  -0.049  0.00  0.00     0.190 HD
BRANCH  18  21
ATOM     21  C   UNL d   1      28.096 -16.974   0.203  0.00  0.00     0.227 C 
BRANCH  21  22
ATOM     22  N   UNL d   1      28.509 -16.413  -1.095  0.00  0.00    -0.352 N 
ATOM     23  C   UNL d   1      27.788 -15.406  -1.708  0.00  0.00     0.217 C 
ATOM     24  O   UNL d   1      26.775 -14.938  -1.194  0.00  0.00    -0.274 OA
ATOM     25  H   UNL d   1      29.345 -16.792  -1.527  0.00  0.00     0.162 HD
BRANCH  23  26
ATOM     26  C   UNL d   1      28.326 -14.913  -3.054  0.00  0.00     0.098 C 
ATOM     27  C   UNL d   1      27.316 -15.141  -4.180  0.00  0.00     0.014 C 
ENDBRANCH  23  26
ENDBRANCH  21  22
ENDBRANCH  18  21
ENDBRANCH   1  17
TORSDOF 6
ENDMDL
MODEL 6
REMARK VINA RESULT:   -23.981      3.333      3.906
REMARK INTER + INTRA:         -27.177
REMARK INTER:                 -25.771
REMARK INTRA:                  -1.406
REMARK CONF_INDEPENDENT:        1.790
REMARK UNBOUND:                -1.406
REMARK  6 active torsions:
REMARK  status: ('A' for Active; 'I' for Inactive)
REMARK    1  A    between atoms: C_2  and  C_3 
REMARK       I    between atoms: C_3  and  N_5 
REMARK    2  A    between atoms: N_5  and  C_6 
REMARK    3  A    between atoms: C_6  and  C_7 
REMARK       I    between atoms: C_7  and  N_9 
REMARK    4  A    between atoms: N_9  and  N_10 
REMARK       I    between atoms: N_10  and  C_11 
REMARK    5  A    between atoms: C_11  and  C_13 
REMARK    6  A    between atoms: C_15  and  C_16 
ROOT
ATOM      1  N   UNL d   1      24.143 -17.484   0.241  0.00  0.00    -0.262 N 
ATOM      2  C   UNL d   1      23.184 -17.166  -0.717  0.00  0.00     0.288 C 
ATOM      3  O   UNL d   1      23.385 -16.293  -1.568  0.00  0.00    -0.264 OA
ATOM      4  H   UNL d   1      24.043 -18.290   0.857  0.00  0.00     0.190 HD
ENDROOT
BRANCH   2   5
ATOM      5  C   UNL d   1      21.954 -17.933  -0.666  0.00  0.00     0.121 A 
ATOM      6  C   UNL d   1      21.535 -18.934   0.194  0.00  0.00     0.071 A 
ATOM      7  C   UNL d   1      20.221 -19.301  -0.209  0.00  0.00     0.089 A 
ATOM      8  N   UNL d   1      19.841 -18.575  -1.269  0.00  0.00    -0.174 NA
ATOM      9  N   UNL d   1      20.867 -17.722  -1.480  0.00  0.00    -0.272 N 
ATOM     10  H   UNL d   1      20.767 -17.036  -2.224  0.00  0.00     0.189 HD
BRANCH   7  11
ATOM     11  C   UNL d   1      19.341 -20.281   0.433  0.00  0.00    -0.006 A 
ATOM     12  C   UNL d   1      18.263 -20.859  -0.251  0.00  0.00     0.014 A 
ATOM     13  C   UNL d   1      17.399 -21.746   0.405  0.00  0.00     0.001 A 
ATOM     14  C   UNL d   1      17.641 -22.112   1.730  0.00  0.00     0.000 A 
ATOM     15  C   UNL d   1      18.725 -21.563   2.411  0.00  0.00     0.001 A 
ATOM     16  C   UNL d   1      19.566 -20.650   1.768  0.00  0.00     0.014 A 
ENDBRANCH   7  11
ENDBRANCH   2   5
BRANCH   1  17
ATOM     17  N   UNL d   1      25.417 -16.819   0.270  0.00  0.00    -0.266 N 
ATOM     18  C   UNL d   1      26.583 -17.578   0.174  0.00  0.00     0.253 C 
ATOM     19  O   UNL d   1      26.550 -18.802   0.016  0.00  0.00    -0.270 OA
ATOM     20  H   UNL d   1      25.395 -15.810   0.413  0.00  0.00     0.190 HD
BRANCH  18  21
ATOM     21  C   UNL d   1      27.927 -16.807   0.276  0.00  0.00     0.227 C 
BRANCH  21  22
ATOM     22  N   UNL d   1      29.095 -17.596  -0.154  0.00  0.00    -0.352 N 
ATOM     23  C   UNL d   1      30.121 -17.027  -0.884  0.00  0.00     0.217 C 
ATOM     24  O   UNL d   1      30.101 -15.840  -1.201  0.00  0.00    -0.274 OA
ATOM     25  H   UNL d   1      29.121 -18.577   0.104  0.00  0.00     0.162 HD
BRANCH  23  26
ATOM     26  C   UNL d   1      31.274 -17.958  -1.267  0.00  0.00     0.098 C 
ATOM     27  C   UNL d   1      32.621 -17.405  -0.800  0.00  0.00     0.014 C 
ENDBRANCH  23  26
ENDBRANCH  21  22
ENDBRANCH  18  21
ENDBRANCH   1  17
TORSDOF 6
ENDMDL
