MODEL 1
REMARK VINA RESULT:    -9.055      0.000      0.000
REMARK INTER + INTRA:         -15.064
REMARK INTER:                 -13.231
REMARK INTRA:                  -1.832
REMARK CONF_INDEPENDENT:        4.176
REMARK UNBOUND:                -1.832
REMARK  14 active torsions:
REMARK  status: ('A' for Active; 'I' for Inactive)
REMARK    1  A    between atoms: C_2  and  C_3 
REMARK    2  A    between atoms: C_3  and  O_4 
REMARK    3  A    between atoms: O_4  and  C_5 
REMARK    4  A    between atoms: C_8  and  C_9 
REMARK       I    between atoms: C_9  and  N_11 
REMARK    5  A    between atoms: N_11  and  N_12 
REMARK    6  A    between atoms: C_13  and  C_14 
REMARK    7  A    between atoms: C_17  and  O_18 
REMARK    8  A    between atoms: O_18  and  C_19 
REMARK    9  A    between atoms: C_19  and  C_21 
REMARK   10  A    between atoms: C_24  and  O_25 
REMARK   11  A    between atoms: O_25  and  C_26 
REMARK   12  A    between atoms: C_26  and  C_27 
REMARK   13  A    between atoms: C_27  and  C_28 
REMARK   14  A    between atoms: C_32  and  O_33 
ROOT
ATOM      1  C   UNL d   1      27.967 -14.281   2.321  0.00  0.00    -0.014 A 
ATOM      2  C   UNL d   1      26.905 -13.419   2.017  0.00  0.00     0.016 A 
ATOM      3  C   UNL d   1      26.301 -13.459   0.736  0.00  0.00     0.041 A 
ATOM      4  C   UNL d   1      26.779 -14.353  -0.241  0.00  0.00     0.112 A 
ATOM      5  C   UNL d   1      27.802 -15.248   0.110  0.00  0.00     0.102 A 
ATOM      6  C   UNL d   1      28.420 -15.172   1.357  0.00  0.00     0.052 A 
ENDROOT
BRANCH   1   7
ATOM      7  C   UNL d   1      28.566 -14.399   3.678  0.00  0.00     0.150 C 
ATOM      8  N   UNL d   1      27.898 -14.939   4.651  0.00  0.00    -0.183 NA
BRANCH   8   9
ATOM      9  N   UNL d   1      28.484 -14.985   5.896  0.00  0.00    -0.243 N 
ATOM     10  C   UNL d   1      28.907 -13.791   6.499  0.00  0.00     0.271 C 
ATOM     11  O   UNL d   1      28.776 -12.683   5.979  0.00  0.00    -0.266 OA
ATOM     12  H   UNL d   1      28.615 -15.887   6.330  0.00  0.00     0.192 HD
BRANCH  10  13
ATOM     13  C   UNL d   1      29.586 -13.867   7.848  0.00  0.00     0.033 A 
ATOM     14  C   UNL d   1      28.841 -14.301   8.960  0.00  0.00     0.020 A 
ATOM     15  C   UNL d   1      29.383 -14.275  10.259  0.00  0.00     0.038 A 
ATOM     16  C   UNL d   1      30.706 -13.884  10.467  0.00  0.00     0.069 A 
ATOM     17  C   UNL d   1      31.468 -13.502   9.364  0.00  0.00     0.038 A 
ATOM     18  C   UNL d   1      30.916 -13.491   8.068  0.00  0.00     0.020 A 
BRANCH  16  19
ATOM     19  O   UNL d   1      31.186 -14.012  11.747  0.00  0.00    -0.348 OA
BRANCH  19  20
ATOM     20  C   UNL d   1      32.462 -14.646  11.880  0.00  0.00     0.202 C 
BRANCH  20  21
ATOM     21  C   UNL d   1      32.291 -16.139  11.799  0.00  0.00    -0.011 C 
ATOM     22  C   UNL d   1      31.111 -16.746  11.999  0.00  0.00     0.009 C 
ENDBRANCH  20  21
ENDBRANCH  19  20
ENDBRANCH  16  19
ENDBRANCH  10  13
ENDBRANCH   8   9
ENDBRANCH   1   7
BRANCH   5  23
ATOM     23  O   UNL d   1      28.053 -16.278  -0.728  0.00  0.00    -0.353 OA
ATOM     24  C   UNL d   1      28.274 -17.579  -0.230  0.00  0.00     0.210 C 
ENDBRANCH   5  23
BRANCH   4  25
ATOM     25  O   UNL d   1      26.167 -14.311  -1.555  0.00  0.00    -0.272 OA
BRANCH  25  26
ATOM     26  C   UNL d   1      25.480 -15.366  -2.169  0.00  0.00     0.298 C 
ATOM     27  O   UNL d   1      25.421 -15.691  -3.356  0.00  0.00    -0.259 OA
BRANCH  26  28
ATOM     28  C   UNL d   1      24.627 -16.190  -1.316  0.00  0.00     0.040 A 
ATOM     29  C   UNL d   1      25.140 -17.445  -0.941  0.00  0.00     0.020 A 
ATOM     30  C   UNL d   1      24.285 -18.460  -0.520  0.00  0.00     0.038 A 
ATOM     31  C   UNL d   1      22.920 -18.203  -0.394  0.00  0.00     0.068 A 
ATOM     32  C   UNL d   1      22.412 -16.957  -0.790  0.00  0.00     0.038 A 
ATOM     33  C   UNL d   1      23.259 -15.950  -1.264  0.00  0.00     0.020 A 
BRANCH  31  34
ATOM     34  O   UNL d   1      22.178 -19.231   0.127  0.00  0.00    -0.351 OA
BRANCH  34  35
ATOM     35  C   UNL d   1      20.834 -19.318  -0.350  0.00  0.00     0.175 C 
BRANCH  35  36
ATOM     36  C   UNL d   1      19.934 -19.836   0.764  0.00  0.00     0.026 C 
BRANCH  36  37
ATOM     37  C   UNL d   1      18.785 -20.661   0.190  0.00  0.00    -0.002 C 
ATOM     38  C   UNL d   1      18.018 -21.369   1.292  0.00  0.00     0.005 C 
ENDBRANCH  36  37
ENDBRANCH  35  36
ENDBRANCH  34  35
ENDBRANCH  31  34
ENDBRANCH  26  28
ENDBRANCH  25  26
ENDBRANCH   4  25
TORSDOF 14
ENDMDL
MODEL 2
REMARK VINA RESULT:    -8.941      6.902     12.321
REMARK INTER + INTRA:         -14.535
REMARK INTER:                 -13.117
REMARK INTRA:                  -1.418
REMARK CONF_INDEPENDENT:        4.176
REMARK UNBOUND:                -1.418
REMARK  14 active torsions:
REMARK  status: ('A' for Active; 'I' for Inactive)
REMARK    1  A    between atoms: C_2  and  C_3 
REMARK    2  A    between atoms: C_3  and  O_4 
REMARK    3  A    between atoms: O_4  and  C_5 
REMARK    4  A    between atoms: C_8  and  C_9 
REMARK       I    between atoms: C_9  and  N_11 
REMARK    5  A    between atoms: N_11  and  N_12 
REMARK    6  A    between atoms: C_13  and  C_14 
REMARK    7  A    between atoms: C_17  and  O_18 
REMARK    8  A    between atoms: O_18  and  C_19 
REMARK    9  A    between atoms: C_19  and  C_21 
REMARK   10  A    between atoms: C_24  and  O_25 
REMARK   11  A    between atoms: O_25  and  C_26 
REMARK   12  A    between atoms: C_26  and  C_27 
REMARK   13  A    between atoms: C_27  and  C_28 
REMARK   14  A    between atoms: C_32  and  O_33 
ROOT
ATOM      1  C   UNL d   1      26.311 -12.434  -3.628  0.00  0.00    -0.014 A 
ATOM      2  C   UNL d   1      27.030 -12.384  -2.426  0.00  0.00     0.016 A 
ATOM      3  C   UNL d   1      27.857 -13.470  -2.048  0.00  0.00     0.041 A 
ATOM      4  C   UNL d   1      27.943 -14.610  -2.868  0.00  0.00     0.112 A 
ATOM      5  C   UNL d   1      27.262 -14.608  -4.096  0.00  0.00     0.102 A 
ATOM      6  C   UNL d   1      26.417 -13.555  -4.441  0.00  0.00     0.052 A 
ENDROOT
BRANCH   1   7
ATOM      7  C   UNL d   1      25.530 -11.287  -4.165  0.00  0.00     0.150 C 
ATOM      8  N   UNL d   1      25.598 -10.119  -3.602  0.00  0.00    -0.183 NA
BRANCH   8   9
ATOM      9  N   UNL d   1      24.822  -9.103  -4.115  0.00  0.00    -0.243 N 
ATOM     10  C   UNL d   1      24.780  -8.907  -5.503  0.00  0.00     0.271 C 
ATOM     11  O   UNL d   1      25.399  -9.604  -6.307  0.00  0.00    -0.266 OA
ATOM     12  H   UNL d   1      24.322  -8.512  -3.468  0.00  0.00     0.192 HD
BRANCH  10  13
ATOM     13  C   UNL d   1      23.956  -7.761  -6.043  0.00  0.00     0.033 A 
ATOM     14  C   UNL d   1      22.809  -7.355  -5.335  0.00  0.00     0.020 A 
ATOM     15  C   UNL d   1      21.937  -6.379  -5.851  0.00  0.00     0.038 A 
ATOM     16  C   UNL d   1      22.228  -5.733  -7.052  0.00  0.00     0.069 A 
ATOM     17  C   UNL d   1      23.390  -6.090  -7.735  0.00  0.00     0.038 A 
ATOM     18  C   UNL d   1      24.244  -7.095  -7.240  0.00  0.00     0.020 A 
BRANCH  16  19
ATOM     19  O   UNL d   1      21.390  -4.707  -7.412  0.00  0.00    -0.348 OA
BRANCH  19  20
ATOM     20  C   UNL d   1      19.988  -4.999  -7.378  0.00  0.00     0.202 C 
BRANCH  20  21
ATOM     21  C   UNL d   1      19.720  -6.262  -8.149  0.00  0.00    -0.011 C 
ATOM     22  C   UNL d   1      18.540  -6.520  -8.734  0.00  0.00     0.009 C 
ENDBRANCH  20  21
ENDBRANCH  19  20
ENDBRANCH  16  19
ENDBRANCH  10  13
ENDBRANCH   8   9
ENDBRANCH   1   7
BRANCH   5  23
ATOM     23  O   UNL d   1      27.576 -15.569  -4.992  0.00  0.00    -0.353 OA
ATOM     24  C   UNL d   1      28.828 -15.572  -5.642  0.00  0.00     0.210 C 
ENDBRANCH   5  23
BRANCH   4  25
ATOM     25  O   UNL d   1      28.755 -15.720  -2.405  0.00  0.00    -0.272 OA
BRANCH  25  26
ATOM     26  C   UNL d   1      28.758 -16.241  -1.105  0.00  0.00     0.298 C 
ATOM     27  O   UNL d   1      29.700 -16.483  -0.348  0.00  0.00    -0.259 OA
BRANCH  26  28
ATOM     28  C   UNL d   1      27.470 -16.646  -0.547  0.00  0.00     0.040 A 
ATOM     29  C   UNL d   1      27.423 -17.912   0.066  0.00  0.00     0.020 A 
ATOM     30  C   UNL d   1      26.206 -18.570   0.232  0.00  0.00     0.038 A 
ATOM     31  C   UNL d   1      25.022 -17.935  -0.141  0.00  0.00     0.068 A 
ATOM     32  C   UNL d   1      25.078 -16.683  -0.771  0.00  0.00     0.038 A 
ATOM     33  C   UNL d   1      26.301 -16.038  -0.988  0.00  0.00     0.020 A 
BRANCH  31  34
ATOM     34  O   UNL d   1      23.873 -18.619   0.159  0.00  0.00    -0.351 OA
BRANCH  34  35
ATOM     35  C   UNL d   1      23.117 -19.066  -0.968  0.00  0.00     0.175 C 
BRANCH  35  36
ATOM     36  C   UNL d   1      21.708 -18.493  -0.891  0.00  0.00     0.026 C 
BRANCH  36  37
ATOM     37  C   UNL d   1      20.831 -19.335   0.033  0.00  0.00    -0.002 C 
ATOM     38  C   UNL d   1      19.425 -19.468  -0.522  0.00  0.00     0.005 C 
ENDBRANCH  36  37
ENDBRANCH  35  36
ENDBRANCH  34  35
ENDBRANCH  31  34
ENDBRANCH  26  28
ENDBRANCH  25  26
ENDBRANCH   4  25
TORSDOF 14
ENDMDL
MODEL 3
REMARK VINA RESULT:    -8.744      1.026      1.627
REMARK INTER + INTRA:         -14.775
REMARK INTER:                 -12.920
REMARK INTRA:                  -1.854
REMARK CONF_INDEPENDENT:        4.176
REMARK UNBOUND:                -1.854
REMARK  14 active torsions:
REMARK  status: ('A' for Active; 'I' for Inactive)
REMARK    1  A    between atoms: C_2  and  C_3 
REMARK    2  A    between atoms: C_3  and  O_4 
REMARK    3  A    between atoms: O_4  and  C_5 
REMARK    4  A    between atoms: C_8  and  C_9 
REMARK       I    between atoms: C_9  and  N_11 
REMARK    5  A    between atoms: N_11  and  N_12 
REMARK    6  A    between atoms: C_13  and  C_14 
REMARK    7  A    between atoms: C_17  and  O_18 
REMARK    8  A    between atoms: O_18  and  C_19 
REMARK    9  A    between atoms: C_19  and  C_21 
REMARK   10  A    between atoms: C_24  and  O_25 
REMARK   11  A    between atoms: O_25  and  C_26 
REMARK   12  A    between atoms: C_26  and  C_27 
REMARK   13  A    between atoms: C_27  and  C_28 
REMARK   14  A    between atoms: C_32  and  O_33 
ROOT
ATOM      1  C   UNL d   1      27.852 -14.374   2.261  0.00  0.00    -0.014 A 
ATOM      2  C   UNL d   1      26.985 -13.348   1.860  0.00  0.00     0.016 A 
ATOM      3  C   UNL d   1      26.327 -13.423   0.608  0.00  0.00     0.041 A 
ATOM      4  C   UNL d   1      26.557 -14.519  -0.245  0.00  0.00     0.112 A 
ATOM      5  C   UNL d   1      27.380 -15.562   0.208  0.00  0.00     0.102 A 
ATOM      6  C   UNL d   1      28.058 -15.461   1.422  0.00  0.00     0.052 A 
ENDROOT
BRANCH   1   7
ATOM      7  C   UNL d   1      28.474 -14.440   3.611  0.00  0.00     0.150 C 
ATOM      8  N   UNL d   1      27.785 -14.830   4.640  0.00  0.00    -0.183 NA
BRANCH   8   9
ATOM      9  N   UNL d   1      28.399 -14.833   5.872  0.00  0.00    -0.243 N 
ATOM     10  C   UNL d   1      28.428 -13.651   6.627  0.00  0.00     0.271 C 
ATOM     11  O   UNL d   1      27.922 -12.593   6.253  0.00  0.00    -0.266 OA
ATOM     12  H   UNL d   1      28.834 -15.687   6.185  0.00  0.00     0.192 HD
BRANCH  10  13
ATOM     13  C   UNL d   1      29.144 -13.664   7.958  0.00  0.00     0.033 A 
ATOM     14  C   UNL d   1      30.491 -14.073   8.001  0.00  0.00     0.020 A 
ATOM     15  C   UNL d   1      31.171 -14.224   9.224  0.00  0.00     0.038 A 
ATOM     16  C   UNL d   1      30.545 -13.900  10.427  0.00  0.00     0.069 A 
ATOM     17  C   UNL d   1      29.228 -13.443  10.390  0.00  0.00     0.038 A 
ATOM     18  C   UNL d   1      28.532 -13.329   9.171  0.00  0.00     0.020 A 
BRANCH  16  19
ATOM     19  O   UNL d   1      31.325 -13.956  11.555  0.00  0.00    -0.348 OA
BRANCH  19  20
ATOM     20  C   UNL d   1      31.581 -12.707  12.206  0.00  0.00     0.202 C 
BRANCH  20  21
ATOM     21  C   UNL d   1      31.658 -11.612  11.177  0.00  0.00    -0.011 C 
ATOM     22  C   UNL d   1      32.802 -10.980  10.872  0.00  0.00     0.009 C 
ENDBRANCH  20  21
ENDBRANCH  19  20
ENDBRANCH  16  19
ENDBRANCH  10  13
ENDBRANCH   8   9
ENDBRANCH   1   7
BRANCH   5  23
ATOM     23  O   UNL d   1      27.366 -16.722  -0.485  0.00  0.00    -0.353 OA
ATOM     24  C   UNL d   1      27.525 -17.960   0.173  0.00  0.00     0.210 C 
ENDBRANCH   5  23
BRANCH   4  25
ATOM     25  O   UNL d   1      25.907 -14.517  -1.542  0.00  0.00    -0.272 OA
BRANCH  25  26
ATOM     26  C   UNL d   1      25.306 -15.624  -2.155  0.00  0.00     0.298 C 
ATOM     27  O   UNL d   1      25.361 -16.012  -3.323  0.00  0.00    -0.259 OA
BRANCH  26  28
ATOM     28  C   UNL d   1      24.403 -16.429  -1.336  0.00  0.00     0.040 A 
ATOM     29  C   UNL d   1      24.674 -17.809  -1.275  0.00  0.00     0.020 A 
ATOM     30  C   UNL d   1      23.676 -18.708  -0.908  0.00  0.00     0.038 A 
ATOM     31  C   UNL d   1      22.424 -18.230  -0.523  0.00  0.00     0.068 A 
ATOM     32  C   UNL d   1      22.154 -16.856  -0.607  0.00  0.00     0.038 A 
ATOM     33  C   UNL d   1      23.136 -15.951  -1.024  0.00  0.00     0.020 A 
BRANCH  31  34
ATOM     34  O   UNL d   1      21.546 -19.184  -0.081  0.00  0.00    -0.351 OA
BRANCH  34  35
ATOM     35  C   UNL d   1      20.447 -19.455  -0.953  0.00  0.00     0.175 C 
BRANCH  35  36
ATOM     36  C   UNL d   1      19.155 -19.475  -0.148  0.00  0.00     0.026 C 
BRANCH  36  37
ATOM     37  C   UNL d   1      19.150 -20.641   0.838  0.00  0.00    -0.002 C 
ATOM     38  C   UNL d   1      19.661 -20.206   2.199  0.00  0.00     0.005 C 
ENDBRANCH  36  37
ENDBRANCH  35  36
ENDBRANCH  34  35
ENDBRANCH  31  34
ENDBRANCH  26  28
ENDBRANCH  25  26
ENDBRANCH   4  25
TORSDOF 14
ENDMDL
MODEL 4
REMARK VINA RESULT:    -8.295      3.580      6.460
REMARK INTER + INTRA:         -14.220
REMARK INTER:                 -12.471
REMARK INTRA:                  -1.749
REMARK CONF_INDEPENDENT:        4.176
REMARK UNBOUND:                -1.749
REMARK  14 active torsions:
REMARK  status: ('A' for Active; 'I' for Inactive)
REMARK    1  A    between atoms: C_2  and  C_3 
REMARK    2  A    between atoms: C_3  and  O_4 
REMARK    3  A    between atoms: O_4  and  C_5 
REMARK    4  A    between atoms: C_8  and  C_9 
REMARK       I    between atoms: C_9  and  N_11 
REMARK    5  A    between atoms: N_11  and  N_12 
REMARK    6  A    between atoms: C_13  and  C_14 
REMARK    7  A    between atoms: C_17  and  O_18 
REMARK    8  A    between atoms: O_18  and  C_19 
REMARK    9  A    between atoms: C_19  and  C_21 
REMARK   10  A    between atoms: C_24  and  O_25 
REMARK   11  A    between atoms: O_25  and  C_26 
REMARK   12  A    between atoms: C_26  and  C_27 
REMARK   13  A    between atoms: C_27  and  C_28 
REMARK   14  A    between atoms: C_32  and  O_33 
ROOT
ATOM      1  C   UNL d   1      27.284 -15.809  -0.001  0.00  0.00    -0.014 A 
ATOM      2  C   UNL d   1      27.989 -15.279  -1.090  0.00  0.00     0.016 A 
ATOM      3  C   UNL d   1      27.404 -15.275  -2.381  0.00  0.00     0.041 A 
ATOM      4  C   UNL d   1      26.121 -15.819  -2.575  0.00  0.00     0.112 A 
ATOM      5  C   UNL d   1      25.412 -16.286  -1.457  0.00  0.00     0.102 A 
ATOM      6  C   UNL d   1      26.010 -16.326  -0.198  0.00  0.00     0.052 A 
ENDROOT
BRANCH   1   7
ATOM      7  C   UNL d   1      27.765 -15.729   1.405  0.00  0.00     0.150 C 
ATOM      8  N   UNL d   1      27.750 -14.601   2.047  0.00  0.00    -0.183 NA
BRANCH   8   9
ATOM      9  N   UNL d   1      28.246 -14.577   3.331  0.00  0.00    -0.243 N 
ATOM     10  C   UNL d   1      27.904 -13.513   4.179  0.00  0.00     0.271 C 
ATOM     11  O   UNL d   1      27.167 -12.586   3.842  0.00  0.00    -0.266 OA
ATOM     12  H   UNL d   1      28.866 -15.320   3.617  0.00  0.00     0.192 HD
BRANCH  10  13
ATOM     13  C   UNL d   1      28.493 -13.483   5.570  0.00  0.00     0.033 A 
ATOM     14  C   UNL d   1      27.988 -12.557   6.503  0.00  0.00     0.020 A 
ATOM     15  C   UNL d   1      28.577 -12.399   7.771  0.00  0.00     0.038 A 
ATOM     16  C   UNL d   1      29.639 -13.214   8.165  0.00  0.00     0.069 A 
ATOM     17  C   UNL d   1      30.111 -14.172   7.267  0.00  0.00     0.038 A 
ATOM     18  C   UNL d   1      29.548 -14.305   5.983  0.00  0.00     0.020 A 
BRANCH  16  19
ATOM     19  O   UNL d   1      30.065 -13.076   9.462  0.00  0.00    -0.348 OA
BRANCH  19  20
ATOM     20  C   UNL d   1      29.849 -14.203  10.319  0.00  0.00     0.202 C 
BRANCH  20  21
ATOM     21  C   UNL d   1      28.663 -13.938  11.205  0.00  0.00    -0.011 C 
ATOM     22  C   UNL d   1      27.411 -13.838  10.732  0.00  0.00     0.009 C 
ENDBRANCH  20  21
ENDBRANCH  19  20
ENDBRANCH  16  19
ENDBRANCH  10  13
ENDBRANCH   8   9
ENDBRANCH   1   7
BRANCH   5  23
ATOM     23  O   UNL d   1      24.093 -16.536  -1.607  0.00  0.00    -0.353 OA
ATOM     24  C   UNL d   1      23.446 -17.510  -0.817  0.00  0.00     0.210 C 
ENDBRANCH   5  23
BRANCH   4  25
ATOM     25  O   UNL d   1      25.594 -15.846  -3.926  0.00  0.00    -0.272 OA
BRANCH  25  26
ATOM     26  C   UNL d   1      26.124 -15.155  -5.023  0.00  0.00     0.298 C 
ATOM     27  O   UNL d   1      26.747 -15.574  -6.000  0.00  0.00    -0.259 OA
BRANCH  26  28
ATOM     28  C   UNL d   1      26.010 -13.699  -5.010  0.00  0.00     0.040 A 
ATOM     29  C   UNL d   1      26.974 -12.988  -5.750  0.00  0.00     0.020 A 
ATOM     30  C   UNL d   1      27.231 -11.648  -5.470  0.00  0.00     0.038 A 
ATOM     31  C   UNL d   1      26.472 -10.988  -4.503  0.00  0.00     0.068 A 
ATOM     32  C   UNL d   1      25.529 -11.708  -3.755  0.00  0.00     0.038 A 
ATOM     33  C   UNL d   1      25.302 -13.067  -3.995  0.00  0.00     0.020 A 
BRANCH  31  34
ATOM     34  O   UNL d   1      26.729  -9.648  -4.375  0.00  0.00    -0.351 OA
BRANCH  34  35
ATOM     35  C   UNL d   1      25.578  -8.803  -4.370  0.00  0.00     0.175 C 
BRANCH  35  36
ATOM     36  C   UNL d   1      24.788  -9.015  -5.655  0.00  0.00     0.026 C 
BRANCH  36  37
ATOM     37  C   UNL d   1      24.197  -7.697  -6.150  0.00  0.00    -0.002 C 
ATOM     38  C   UNL d   1      23.465  -6.975  -5.034  0.00  0.00     0.005 C 
ENDBRANCH  36  37
ENDBRANCH  35  36
ENDBRANCH  34  35
ENDBRANCH  31  34
ENDBRANCH  26  28
ENDBRANCH  25  26
ENDBRANCH   4  25
TORSDOF 14
ENDMDL
MODEL 5
REMARK VINA RESULT:    -8.200      5.455      6.526
REMARK INTER + INTRA:         -14.012
REMARK INTER:                 -12.376
REMARK INTRA:                  -1.636
REMARK CONF_INDEPENDENT:        4.176
REMARK UNBOUND:                -1.636
REMARK  14 active torsions:
REMARK  status: ('A' for Active; 'I' for Inactive)
REMARK    1  A    between atoms: C_2  and  C_3 
REMARK    2  A    between atoms: C_3  and  O_4 
REMARK    3  A    between atoms: O_4  and  C_5 
REMARK    4  A    between atoms: C_8  and  C_9 
REMARK       I    between atoms: C_9  and  N_11 
REMARK    5  A    between atoms: N_11  and  N_12 
REMARK    6  A    between atoms: C_13  and  C_14 
REMARK    7  A    between atoms: C_17  and  O_18 
REMARK    8  A    between atoms: O_18  and  C_19 
REMARK    9  A    between atoms: C_19  and  C_21 
REMARK   10  A    between atoms: C_24  and  O_25 
REMARK   11  A    between atoms: O_25  and  C_26 
REMARK   12  A    between atoms: C_26  and  C_27 
REMARK   13  A    between atoms: C_27  and  C_28 
REMARK   14  A    between atoms: C_32  and  O_33 
ROOT
ATOM      1  C   UNL d   1      32.687 -18.171   1.665  0.00  0.00    -0.014 A 
ATOM      2  C   UNL d   1      32.281 -16.848   1.882  0.00  0.00     0.016 A 
ATOM      3  C   UNL d   1      31.446 -16.197   0.941  0.00  0.00     0.041 A 
ATOM      4  C   UNL d   1      31.038 -16.873  -0.225  0.00  0.00     0.112 A 
ATOM      5  C   UNL d   1      31.407 -18.218  -0.387  0.00  0.00     0.102 A 
ATOM      6  C   UNL d   1      32.264 -18.837   0.522  0.00  0.00     0.052 A 
ENDROOT
BRANCH   1   7
ATOM      7  C   UNL d   1      33.448 -18.971   2.664  0.00  0.00     0.150 C 
ATOM      8  N   UNL d   1      32.837 -19.814   3.440  0.00  0.00    -0.183 NA
BRANCH   8   9
ATOM      9  N   UNL d   1      33.584 -20.496   4.374  0.00  0.00    -0.243 N 
ATOM     10  C   UNL d   1      32.959 -20.976   5.534  0.00  0.00     0.271 C 
ATOM     11  O   UNL d   1      31.760 -20.829   5.770  0.00  0.00    -0.266 OA
ATOM     12  H   UNL d   1      34.572 -20.610   4.204  0.00  0.00     0.192 HD
BRANCH  10  13
ATOM     13  C   UNL d   1      33.805 -21.686   6.566  0.00  0.00     0.033 A 
ATOM     14  C   UNL d   1      34.751 -20.942   7.298  0.00  0.00     0.020 A 
ATOM     15  C   UNL d   1      35.649 -21.568   8.182  0.00  0.00     0.038 A 
ATOM     16  C   UNL d   1      35.576 -22.943   8.410  0.00  0.00     0.069 A 
ATOM     17  C   UNL d   1      34.607 -23.680   7.730  0.00  0.00     0.038 A 
ATOM     18  C   UNL d   1      33.732 -23.061   6.816  0.00  0.00     0.020 A 
BRANCH  16  19
ATOM     19  O   UNL d   1      36.405 -23.445   9.382  0.00  0.00    -0.348 OA
BRANCH  19  20
ATOM     20  C   UNL d   1      35.884 -23.449  10.715  0.00  0.00     0.202 C 
BRANCH  20  21
ATOM     21  C   UNL d   1      36.474 -22.300  11.487  0.00  0.00    -0.011 C 
ATOM     22  C   UNL d   1      35.902 -21.088  11.537  0.00  0.00     0.009 C 
ENDBRANCH  20  21
ENDBRANCH  19  20
ENDBRANCH  16  19
ENDBRANCH  10  13
ENDBRANCH   8   9
ENDBRANCH   1   7
BRANCH   5  23
ATOM     23  O   UNL d   1      30.783 -18.931  -1.349  0.00  0.00    -0.353 OA
ATOM     24  C   UNL d   1      31.386 -19.131  -2.609  0.00  0.00     0.210 C 
ENDBRANCH   5  23
BRANCH   4  25
ATOM     25  O   UNL d   1      30.235 -16.141  -1.186  0.00  0.00    -0.272 OA
BRANCH  25  26
ATOM     26  C   UNL d   1      29.007 -15.523  -0.921  0.00  0.00     0.298 C 
ATOM     27  O   UNL d   1      28.762 -14.408  -0.456  0.00  0.00    -0.259 OA
BRANCH  26  28
ATOM     28  C   UNL d   1      27.801 -16.317  -1.144  0.00  0.00     0.040 A 
ATOM     29  C   UNL d   1      26.935 -15.870  -2.159  0.00  0.00     0.020 A 
ATOM     30  C   UNL d   1      25.599 -16.263  -2.171  0.00  0.00     0.038 A 
ATOM     31  C   UNL d   1      25.138 -17.167  -1.214  0.00  0.00     0.068 A 
ATOM     32  C   UNL d   1      26.000 -17.591  -0.192  0.00  0.00     0.038 A 
ATOM     33  C   UNL d   1      27.330 -17.160  -0.144  0.00  0.00     0.020 A 
BRANCH  31  34
ATOM     34  O   UNL d   1      23.838 -17.572  -1.372  0.00  0.00    -0.351 OA
BRANCH  34  35
ATOM     35  C   UNL d   1      23.478 -18.760  -0.665  0.00  0.00     0.175 C 
BRANCH  35  36
ATOM     36  C   UNL d   1      22.135 -18.553   0.021  0.00  0.00     0.026 C 
BRANCH  36  37
ATOM     37  C   UNL d   1      20.990 -19.001  -0.885  0.00  0.00    -0.002 C 
ATOM     38  C   UNL d   1      19.933 -19.752  -0.097  0.00  0.00     0.005 C 
ENDBRANCH  36  37
ENDBRANCH  35  36
ENDBRANCH  34  35
ENDBRANCH  31  34
ENDBRANCH  26  28
ENDBRANCH  25  26
ENDBRANCH   4  25
TORSDOF 14
ENDMDL
MODEL 6
REMARK VINA RESULT:    -8.146      6.481     12.071
REMARK INTER + INTRA:         -14.162
REMARK INTER:                 -12.323
REMARK INTRA:                  -1.839
REMARK CONF_INDEPENDENT:        4.176
REMARK UNBOUND:                -1.839
REMARK  14 active torsions:
REMARK  status: ('A' for Active; 'I' for Inactive)
REMARK    1  A    between atoms: C_2  and  C_3 
REMARK    2  A    between atoms: C_3  and  O_4 
REMARK    3  A    between atoms: O_4  and  C_5 
REMARK    4  A    between atoms: C_8  and  C_9 
REMARK       I    between atoms: C_9  and  N_11 
REMARK    5  A    between atoms: N_11  and  N_12 
REMARK    6  A    between atoms: C_13  and  C_14 
REMARK    7  A    between atoms: C_17  and  O_18 
REMARK    8  A    between atoms: O_18  and  C_19 
REMARK    9  A    between atoms: C_19  and  C_21 
REMARK   10  A    between atoms: C_24  and  O_25 
REMARK   11  A    between atoms: O_25  and  C_26 
REMARK   12  A    between atoms: C_26  and  C_27 
REMARK   13  A    between atoms: C_27  and  C_28 
REMARK   14  A    between atoms: C_32  and  O_33 
ROOT
ATOM      1  C   UNL d   1      26.408 -12.363  -2.899  0.00  0.00    -0.014 A 
ATOM      2  C   UNL d   1      27.239 -13.209  -3.647  0.00  0.00     0.016 A 
ATOM      3  C   UNL d   1      27.942 -14.260  -3.008  0.00  0.00     0.041 A 
ATOM      4  C   UNL d   1      27.822 -14.445  -1.618  0.00  0.00     0.112 A 
ATOM      5  C   UNL d   1      26.936 -13.624  -0.904  0.00  0.00     0.102 A 
ATOM      6  C   UNL d   1      26.281 -12.565  -1.531  0.00  0.00     0.052 A 
ENDROOT
BRANCH   1   7
ATOM      7  C   UNL d   1      25.532 -11.326  -3.509  0.00  0.00     0.150 C 
ATOM      8  N   UNL d   1      25.812 -10.065  -3.380  0.00  0.00    -0.183 NA
BRANCH   8   9
ATOM      9  N   UNL d   1      24.945  -9.147  -3.929  0.00  0.00    -0.243 N 
ATOM     10  C   UNL d   1      24.995  -8.895  -5.308  0.00  0.00     0.271 C 
ATOM     11  O   UNL d   1      25.775  -9.460  -6.074  0.00  0.00    -0.266 OA
ATOM     12  H   UNL d   1      24.310  -8.662  -3.312  0.00  0.00     0.192 HD
BRANCH  10  13
ATOM     13  C   UNL d   1      24.063  -7.854  -5.884  0.00  0.00     0.033 A 
ATOM     14  C   UNL d   1      22.946  -7.449  -5.128  0.00  0.00     0.020 A 
ATOM     15  C   UNL d   1      21.978  -6.577  -5.661  0.00  0.00     0.038 A 
ATOM     16  C   UNL d   1      22.141  -6.031  -6.934  0.00  0.00     0.069 A 
ATOM     17  C   UNL d   1      23.272  -6.385  -7.670  0.00  0.00     0.038 A 
ATOM     18  C   UNL d   1      24.222  -7.288  -7.154  0.00  0.00     0.020 A 
BRANCH  16  19
ATOM     19  O   UNL d   1      21.216  -5.093  -7.319  0.00  0.00    -0.348 OA
BRANCH  19  20
ATOM     20  C   UNL d   1      19.842  -5.466  -7.168  0.00  0.00     0.202 C 
BRANCH  20  21
ATOM     21  C   UNL d   1      19.554  -6.674  -8.019  0.00  0.00    -0.011 C 
ATOM     22  C   UNL d   1      18.404  -7.360  -7.941  0.00  0.00     0.009 C 
ENDBRANCH  20  21
ENDBRANCH  19  20
ENDBRANCH  16  19
ENDBRANCH  10  13
ENDBRANCH   8   9
ENDBRANCH   1   7
BRANCH   5  23
ATOM     23  O   UNL d   1      26.615 -13.989   0.357  0.00  0.00    -0.353 OA
ATOM     24  C   UNL d   1      27.616 -14.168   1.335  0.00  0.00     0.210 C 
ENDBRANCH   5  23
BRANCH   4  25
ATOM     25  O   UNL d   1      28.611 -15.496  -1.004  0.00  0.00    -0.272 OA
BRANCH  25  26
ATOM     26  C   UNL d   1      28.341 -16.869  -1.078  0.00  0.00     0.298 C 
ATOM     27  O   UNL d   1      29.098 -17.817  -1.292  0.00  0.00    -0.259 OA
BRANCH  26  28
ATOM     28  C   UNL d   1      26.943 -17.278  -0.966  0.00  0.00     0.040 A 
ATOM     29  C   UNL d   1      26.048 -16.712  -1.893  0.00  0.00     0.020 A 
ATOM     30  C   UNL d   1      24.682 -16.679  -1.624  0.00  0.00     0.038 A 
ATOM     31  C   UNL d   1      24.192 -17.280  -0.465  0.00  0.00     0.068 A 
ATOM     32  C   UNL d   1      25.092 -17.823   0.464  0.00  0.00     0.038 A 
ATOM     33  C   UNL d   1      26.470 -17.815   0.225  0.00  0.00     0.020 A 
BRANCH  31  34
ATOM     34  O   UNL d   1      22.827 -17.286  -0.343  0.00  0.00    -0.351 OA
BRANCH  34  35
ATOM     35  C   UNL d   1      22.234 -18.575  -0.174  0.00  0.00     0.175 C 
BRANCH  35  36
ATOM     36  C   UNL d   1      20.893 -18.613  -0.892  0.00  0.00     0.026 C 
BRANCH  36  37
ATOM     37  C   UNL d   1      20.050 -19.789  -0.403  0.00  0.00    -0.002 C 
ATOM     38  C   UNL d   1      19.811 -19.703   1.093  0.00  0.00     0.005 C 
ENDBRANCH  36  37
ENDBRANCH  35  36
ENDBRANCH  34  35
ENDBRANCH  31  34
ENDBRANCH  26  28
ENDBRANCH  25  26
ENDBRANCH   4  25
TORSDOF 14
ENDMDL
MODEL 7
REMARK VINA RESULT:    -8.091      3.729      4.626
REMARK INTER + INTRA:         -13.918
REMARK INTER:                 -12.268
REMARK INTRA:                  -1.651
REMARK CONF_INDEPENDENT:        4.176
REMARK UNBOUND:                -1.651
REMARK  14 active torsions:
REMARK  status: ('A' for Active; 'I' for Inactive)
REMARK    1  A    between atoms: C_2  and  C_3 
REMARK    2  A    between atoms: C_3  and  O_4 
REMARK    3  A    between atoms: O_4  and  C_5 
REMARK    4  A    between atoms: C_8  and  C_9 
REMARK       I    between atoms: C_9  and  N_11 
REMARK    5  A    between atoms: N_11  and  N_12 
REMARK    6  A    between atoms: C_13  and  C_14 
REMARK    7  A    between atoms: C_17  and  O_18 
REMARK    8  A    between atoms: O_18  and  C_19 
REMARK    9  A    between atoms: C_19  and  C_21 
REMARK   10  A    between atoms: C_24  and  O_25 
REMARK   11  A    between atoms: O_25  and  C_26 
REMARK   12  A    between atoms: C_26  and  C_27 
REMARK   13  A    between atoms: C_27  and  C_28 
REMARK   14  A    between atoms: C_32  and  O_33 
ROOT
ATOM      1  C   UNL d   1      27.441 -12.884   2.566  0.00  0.00    -0.014 A 
ATOM      2  C   UNL d   1      27.942 -14.165   2.829  0.00  0.00     0.016 A 
ATOM      3  C   UNL d   1      27.770 -15.204   1.882  0.00  0.00     0.041 A 
ATOM      4  C   UNL d   1      27.079 -14.955   0.681  0.00  0.00     0.112 A 
ATOM      5  C   UNL d   1      26.643 -13.648   0.414  0.00  0.00     0.102 A 
ATOM      6  C   UNL d   1      26.778 -12.642   1.370  0.00  0.00     0.052 A 
ENDROOT
BRANCH   1   7
ATOM      7  C   UNL d   1      27.696 -11.707   3.441  0.00  0.00     0.150 C 
ATOM      8  N   UNL d   1      27.747 -11.841   4.732  0.00  0.00    -0.183 NA
BRANCH   8   9
ATOM      9  N   UNL d   1      27.944 -10.712   5.495  0.00  0.00    -0.243 N 
ATOM     10  C   UNL d   1      29.062 -10.643   6.340  0.00  0.00     0.271 C 
ATOM     11  O   UNL d   1      29.897 -11.541   6.437  0.00  0.00    -0.266 OA
ATOM     12  H   UNL d   1      27.258  -9.974   5.441  0.00  0.00     0.192 HD
BRANCH  10  13
ATOM     13  C   UNL d   1      29.237  -9.413   7.201  0.00  0.00     0.033 A 
ATOM     14  C   UNL d   1      28.939  -8.151   6.652  0.00  0.00     0.020 A 
ATOM     15  C   UNL d   1      29.199  -6.964   7.363  0.00  0.00     0.038 A 
ATOM     16  C   UNL d   1      29.694  -7.013   8.666  0.00  0.00     0.069 A 
ATOM     17  C   UNL d   1      29.942  -8.260   9.238  0.00  0.00     0.038 A 
ATOM     18  C   UNL d   1      29.719  -9.448   8.514  0.00  0.00     0.020 A 
BRANCH  16  19
ATOM     19  O   UNL d   1      29.796  -5.813   9.326  0.00  0.00    -0.348 OA
BRANCH  19  20
ATOM     20  C   UNL d   1      29.354  -5.804  10.687  0.00  0.00     0.202 C 
BRANCH  20  21
ATOM     21  C   UNL d   1      30.544  -5.909  11.601  0.00  0.00    -0.011 C 
ATOM     22  C   UNL d   1      31.805  -5.982  11.147  0.00  0.00     0.009 C 
ENDBRANCH  20  21
ENDBRANCH  19  20
ENDBRANCH  16  19
ENDBRANCH  10  13
ENDBRANCH   8   9
ENDBRANCH   1   7
BRANCH   5  23
ATOM     23  O   UNL d   1      26.244 -13.361  -0.844  0.00  0.00    -0.353 OA
ATOM     24  C   UNL d   1      27.022 -13.747  -1.956  0.00  0.00     0.210 C 
ENDBRANCH   5  23
BRANCH   4  25
ATOM     25  O   UNL d   1      26.876 -16.068  -0.228  0.00  0.00    -0.272 OA
BRANCH  25  26
ATOM     26  C   UNL d   1      26.248 -17.278   0.092  0.00  0.00     0.298 C 
ATOM     27  O   UNL d   1      26.667 -18.246   0.730  0.00  0.00    -0.259 OA
BRANCH  26  28
ATOM     28  C   UNL d   1      24.915 -17.502  -0.460  0.00  0.00     0.040 A 
ATOM     29  C   UNL d   1      24.055 -16.388  -0.492  0.00  0.00     0.020 A 
ATOM     30  C   UNL d   1      22.676 -16.564  -0.578  0.00  0.00     0.038 A 
ATOM     31  C   UNL d   1      22.152 -17.849  -0.712  0.00  0.00     0.068 A 
ATOM     32  C   UNL d   1      23.012 -18.955  -0.657  0.00  0.00     0.038 A 
ATOM     33  C   UNL d   1      24.394 -18.789  -0.520  0.00  0.00     0.020 A 
BRANCH  31  34
ATOM     34  O   UNL d   1      20.795 -17.910  -0.894  0.00  0.00    -0.351 OA
BRANCH  34  35
ATOM     35  C   UNL d   1      20.235 -19.224  -0.886  0.00  0.00     0.175 C 
BRANCH  35  36
ATOM     36  C   UNL d   1      19.960 -19.648   0.551  0.00  0.00     0.026 C 
BRANCH  36  37
ATOM     37  C   UNL d   1      19.493 -21.101   0.606  0.00  0.00    -0.002 C 
ATOM     38  C   UNL d   1      17.998 -21.185   0.851  0.00  0.00     0.005 C 
ENDBRANCH  36  37
ENDBRANCH  35  36
ENDBRANCH  34  35
ENDBRANCH  31  34
ENDBRANCH  26  28
ENDBRANCH  25  26
ENDBRANCH   4  25
TORSDOF 14
ENDMDL
MODEL 8
REMARK VINA RESULT:    -8.007      3.561      6.409
REMARK INTER + INTRA:         -14.057
REMARK INTER:                 -12.183
REMARK INTRA:                  -1.874
REMARK CONF_INDEPENDENT:        4.176
REMARK UNBOUND:                -1.874
REMARK  14 active torsions:
REMARK  status: ('A' for Active; 'I' for Inactive)
REMARK    1  A    between atoms: C_2  and  C_3 
REMARK    2  A    between atoms: C_3  and  O_4 
REMARK    3  A    between atoms: O_4  and  C_5 
REMARK    4  A    between atoms: C_8  and  C_9 
REMARK       I    between atoms: C_9  and  N_11 
REMARK    5  A    between atoms: N_11  and  N_12 
REMARK    6  A    between atoms: C_13  and  C_14 
REMARK    7  A    between atoms: C_17  and  O_18 
REMARK    8  A    between atoms: O_18  and  C_19 
REMARK    9  A    between atoms: C_19  and  C_21 
REMARK   10  A    between atoms: C_24  and  O_25 
REMARK   11  A    between atoms: O_25  and  C_26 
REMARK   12  A    between atoms: C_26  and  C_27 
REMARK   13  A    between atoms: C_27  and  C_28 
REMARK   14  A    between atoms: C_32  and  O_33 
ROOT
ATOM      1  C   UNL d   1      27.135 -14.256   0.030  0.00  0.00    -0.014 A 
ATOM      2  C   UNL d   1      27.242 -13.265  -0.955  0.00  0.00     0.016 A 
ATOM      3  C   UNL d   1      26.618 -13.446  -2.214  0.00  0.00     0.041 A 
ATOM      4  C   UNL d   1      25.906 -14.629  -2.485  0.00  0.00     0.112 A 
ATOM      5  C   UNL d   1      25.762 -15.577  -1.460  0.00  0.00     0.102 A 
ATOM      6  C   UNL d   1      26.414 -15.412  -0.239  0.00  0.00     0.052 A 
ENDROOT
BRANCH   1   7
ATOM      7  C   UNL d   1      27.641 -14.090   1.419  0.00  0.00     0.150 C 
ATOM      8  N   UNL d   1      27.765 -15.115   2.206  0.00  0.00    -0.183 NA
BRANCH   8   9
ATOM      9  N   UNL d   1      28.199 -14.897   3.495  0.00  0.00    -0.243 N 
ATOM     10  C   UNL d   1      27.727 -13.777   4.197  0.00  0.00     0.271 C 
ATOM     11  O   UNL d   1      26.929 -12.967   3.727  0.00  0.00    -0.266 OA
ATOM     12  H   UNL d   1      28.866 -15.542   3.889  0.00  0.00     0.192 HD
BRANCH  10  13
ATOM     13  C   UNL d   1      28.248 -13.534   5.595  0.00  0.00     0.033 A 
ATOM     14  C   UNL d   1      27.868 -12.355   6.266  0.00  0.00     0.020 A 
ATOM     15  C   UNL d   1      28.417 -12.015   7.516  0.00  0.00     0.038 A 
ATOM     16  C   UNL d   1      29.303 -12.881   8.160  0.00  0.00     0.069 A 
ATOM     17  C   UNL d   1      29.643 -14.076   7.527  0.00  0.00     0.038 A 
ATOM     18  C   UNL d   1      29.125 -14.399   6.258  0.00  0.00     0.020 A 
BRANCH  16  19
ATOM     19  O   UNL d   1      29.686 -12.528   9.429  0.00  0.00    -0.348 OA
BRANCH  19  20
ATOM     20  C   UNL d   1      28.633 -12.383  10.388  0.00  0.00     0.202 C 
BRANCH  20  21
ATOM     21  C   UNL d   1      28.199 -13.742  10.864  0.00  0.00    -0.011 C 
ATOM     22  C   UNL d   1      28.982 -14.828  10.776  0.00  0.00     0.009 C 
ENDBRANCH  20  21
ENDBRANCH  19  20
ENDBRANCH  16  19
ENDBRANCH  10  13
ENDBRANCH   8   9
ENDBRANCH   1   7
BRANCH   5  23
ATOM     23  O   UNL d   1      24.850 -16.559  -1.633  0.00  0.00    -0.353 OA
ATOM     24  C   UNL d   1      24.873 -17.719  -0.829  0.00  0.00     0.210 C 
ENDBRANCH   5  23
BRANCH   4  25
ATOM     25  O   UNL d   1      25.339 -14.790  -3.811  0.00  0.00    -0.272 OA
BRANCH  25  26
ATOM     26  C   UNL d   1      25.997 -15.341  -4.918  0.00  0.00     0.298 C 
ATOM     27  O   UNL d   1      25.591 -16.133  -5.770  0.00  0.00    -0.259 OA
BRANCH  26  28
ATOM     28  C   UNL d   1      27.410 -15.012  -5.083  0.00  0.00     0.040 A 
ATOM     29  C   UNL d   1      27.783 -14.454  -6.321  0.00  0.00     0.020 A 
ATOM     30  C   UNL d   1      29.108 -14.507  -6.748  0.00  0.00     0.038 A 
ATOM     31  C   UNL d   1      30.082 -15.045  -5.907  0.00  0.00     0.068 A 
ATOM     32  C   UNL d   1      29.700 -15.619  -4.685  0.00  0.00     0.038 A 
ATOM     33  C   UNL d   1      28.364 -15.616  -4.273  0.00  0.00     0.020 A 
BRANCH  31  34
ATOM     34  O   UNL d   1      31.368 -14.956  -6.373  0.00  0.00    -0.351 OA
BRANCH  34  35
ATOM     35  C   UNL d   1      31.749 -15.963  -7.312  0.00  0.00     0.175 C 
BRANCH  35  36
ATOM     36  C   UNL d   1      31.933 -17.289  -6.586  0.00  0.00     0.026 C 
BRANCH  36  37
ATOM     37  C   UNL d   1      30.776 -18.238  -6.892  0.00  0.00    -0.002 C 
ATOM     38  C   UNL d   1      30.496 -19.153  -5.714  0.00  0.00     0.005 C 
ENDBRANCH  36  37
ENDBRANCH  35  36
ENDBRANCH  34  35
ENDBRANCH  31  34
ENDBRANCH  26  28
ENDBRANCH  25  26
ENDBRANCH   4  25
TORSDOF 14
ENDMDL
MODEL 9
REMARK VINA RESULT:    -7.343      2.636      5.964
REMARK INTER + INTRA:         -14.000
REMARK INTER:                 -11.519
REMARK INTRA:                  -2.481
REMARK CONF_INDEPENDENT:        4.176
REMARK UNBOUND:                -2.481
REMARK  14 active torsions:
REMARK  status: ('A' for Active; 'I' for Inactive)
REMARK    1  A    between atoms: C_2  and  C_3 
REMARK    2  A    between atoms: C_3  and  O_4 
REMARK    3  A    between atoms: O_4  and  C_5 
REMARK    4  A    between atoms: C_8  and  C_9 
REMARK       I    between atoms: C_9  and  N_11 
REMARK    5  A    between atoms: N_11  and  N_12 
REMARK    6  A    between atoms: C_13  and  C_14 
REMARK    7  A    between atoms: C_17  and  O_18 
REMARK    8  A    between atoms: O_18  and  C_19 
REMARK    9  A    between atoms: C_19  and  C_21 
REMARK   10  A    between atoms: C_24  and  O_25 
REMARK   11  A    between atoms: O_25  and  C_26 
REMARK   12  A    between atoms: C_26  and  C_27 
REMARK   13  A    between atoms: C_27  and  C_28 
REMARK   14  A    between atoms: C_32  and  O_33 
ROOT
ATOM      1  C   UNL d   1      27.298 -15.938  -0.048  0.00  0.00    -0.014 A 
ATOM      2  C   UNL d   1      28.051 -15.523  -1.154  0.00  0.00     0.016 A 
ATOM      3  C   UNL d   1      27.473 -15.524  -2.448  0.00  0.00     0.041 A 
ATOM      4  C   UNL d   1      26.147 -15.960  -2.627  0.00  0.00     0.112 A 
ATOM      5  C   UNL d   1      25.395 -16.310  -1.494  0.00  0.00     0.102 A 
ATOM      6  C   UNL d   1      25.984 -16.348  -0.231  0.00  0.00     0.052 A 
ENDROOT
BRANCH   1   7
ATOM      7  C   UNL d   1      27.780 -15.839   1.356  0.00  0.00     0.150 C 
ATOM      8  N   UNL d   1      27.988 -14.681   1.905  0.00  0.00    -0.183 NA
BRANCH   8   9
ATOM      9  N   UNL d   1      28.474 -14.649   3.193  0.00  0.00    -0.243 N 
ATOM     10  C   UNL d   1      27.992 -13.679   4.084  0.00  0.00     0.271 C 
ATOM     11  O   UNL d   1      27.141 -12.843   3.783  0.00  0.00    -0.266 OA
ATOM     12  H   UNL d   1      29.186 -15.317   3.451  0.00  0.00     0.192 HD
BRANCH  10  13
ATOM     13  C   UNL d   1      28.569 -13.634   5.480  0.00  0.00     0.033 A 
ATOM     14  C   UNL d   1      27.857 -12.959   6.489  0.00  0.00     0.020 A 
ATOM     15  C   UNL d   1      28.401 -12.779   7.775  0.00  0.00     0.038 A 
ATOM     16  C   UNL d   1      29.638 -13.333   8.104  0.00  0.00     0.069 A 
ATOM     17  C   UNL d   1      30.328 -14.050   7.127  0.00  0.00     0.038 A 
ATOM     18  C   UNL d   1      29.802 -14.198   5.828  0.00  0.00     0.020 A 
BRANCH  16  19
ATOM     19  O   UNL d   1      30.029 -13.216   9.415  0.00  0.00    -0.348 OA
BRANCH  19  20
ATOM     20  C   UNL d   1      29.612 -14.267  10.292  0.00  0.00     0.202 C 
BRANCH  20  21
ATOM     21  C   UNL d   1      28.378 -13.836  11.037  0.00  0.00    -0.011 C 
ATOM     22  C   UNL d   1      27.862 -12.602  10.937  0.00  0.00     0.009 C 
ENDBRANCH  20  21
ENDBRANCH  19  20
ENDBRANCH  16  19
ENDBRANCH  10  13
ENDBRANCH   8   9
ENDBRANCH   1   7
BRANCH   5  23
ATOM     23  O   UNL d   1      24.059 -16.449  -1.643  0.00  0.00    -0.353 OA
ATOM     24  C   UNL d   1      23.413 -17.653  -1.293  0.00  0.00     0.210 C 
ENDBRANCH   5  23
BRANCH   4  25
ATOM     25  O   UNL d   1      25.624 -16.000  -3.979  0.00  0.00    -0.272 OA
BRANCH  25  26
ATOM     26  C   UNL d   1      26.080 -15.226  -5.054  0.00  0.00     0.298 C 
ATOM     27  O   UNL d   1      26.524 -15.572  -6.150  0.00  0.00    -0.259 OA
BRANCH  26  28
ATOM     28  C   UNL d   1      26.125 -13.779  -4.860  0.00  0.00     0.040 A 
ATOM     29  C   UNL d   1      27.331 -13.138  -5.203  0.00  0.00     0.020 A 
ATOM     30  C   UNL d   1      27.640 -11.888  -4.672  0.00  0.00     0.038 A 
ATOM     31  C   UNL d   1      26.714 -11.236  -3.859  0.00  0.00     0.068 A 
ATOM     32  C   UNL d   1      25.525 -11.889  -3.503  0.00  0.00     0.038 A 
ATOM     33  C   UNL d   1      25.230 -13.167  -3.991  0.00  0.00     0.020 A 
BRANCH  31  34
ATOM     34  O   UNL d   1      27.068  -9.969  -3.473  0.00  0.00    -0.351 OA
BRANCH  34  35
ATOM     35  C   UNL d   1      27.962  -9.896  -2.361  0.00  0.00     0.175 C 
BRANCH  35  36
ATOM     36  C   UNL d   1      27.184 -10.108  -1.070  0.00  0.00     0.026 C 
BRANCH  36  37
ATOM     37  C   UNL d   1      27.922 -11.075  -0.147  0.00  0.00    -0.002 C 
ATOM     38  C   UNL d   1      27.118 -12.345   0.068  0.00  0.00     0.005 C 
ENDBRANCH  36  37
ENDBRANCH  35  36
ENDBRANCH  34  35
ENDBRANCH  31  34
ENDBRANCH  26  28
ENDBRANCH  25  26
ENDBRANCH   4  25
TORSDOF 14
ENDMDL
