MODEL 1
REMARK VINA RESULT:    -9.136      0.000      0.000
REMARK INTER + INTRA:         -14.732
REMARK INTER:                 -12.417
REMARK INTRA:                  -2.315
REMARK CONF_INDEPENDENT:        3.281
REMARK UNBOUND:                -2.315
REMARK  11 active torsions:
REMARK  status: ('A' for Active; 'I' for Inactive)
REMARK    1  A    between atoms: C_5  and  C_6 
REMARK    2  A    between atoms: C_6  and  C_8 
REMARK    3  A    between atoms: C_8  and  O_9 
REMARK    4  A    between atoms: O_9  and  C_10 
REMARK    5  A    between atoms: C_10  and  C_12 
REMARK    6  A    between atoms: C_12  and  C_13 
REMARK    7  A    between atoms: C_13  and  C_14 
REMARK       I    between atoms: C_14  and  N_16 
REMARK    8  A    between atoms: N_16  and  C_17 
REMARK    9  A    between atoms: C_20  and  S_21 
REMARK   10  A    between atoms: S_21  and  C_22 
REMARK   11  A    between atoms: C_32  and  N_33 
ROOT
ATOM      1  C   UNL d   1      30.148 -14.066   7.135  0.00  0.00     0.113 C 
ENDROOT
BRANCH   1   2
ATOM      2  C   UNL d   1      29.081 -13.522   8.111  0.00  0.00     0.120 C 
BRANCH   2   3
ATOM      3  C   UNL d   1      28.232 -12.436   7.486  0.00  0.00     0.259 C 
ATOM      4  O   UNL d   1      27.415 -12.632   6.587  0.00  0.00    -0.265 OA
BRANCH   3   5
ATOM      5  O   UNL d   1      28.478 -11.213   8.034  0.00  0.00    -0.314 OA
BRANCH   5   6
ATOM      6  C   UNL d   1      29.708 -10.591   7.614  0.00  0.00     0.262 C 
BRANCH   6   7
ATOM      7  C   UNL d   1      29.475  -9.467   6.591  0.00  0.00     0.183 C 
ATOM      8  O   UNL d   1      29.802  -8.301   6.812  0.00  0.00    -0.290 OA
BRANCH   7   9
ATOM      9  C   UNL d   1      28.830  -9.789   5.265  0.00  0.00     0.014 A 
ATOM     10  C   UNL d   1      29.187 -10.979   4.613  0.00  0.00     0.016 A 
ATOM     11  C   UNL d   1      28.602 -11.336   3.389  0.00  0.00     0.010 A 
ATOM     12  C   UNL d   1      27.640 -10.516   2.775  0.00  0.00    -0.029 A 
ATOM     13  C   UNL d   1      27.037 -10.972   1.473  0.00  0.00     0.050 C 
ATOM     14  C   UNL d   1      27.285  -9.314   3.425  0.00  0.00     0.109 A 
ATOM     15  C   UNL d   1      27.881  -8.956   4.660  0.00  0.00     0.051 A 
BRANCH  14  16
ATOM     16  N   UNL d   1      26.279  -8.378   2.862  0.00  0.00    -0.115 N 
ATOM     17  O   UNL d   1      26.363  -7.189   3.196  0.00  0.00    -0.532 OA
ATOM     18  O   UNL d   1      25.410  -8.812   2.096  0.00  0.00    -0.532 OA
ENDBRANCH  14  16
ENDBRANCH   7   9
ENDBRANCH   6   7
ENDBRANCH   5   6
ENDBRANCH   3   5
ENDBRANCH   2   3
ENDBRANCH   1   2
BRANCH   1  19
ATOM     19  C   UNL d   1      29.513 -14.495   5.820  0.00  0.00     0.222 C 
ATOM     20  O   UNL d   1      28.470 -15.148   5.819  0.00  0.00    -0.273 OA
ATOM     21  N   UNL d   1      30.203 -14.132   4.665  0.00  0.00    -0.327 N 
ATOM     22  H   UNL d   1      31.150 -13.780   4.731  0.00  0.00     0.169 HD
BRANCH  21  23
ATOM     23  C   UNL d   1      29.693 -14.400   3.368  0.00  0.00     0.034 A 
ATOM     24  C   UNL d   1      30.539 -14.596   2.273  0.00  0.00     0.031 A 
ATOM     25  C   UNL d   1      29.993 -14.836   0.994  0.00  0.00     0.021 A 
ATOM     26  C   UNL d   1      28.603 -14.928   0.799  0.00  0.00     0.005 A 
ATOM     27  C   UNL d   1      27.778 -14.699   1.895  0.00  0.00     0.021 A 
ATOM     28  C   UNL d   1      28.315 -14.436   3.156  0.00  0.00     0.031 A 
BRANCH  26  29
ATOM     29  S   UNL d   1      28.003 -15.426  -0.806  0.00  0.00    -0.091 SA
BRANCH  29  30
ATOM     30  C   UNL d   1      26.435 -16.255  -0.575  0.00  0.00     0.005 A 
ATOM     31  C   UNL d   1      26.374 -17.402   0.231  0.00  0.00     0.020 A 
ATOM     32  C   UNL d   1      25.233 -18.216   0.226  0.00  0.00     0.025 A 
ATOM     33  C   UNL d   1      24.112 -17.832  -0.506  0.00  0.00     0.034 A 
ATOM     34 CL   UNL d   1      22.682 -18.787  -0.451  0.00  0.00    -0.084 Cl
ATOM     35  C   UNL d   1      24.140 -16.669  -1.272  0.00  0.00     0.025 A 
ATOM     36  C   UNL d   1      25.306 -15.899  -1.323  0.00  0.00     0.020 A 
ENDBRANCH  29  30
ENDBRANCH  26  29
ENDBRANCH  21  23
ENDBRANCH   1  19
TORSDOF 11
ENDMDL
MODEL 2
REMARK VINA RESULT:    -9.074      0.960      1.806
REMARK INTER + INTRA:         -14.906
REMARK INTER:                 -12.355
REMARK INTRA:                  -2.550
REMARK CONF_INDEPENDENT:        3.281
REMARK UNBOUND:                -2.550
REMARK  11 active torsions:
REMARK  status: ('A' for Active; 'I' for Inactive)
REMARK    1  A    between atoms: C_5  and  C_6 
REMARK    2  A    between atoms: C_6  and  C_8 
REMARK    3  A    between atoms: C_8  and  O_9 
REMARK    4  A    between atoms: O_9  and  C_10 
REMARK    5  A    between atoms: C_10  and  C_12 
REMARK    6  A    between atoms: C_12  and  C_13 
REMARK    7  A    between atoms: C_13  and  C_14 
REMARK       I    between atoms: C_14  and  N_16 
REMARK    8  A    between atoms: N_16  and  C_17 
REMARK    9  A    between atoms: C_20  and  S_21 
REMARK   10  A    between atoms: S_21  and  C_22 
REMARK   11  A    between atoms: C_32  and  N_33 
ROOT
ATOM      1  C   UNL d   1      30.250 -14.135   7.276  0.00  0.00     0.113 C 
ENDROOT
BRANCH   1   2
ATOM      2  C   UNL d   1      29.258 -13.840   8.424  0.00  0.00     0.120 C 
BRANCH   2   3
ATOM      3  C   UNL d   1      28.960 -12.363   8.560  0.00  0.00     0.259 C 
ATOM      4  O   UNL d   1      28.119 -11.897   9.328  0.00  0.00    -0.265 OA
BRANCH   3   5
ATOM      5  O   UNL d   1      29.733 -11.606   7.731  0.00  0.00    -0.314 OA
BRANCH   5   6
ATOM      6  C   UNL d   1      29.016 -10.627   6.952  0.00  0.00     0.262 C 
BRANCH   6   7
ATOM      7  C   UNL d   1      28.100 -11.273   5.900  0.00  0.00     0.183 C 
ATOM      8  O   UNL d   1      27.401 -12.255   6.153  0.00  0.00    -0.290 OA
BRANCH   7   9
ATOM      9  C   UNL d   1      28.039 -10.694   4.509  0.00  0.00     0.014 A 
ATOM     10  C   UNL d   1      29.009 -11.083   3.573  0.00  0.00     0.016 A 
ATOM     11  C   UNL d   1      28.986 -10.590   2.259  0.00  0.00     0.010 A 
ATOM     12  C   UNL d   1      27.993  -9.692   1.836  0.00  0.00    -0.029 A 
ATOM     13  C   UNL d   1      28.016  -9.220   0.406  0.00  0.00     0.050 C 
ATOM     14  C   UNL d   1      27.020  -9.291   2.778  0.00  0.00     0.109 A 
ATOM     15  C   UNL d   1      27.048  -9.790   4.105  0.00  0.00     0.051 A 
BRANCH  14  16
ATOM     16  N   UNL d   1      25.927  -8.347   2.433  0.00  0.00    -0.115 N 
ATOM     17  O   UNL d   1      25.005  -8.781   1.729  0.00  0.00    -0.532 OA
ATOM     18  O   UNL d   1      25.977  -7.184   2.851  0.00  0.00    -0.532 OA
ENDBRANCH  14  16
ENDBRANCH   7   9
ENDBRANCH   6   7
ENDBRANCH   5   6
ENDBRANCH   3   5
ENDBRANCH   2   3
ENDBRANCH   1   2
BRANCH   1  19
ATOM     19  C   UNL d   1      29.508 -14.423   5.979  0.00  0.00     0.222 C 
ATOM     20  O   UNL d   1      28.405 -14.967   6.003  0.00  0.00    -0.273 OA
ATOM     21  N   UNL d   1      30.172 -14.067   4.806  0.00  0.00    -0.327 N 
ATOM     22  H   UNL d   1      31.153 -13.817   4.837  0.00  0.00     0.169 HD
BRANCH  21  23
ATOM     23  C   UNL d   1      29.573 -14.210   3.529  0.00  0.00     0.034 A 
ATOM     24  C   UNL d   1      28.187 -14.171   3.360  0.00  0.00     0.031 A 
ATOM     25  C   UNL d   1      27.626 -14.342   2.076  0.00  0.00     0.021 A 
ATOM     26  C   UNL d   1      28.441 -14.510   0.941  0.00  0.00     0.005 A 
ATOM     27  C   UNL d   1      29.816 -14.577   1.134  0.00  0.00     0.021 A 
ATOM     28  C   UNL d   1      30.371 -14.434   2.407  0.00  0.00     0.031 A 
BRANCH  26  29
ATOM     29  S   UNL d   1      27.664 -14.523  -0.665  0.00  0.00    -0.091 SA
BRANCH  29  30
ATOM     30  C   UNL d   1      26.485 -15.868  -0.696  0.00  0.00     0.005 A 
ATOM     31  C   UNL d   1      25.287 -15.717  -1.411  0.00  0.00     0.020 A 
ATOM     32  C   UNL d   1      24.240 -16.634  -1.246  0.00  0.00     0.025 A 
ATOM     33  C   UNL d   1      24.423 -17.759  -0.445  0.00  0.00     0.034 A 
ATOM     34 CL   UNL d   1      23.169 -18.928  -0.304  0.00  0.00    -0.084 Cl
ATOM     35  C   UNL d   1      25.626 -17.948   0.232  0.00  0.00     0.025 A 
ATOM     36  C   UNL d   1      26.641 -16.992   0.124  0.00  0.00     0.020 A 
ENDBRANCH  29  30
ENDBRANCH  26  29
ENDBRANCH  21  23
ENDBRANCH   1  19
TORSDOF 11
ENDMDL
MODEL 3
REMARK VINA RESULT:    -8.787      4.290      7.717
REMARK INTER + INTRA:         -15.105
REMARK INTER:                 -12.068
REMARK INTRA:                  -3.037
REMARK CONF_INDEPENDENT:        3.281
REMARK UNBOUND:                -3.037
REMARK  11 active torsions:
REMARK  status: ('A' for Active; 'I' for Inactive)
REMARK    1  A    between atoms: C_5  and  C_6 
REMARK    2  A    between atoms: C_6  and  C_8 
REMARK    3  A    between atoms: C_8  and  O_9 
REMARK    4  A    between atoms: O_9  and  C_10 
REMARK    5  A    between atoms: C_10  and  C_12 
REMARK    6  A    between atoms: C_12  and  C_13 
REMARK    7  A    between atoms: C_13  and  C_14 
REMARK       I    between atoms: C_14  and  N_16 
REMARK    8  A    between atoms: N_16  and  C_17 
REMARK    9  A    between atoms: C_20  and  S_21 
REMARK   10  A    between atoms: S_21  and  C_22 
REMARK   11  A    between atoms: C_32  and  N_33 
ROOT
ATOM      1  C   UNL d   1      26.879 -10.835  -6.413  0.00  0.00     0.113 C 
ENDROOT
BRANCH   1   2
ATOM      2  C   UNL d   1      25.463 -10.223  -6.513  0.00  0.00     0.120 C 
BRANCH   2   3
ATOM      3  C   UNL d   1      25.231  -9.144  -5.477  0.00  0.00     0.259 C 
ATOM      4  O   UNL d   1      25.278  -7.938  -5.715  0.00  0.00    -0.265 OA
BRANCH   3   5
ATOM      5  O   UNL d   1      24.964  -9.665  -4.246  0.00  0.00    -0.314 OA
BRANCH   5   6
ATOM      6  C   UNL d   1      25.514  -8.927  -3.137  0.00  0.00     0.262 C 
BRANCH   6   7
ATOM      7  C   UNL d   1      26.750  -9.613  -2.533  0.00  0.00     0.183 C 
ATOM      8  O   UNL d   1      27.619 -10.134  -3.233  0.00  0.00    -0.290 OA
BRANCH   7   9
ATOM      9  C   UNL d   1      26.922  -9.652  -1.035  0.00  0.00     0.014 A 
ATOM     10  C   UNL d   1      27.595 -10.742  -0.462  0.00  0.00     0.016 A 
ATOM     11  C   UNL d   1      27.801 -10.818   0.924  0.00  0.00     0.010 A 
ATOM     12  C   UNL d   1      27.340  -9.807   1.784  0.00  0.00    -0.029 A 
ATOM     13  C   UNL d   1      27.615  -9.942   3.259  0.00  0.00     0.050 C 
ATOM     14  C   UNL d   1      26.655  -8.714   1.212  0.00  0.00     0.109 A 
ATOM     15  C   UNL d   1      26.447  -8.643  -0.189  0.00  0.00     0.051 A 
BRANCH  14  16
ATOM     16  N   UNL d   1      26.128  -7.593   2.032  0.00  0.00    -0.115 N 
ATOM     17  O   UNL d   1      26.702  -7.358   3.105  0.00  0.00    -0.532 OA
ATOM     18  O   UNL d   1      25.155  -6.949   1.624  0.00  0.00    -0.532 OA
ENDBRANCH  14  16
ENDBRANCH   7   9
ENDBRANCH   6   7
ENDBRANCH   5   6
ENDBRANCH   3   5
ENDBRANCH   2   3
ENDBRANCH   1   2
BRANCH   1  19
ATOM     19  C   UNL d   1      26.855 -12.130  -5.615  0.00  0.00     0.222 C 
ATOM     20  O   UNL d   1      27.333 -13.160  -6.089  0.00  0.00    -0.273 OA
ATOM     21  N   UNL d   1      26.238 -12.064  -4.367  0.00  0.00    -0.327 N 
ATOM     22  H   UNL d   1      25.685 -11.253  -4.119  0.00  0.00     0.169 HD
BRANCH  21  23
ATOM     23  C   UNL d   1      26.205 -13.174  -3.484  0.00  0.00     0.034 A 
ATOM     24  C   UNL d   1      25.307 -14.229  -3.663  0.00  0.00     0.031 A 
ATOM     25  C   UNL d   1      25.288 -15.303  -2.748  0.00  0.00     0.021 A 
ATOM     26  C   UNL d   1      26.192 -15.361  -1.672  0.00  0.00     0.005 A 
ATOM     27  C   UNL d   1      27.057 -14.287  -1.493  0.00  0.00     0.021 A 
ATOM     28  C   UNL d   1      27.059 -13.211  -2.382  0.00  0.00     0.031 A 
BRANCH  26  29
ATOM     29  S   UNL d   1      26.234 -16.843  -0.679  0.00  0.00    -0.091 SA
BRANCH  29  30
ATOM     30  C   UNL d   1      24.553 -17.425  -0.486  0.00  0.00     0.005 A 
ATOM     31  C   UNL d   1      24.294 -18.804  -0.520  0.00  0.00     0.020 A 
ATOM     32  C   UNL d   1      22.980 -19.278  -0.632  0.00  0.00     0.025 A 
ATOM     33  C   UNL d   1      21.915 -18.381  -0.609  0.00  0.00     0.034 A 
ATOM     34 CL   UNL d   1      20.298 -18.964  -0.666  0.00  0.00    -0.084 Cl
ATOM     35  C   UNL d   1      22.155 -17.011  -0.526  0.00  0.00     0.025 A 
ATOM     36  C   UNL d   1      23.470 -16.538  -0.489  0.00  0.00     0.020 A 
ENDBRANCH  29  30
ENDBRANCH  26  29
ENDBRANCH  21  23
ENDBRANCH   1  19
TORSDOF 11
ENDMDL
MODEL 4
REMARK VINA RESULT:    -8.782      4.829      7.636
REMARK INTER + INTRA:         -15.225
REMARK INTER:                 -12.064
REMARK INTRA:                  -3.161
REMARK CONF_INDEPENDENT:        3.281
REMARK UNBOUND:                -3.161
REMARK  11 active torsions:
REMARK  status: ('A' for Active; 'I' for Inactive)
REMARK    1  A    between atoms: C_5  and  C_6 
REMARK    2  A    between atoms: C_6  and  C_8 
REMARK    3  A    between atoms: C_8  and  O_9 
REMARK    4  A    between atoms: O_9  and  C_10 
REMARK    5  A    between atoms: C_10  and  C_12 
REMARK    6  A    between atoms: C_12  and  C_13 
REMARK    7  A    between atoms: C_13  and  C_14 
REMARK       I    between atoms: C_14  and  N_16 
REMARK    8  A    between atoms: N_16  and  C_17 
REMARK    9  A    between atoms: C_20  and  S_21 
REMARK   10  A    between atoms: S_21  and  C_22 
REMARK   11  A    between atoms: C_32  and  N_33 
ROOT
ATOM      1  C   UNL d   1      28.858 -14.200   1.795  0.00  0.00     0.113 C 
ENDROOT
BRANCH   1   2
ATOM      2  C   UNL d   1      29.959 -14.143   0.712  0.00  0.00     0.120 C 
BRANCH   2   3
ATOM      3  C   UNL d   1      30.506 -15.514   0.378  0.00  0.00     0.259 C 
ATOM      4  O   UNL d   1      31.541 -15.979   0.856  0.00  0.00    -0.265 OA
BRANCH   3   5
ATOM      5  O   UNL d   1      29.719 -16.176  -0.516  0.00  0.00    -0.314 OA
BRANCH   5   6
ATOM      6  C   UNL d   1      30.428 -16.829  -1.588  0.00  0.00     0.262 C 
BRANCH   6   7
ATOM      7  C   UNL d   1      29.904 -16.416  -2.973  0.00  0.00     0.183 C 
ATOM      8  O   UNL d   1      30.320 -16.928  -4.012  0.00  0.00    -0.290 OA
BRANCH   7   9
ATOM      9  C   UNL d   1      28.840 -15.350  -3.079  0.00  0.00     0.014 A 
ATOM     10  C   UNL d   1      29.104 -14.079  -2.547  0.00  0.00     0.016 A 
ATOM     11  C   UNL d   1      28.158 -13.046  -2.638  0.00  0.00     0.010 A 
ATOM     12  C   UNL d   1      26.917 -13.250  -3.263  0.00  0.00    -0.029 A 
ATOM     13  C   UNL d   1      25.958 -12.092  -3.344  0.00  0.00     0.050 C 
ATOM     14  C   UNL d   1      26.645 -14.530  -3.791  0.00  0.00     0.109 A 
ATOM     15  C   UNL d   1      27.603 -15.571  -3.695  0.00  0.00     0.051 A 
BRANCH  14  16
ATOM     16  N   UNL d   1      25.364 -14.850  -4.472  0.00  0.00    -0.115 N 
ATOM     17  O   UNL d   1      24.410 -14.086  -4.270  0.00  0.00    -0.532 OA
ATOM     18  O   UNL d   1      25.298 -15.847  -5.200  0.00  0.00    -0.532 OA
ENDBRANCH  14  16
ENDBRANCH   7   9
ENDBRANCH   6   7
ENDBRANCH   5   6
ENDBRANCH   3   5
ENDBRANCH   2   3
ENDBRANCH   1   2
BRANCH   1  19
ATOM     19  C   UNL d   1      27.556 -14.737   1.219  0.00  0.00     0.222 C 
ATOM     20  O   UNL d   1      26.564 -14.013   1.149  0.00  0.00    -0.273 OA
ATOM     21  N   UNL d   1      27.570 -16.074   0.827  0.00  0.00    -0.327 N 
ATOM     22  H   UNL d   1      28.342 -16.672   1.096  0.00  0.00     0.169 HD
BRANCH  21  23
ATOM     23  C   UNL d   1      26.452 -16.689   0.206  0.00  0.00     0.034 A 
ATOM     24  C   UNL d   1      25.738 -16.054  -0.813  0.00  0.00     0.031 A 
ATOM     25  C   UNL d   1      24.615 -16.687  -1.388  0.00  0.00     0.021 A 
ATOM     26  C   UNL d   1      24.219 -17.975  -0.987  0.00  0.00     0.005 A 
ATOM     27  C   UNL d   1      24.924 -18.577   0.050  0.00  0.00     0.021 A 
ATOM     28  C   UNL d   1      26.018 -17.942   0.638  0.00  0.00     0.031 A 
BRANCH  26  29
ATOM     29  S   UNL d   1      22.913 -18.783  -1.897  0.00  0.00    -0.091 SA
BRANCH  29  30
ATOM     30  C   UNL d   1      21.518 -18.986  -0.795  0.00  0.00     0.005 A 
ATOM     31  C   UNL d   1      21.720 -18.917   0.591  0.00  0.00     0.020 A 
ATOM     32  C   UNL d   1      20.713 -19.324   1.477  0.00  0.00     0.025 A 
ATOM     33  C   UNL d   1      19.468 -19.704   0.984  0.00  0.00     0.034 A 
ATOM     34 CL   UNL d   1      18.204 -20.127   2.072  0.00  0.00    -0.084 Cl
ATOM     35  C   UNL d   1      19.237 -19.730  -0.389  0.00  0.00     0.025 A 
ATOM     36  C   UNL d   1      20.267 -19.395  -1.273  0.00  0.00     0.020 A 
ENDBRANCH  29  30
ENDBRANCH  26  29
ENDBRANCH  21  23
ENDBRANCH   1  19
TORSDOF 11
ENDMDL
MODEL 5
REMARK VINA RESULT:    -8.434      5.263      8.205
REMARK INTER + INTRA:         -14.641
REMARK INTER:                 -11.715
REMARK INTRA:                  -2.926
REMARK CONF_INDEPENDENT:        3.281
REMARK UNBOUND:                -2.926
REMARK  11 active torsions:
REMARK  status: ('A' for Active; 'I' for Inactive)
REMARK    1  A    between atoms: C_5  and  C_6 
REMARK    2  A    between atoms: C_6  and  C_8 
REMARK    3  A    between atoms: C_8  and  O_9 
REMARK    4  A    between atoms: O_9  and  C_10 
REMARK    5  A    between atoms: C_10  and  C_12 
REMARK    6  A    between atoms: C_12  and  C_13 
REMARK    7  A    between atoms: C_13  and  C_14 
REMARK       I    between atoms: C_14  and  N_16 
REMARK    8  A    between atoms: N_16  and  C_17 
REMARK    9  A    between atoms: C_20  and  S_21 
REMARK   10  A    between atoms: S_21  and  C_22 
REMARK   11  A    between atoms: C_32  and  N_33 
ROOT
ATOM      1  C   UNL d   1      27.416 -11.455  -6.860  0.00  0.00     0.113 C 
ENDROOT
BRANCH   1   2
ATOM      2  C   UNL d   1      26.026 -10.822  -7.094  0.00  0.00     0.120 C 
BRANCH   2   3
ATOM      3  C   UNL d   1      25.831  -9.554  -6.291  0.00  0.00     0.259 C 
ATOM      4  O   UNL d   1      26.255  -8.450  -6.632  0.00  0.00    -0.265 OA
BRANCH   3   5
ATOM      5  O   UNL d   1      25.129  -9.776  -5.144  0.00  0.00    -0.314 OA
BRANCH   5   6
ATOM      6  C   UNL d   1      25.142  -8.687  -4.199  0.00  0.00     0.262 C 
BRANCH   6   7
ATOM      7  C   UNL d   1      25.817  -9.072  -2.873  0.00  0.00     0.183 C 
ATOM      8  O   UNL d   1      26.338 -10.174  -2.697  0.00  0.00    -0.290 OA
BRANCH   7   9
ATOM      9  C   UNL d   1      25.856  -8.075  -1.741  0.00  0.00     0.014 A 
ATOM     10  C   UNL d   1      25.857  -6.706  -2.048  0.00  0.00     0.016 A 
ATOM     11  C   UNL d   1      25.871  -5.737  -1.033  0.00  0.00     0.010 A 
ATOM     12  C   UNL d   1      25.885  -6.104   0.323  0.00  0.00    -0.029 A 
ATOM     13  C   UNL d   1      25.877  -5.012   1.360  0.00  0.00     0.050 C 
ATOM     14  C   UNL d   1      25.893  -7.480   0.635  0.00  0.00     0.109 A 
ATOM     15  C   UNL d   1      25.881  -8.456  -0.394  0.00  0.00     0.051 A 
BRANCH  14  16
ATOM     16  N   UNL d   1      25.906  -7.974   2.036  0.00  0.00    -0.115 N 
ATOM     17  O   UNL d   1      25.154  -8.919   2.310  0.00  0.00    -0.532 OA
ATOM     18  O   UNL d   1      26.652  -7.433   2.861  0.00  0.00    -0.532 OA
ENDBRANCH  14  16
ENDBRANCH   7   9
ENDBRANCH   6   7
ENDBRANCH   5   6
ENDBRANCH   3   5
ENDBRANCH   2   3
ENDBRANCH   1   2
BRANCH   1  19
ATOM     19  C   UNL d   1      27.323 -12.632  -5.901  0.00  0.00     0.222 C 
ATOM     20  O   UNL d   1      27.695 -13.751  -6.254  0.00  0.00    -0.273 OA
ATOM     21  N   UNL d   1      26.767 -12.357  -4.652  0.00  0.00    -0.327 N 
ATOM     22  H   UNL d   1      26.294 -11.477  -4.492  0.00  0.00     0.169 HD
BRANCH  21  23
ATOM     23  C   UNL d   1      26.684 -13.340  -3.633  0.00  0.00     0.034 A 
ATOM     24  C   UNL d   1      27.518 -13.308  -2.512  0.00  0.00     0.031 A 
ATOM     25  C   UNL d   1      27.422 -14.319  -1.532  0.00  0.00     0.021 A 
ATOM     26  C   UNL d   1      26.465 -15.345  -1.633  0.00  0.00     0.005 A 
ATOM     27  C   UNL d   1      25.665 -15.376  -2.770  0.00  0.00     0.021 A 
ATOM     28  C   UNL d   1      25.777 -14.393  -3.754  0.00  0.00     0.031 A 
BRANCH  26  29
ATOM     29  S   UNL d   1      26.278 -16.468  -0.259  0.00  0.00    -0.091 SA
BRANCH  29  30
ATOM     30  C   UNL d   1      24.623 -17.145  -0.323  0.00  0.00     0.005 A 
ATOM     31  C   UNL d   1      24.444 -18.534  -0.228  0.00  0.00     0.020 A 
ATOM     32  C   UNL d   1      23.204 -19.113  -0.531  0.00  0.00     0.025 A 
ATOM     33  C   UNL d   1      22.114 -18.300  -0.831  0.00  0.00     0.034 A 
ATOM     34 CL   UNL d   1      20.572 -19.003  -1.124  0.00  0.00    -0.084 Cl
ATOM     35  C   UNL d   1      22.265 -16.916  -0.880  0.00  0.00     0.025 A 
ATOM     36  C   UNL d   1      23.521 -16.346  -0.650  0.00  0.00     0.020 A 
ENDBRANCH  29  30
ENDBRANCH  26  29
ENDBRANCH  21  23
ENDBRANCH   1  19
TORSDOF 11
ENDMDL
MODEL 6
REMARK VINA RESULT:    -8.192      4.307      7.368
REMARK INTER + INTRA:         -14.899
REMARK INTER:                 -11.473
REMARK INTRA:                  -3.426
REMARK CONF_INDEPENDENT:        3.281
REMARK UNBOUND:                -3.426
REMARK  11 active torsions:
REMARK  status: ('A' for Active; 'I' for Inactive)
REMARK    1  A    between atoms: C_5  and  C_6 
REMARK    2  A    between atoms: C_6  and  C_8 
REMARK    3  A    between atoms: C_8  and  O_9 
REMARK    4  A    between atoms: O_9  and  C_10 
REMARK    5  A    between atoms: C_10  and  C_12 
REMARK    6  A    between atoms: C_12  and  C_13 
REMARK    7  A    between atoms: C_13  and  C_14 
REMARK       I    between atoms: C_14  and  N_16 
REMARK    8  A    between atoms: N_16  and  C_17 
REMARK    9  A    between atoms: C_20  and  S_21 
REMARK   10  A    between atoms: S_21  and  C_22 
REMARK   11  A    between atoms: C_32  and  N_33 
ROOT
ATOM      1  C   UNL d   1      28.411 -12.959  -6.797  0.00  0.00     0.113 C 
ENDROOT
BRANCH   1   2
ATOM      2  C   UNL d   1      27.548 -11.679  -6.877  0.00  0.00     0.120 C 
BRANCH   2   3
ATOM      3  C   UNL d   1      26.744 -11.450  -5.615  0.00  0.00     0.259 C 
ATOM      4  O   UNL d   1      25.560 -11.760  -5.487  0.00  0.00    -0.265 OA
BRANCH   3   5
ATOM      5  O   UNL d   1      27.484 -10.860  -4.635  0.00  0.00    -0.314 OA
BRANCH   5   6
ATOM      6  C   UNL d   1      26.963 -11.011  -3.300  0.00  0.00     0.262 C 
BRANCH   6   7
ATOM      7  C   UNL d   1      28.076 -11.176  -2.253  0.00  0.00     0.183 C 
ATOM      8  O   UNL d   1      29.234 -11.453  -2.564  0.00  0.00    -0.290 OA
BRANCH   7   9
ATOM      9  C   UNL d   1      27.754 -10.992  -0.790  0.00  0.00     0.014 A 
ATOM     10  C   UNL d   1      28.204 -11.956   0.126  0.00  0.00     0.016 A 
ATOM     11  C   UNL d   1      27.951 -11.822   1.500  0.00  0.00     0.010 A 
ATOM     12  C   UNL d   1      27.240 -10.720   2.005  0.00  0.00    -0.029 A 
ATOM     13  C   UNL d   1      27.024 -10.629   3.492  0.00  0.00     0.050 C 
ATOM     14  C   UNL d   1      26.779  -9.753   1.085  0.00  0.00     0.109 A 
ATOM     15  C   UNL d   1      27.035  -9.894  -0.302  0.00  0.00     0.051 A 
BRANCH  14  16
ATOM     16  N   UNL d   1      26.020  -8.552   1.515  0.00  0.00    -0.115 N 
ATOM     17  O   UNL d   1      26.232  -8.127   2.659  0.00  0.00    -0.532 OA
ATOM     18  O   UNL d   1      25.218  -8.030   0.731  0.00  0.00    -0.532 OA
ENDBRANCH  14  16
ENDBRANCH   7   9
ENDBRANCH   6   7
ENDBRANCH   5   6
ENDBRANCH   3   5
ENDBRANCH   2   3
ENDBRANCH   1   2
BRANCH   1  19
ATOM     19  C   UNL d   1      27.857 -13.924  -5.759  0.00  0.00     0.222 C 
ATOM     20  O   UNL d   1      27.196 -14.900  -6.110  0.00  0.00    -0.273 OA
ATOM     21  N   UNL d   1      28.118 -13.601  -4.428  0.00  0.00    -0.327 N 
ATOM     22  H   UNL d   1      28.483 -12.687  -4.192  0.00  0.00     0.169 HD
BRANCH  21  23
ATOM     23  C   UNL d   1      27.726 -14.446  -3.358  0.00  0.00     0.034 A 
ATOM     24  C   UNL d   1      28.665 -15.059  -2.525  0.00  0.00     0.031 A 
ATOM     25  C   UNL d   1      28.237 -15.913  -1.486  0.00  0.00     0.021 A 
ATOM     26  C   UNL d   1      26.869 -16.131  -1.239  0.00  0.00     0.005 A 
ATOM     27  C   UNL d   1      25.951 -15.537  -2.098  0.00  0.00     0.021 A 
ATOM     28  C   UNL d   1      26.374 -14.713  -3.142  0.00  0.00     0.031 A 
BRANCH  26  29
ATOM     29  S   UNL d   1      26.409 -17.066   0.210  0.00  0.00    -0.091 SA
BRANCH  29  30
ATOM     30  C   UNL d   1      24.709 -17.587   0.013  0.00  0.00     0.005 A 
ATOM     31  C   UNL d   1      24.421 -18.952  -0.145  0.00  0.00     0.020 A 
ATOM     32  C   UNL d   1      23.148 -19.367  -0.557  0.00  0.00     0.025 A 
ATOM     33  C   UNL d   1      22.130 -18.429  -0.714  0.00  0.00     0.034 A 
ATOM     34 CL   UNL d   1      20.545 -18.943  -1.142  0.00  0.00    -0.084 Cl
ATOM     35  C   UNL d   1      22.389 -17.075  -0.513  0.00  0.00     0.025 A 
ATOM     36  C   UNL d   1      23.679 -16.658  -0.175  0.00  0.00     0.020 A 
ENDBRANCH  29  30
ENDBRANCH  26  29
ENDBRANCH  21  23
ENDBRANCH   1  19
TORSDOF 11
ENDMDL
MODEL 7
REMARK VINA RESULT:    -7.857      2.064      3.016
REMARK INTER + INTRA:         -14.573
REMARK INTER:                 -11.139
REMARK INTRA:                  -3.434
REMARK CONF_INDEPENDENT:        3.281
REMARK UNBOUND:                -3.434
REMARK  11 active torsions:
REMARK  status: ('A' for Active; 'I' for Inactive)
REMARK    1  A    between atoms: C_5  and  C_6 
REMARK    2  A    between atoms: C_6  and  C_8 
REMARK    3  A    between atoms: C_8  and  O_9 
REMARK    4  A    between atoms: O_9  and  C_10 
REMARK    5  A    between atoms: C_10  and  C_12 
REMARK    6  A    between atoms: C_12  and  C_13 
REMARK    7  A    between atoms: C_13  and  C_14 
REMARK       I    between atoms: C_14  and  N_16 
REMARK    8  A    between atoms: N_16  and  C_17 
REMARK    9  A    between atoms: C_20  and  S_21 
REMARK   10  A    between atoms: S_21  and  C_22 
REMARK   11  A    between atoms: C_32  and  N_33 
ROOT
ATOM      1  C   UNL d   1      27.993 -12.424   6.199  0.00  0.00     0.113 C 
ENDROOT
BRANCH   1   2
ATOM      2  C   UNL d   1      28.987 -11.311   5.794  0.00  0.00     0.120 C 
BRANCH   2   3
ATOM      3  C   UNL d   1      28.342 -10.257   4.921  0.00  0.00     0.259 C 
ATOM      4  O   UNL d   1      27.129 -10.163   4.734  0.00  0.00    -0.265 OA
BRANCH   3   5
ATOM      5  O   UNL d   1      29.263  -9.421   4.363  0.00  0.00    -0.314 OA
BRANCH   5   6
ATOM      6  C   UNL d   1      30.245 -10.065   3.527  0.00  0.00     0.262 C 
BRANCH   6   7
ATOM      7  C   UNL d   1      29.605 -10.881   2.393  0.00  0.00     0.183 C 
ATOM      8  O   UNL d   1      29.841 -12.078   2.231  0.00  0.00    -0.290 OA
BRANCH   7   9
ATOM      9  C   UNL d   1      28.648 -10.207   1.440  0.00  0.00     0.014 A 
ATOM     10  C   UNL d   1      28.852 -10.359   0.060  0.00  0.00     0.016 A 
ATOM     11  C   UNL d   1      27.980  -9.772  -0.869  0.00  0.00     0.010 A 
ATOM     12  C   UNL d   1      26.875  -9.013  -0.451  0.00  0.00    -0.029 A 
ATOM     13  C   UNL d   1      25.968  -8.430  -1.502  0.00  0.00     0.050 C 
ATOM     14  C   UNL d   1      26.672  -8.851   0.937  0.00  0.00     0.109 A 
ATOM     15  C   UNL d   1      27.557  -9.444   1.872  0.00  0.00     0.051 A 
BRANCH  14  16
ATOM     16  N   UNL d   1      25.534  -8.069   1.484  0.00  0.00    -0.115 N 
ATOM     17  O   UNL d   1      24.419  -8.262   0.979  0.00  0.00    -0.532 OA
ATOM     18  O   UNL d   1      25.737  -7.268   2.404  0.00  0.00    -0.532 OA
ENDBRANCH  14  16
ENDBRANCH   7   9
ENDBRANCH   6   7
ENDBRANCH   5   6
ENDBRANCH   3   5
ENDBRANCH   2   3
ENDBRANCH   1   2
BRANCH   1  19
ATOM     19  C   UNL d   1      27.766 -13.394   5.050  0.00  0.00     0.222 C 
ATOM     20  O   UNL d   1      27.657 -14.600   5.268  0.00  0.00    -0.273 OA
ATOM     21  N   UNL d   1      27.731 -12.830   3.775  0.00  0.00    -0.327 N 
ATOM     22  H   UNL d   1      28.030 -11.872   3.638  0.00  0.00     0.169 HD
BRANCH  21  23
ATOM     23  C   UNL d   1      27.456 -13.602   2.618  0.00  0.00     0.034 A 
ATOM     24  C   UNL d   1      28.074 -14.835   2.394  0.00  0.00     0.031 A 
ATOM     25  C   UNL d   1      27.793 -15.562   1.217  0.00  0.00     0.021 A 
ATOM     26  C   UNL d   1      26.862 -15.092   0.274  0.00  0.00     0.005 A 
ATOM     27  C   UNL d   1      26.281 -13.849   0.500  0.00  0.00     0.021 A 
ATOM     28  C   UNL d   1      26.577 -13.116   1.650  0.00  0.00     0.031 A 
BRANCH  26  29
ATOM     29  S   UNL d   1      26.419 -16.160  -1.085  0.00  0.00    -0.091 SA
BRANCH  29  30
ATOM     30  C   UNL d   1      24.861 -16.943  -0.686  0.00  0.00     0.005 A 
ATOM     31  C   UNL d   1      24.854 -18.270  -0.232  0.00  0.00     0.020 A 
ATOM     32  C   UNL d   1      23.654 -18.990  -0.159  0.00  0.00     0.025 A 
ATOM     33  C   UNL d   1      22.446 -18.356  -0.441  0.00  0.00     0.034 A 
ATOM     34 CL   UNL d   1      20.964 -19.214  -0.275  0.00  0.00    -0.084 Cl
ATOM     35  C   UNL d   1      22.434 -17.024  -0.846  0.00  0.00     0.025 A 
ATOM     36  C   UNL d   1      23.639 -16.330  -0.989  0.00  0.00     0.020 A 
ENDBRANCH  29  30
ENDBRANCH  26  29
ENDBRANCH  21  23
ENDBRANCH   1  19
TORSDOF 11
ENDMDL
MODEL 8
REMARK VINA RESULT:    -7.759      2.012      3.160
REMARK INTER + INTRA:         -14.692
REMARK INTER:                 -11.041
REMARK INTRA:                  -3.651
REMARK CONF_INDEPENDENT:        3.281
REMARK UNBOUND:                -3.651
REMARK  11 active torsions:
REMARK  status: ('A' for Active; 'I' for Inactive)
REMARK    1  A    between atoms: C_5  and  C_6 
REMARK    2  A    between atoms: C_6  and  C_8 
REMARK    3  A    between atoms: C_8  and  O_9 
REMARK    4  A    between atoms: O_9  and  C_10 
REMARK    5  A    between atoms: C_10  and  C_12 
REMARK    6  A    between atoms: C_12  and  C_13 
REMARK    7  A    between atoms: C_13  and  C_14 
REMARK       I    between atoms: C_14  and  N_16 
REMARK    8  A    between atoms: N_16  and  C_17 
REMARK    9  A    between atoms: C_20  and  S_21 
REMARK   10  A    between atoms: S_21  and  C_22 
REMARK   11  A    between atoms: C_32  and  N_33 
ROOT
ATOM      1  C   UNL d   1      31.593 -13.583   2.934  0.00  0.00     0.113 C 
ENDROOT
BRANCH   1   2
ATOM      2  C   UNL d   1      30.883 -12.633   3.925  0.00  0.00     0.120 C 
BRANCH   2   3
ATOM      3  C   UNL d   1      30.031 -13.381   4.927  0.00  0.00     0.259 C 
ATOM      4  O   UNL d   1      29.880 -14.603   4.927  0.00  0.00    -0.265 OA
BRANCH   3   5
ATOM      5  O   UNL d   1      29.448 -12.545   5.830  0.00  0.00    -0.314 OA
BRANCH   5   6
ATOM      6  C   UNL d   1      28.148 -12.048   5.454  0.00  0.00     0.262 C 
BRANCH   6   7
ATOM      7  C   UNL d   1      27.721 -12.528   4.057  0.00  0.00     0.183 C 
ATOM      8  O   UNL d   1      27.454 -13.706   3.820  0.00  0.00    -0.290 OA
BRANCH   7   9
ATOM      9  C   UNL d   1      27.616 -11.532   2.928  0.00  0.00     0.014 A 
ATOM     10  C   UNL d   1      28.364 -11.754   1.761  0.00  0.00     0.016 A 
ATOM     11  C   UNL d   1      28.286 -10.871   0.674  0.00  0.00     0.010 A 
ATOM     12  C   UNL d   1      27.459  -9.736   0.715  0.00  0.00    -0.029 A 
ATOM     13  C   UNL d   1      27.408  -8.843  -0.496  0.00  0.00     0.050 C 
ATOM     14  C   UNL d   1      26.712  -9.505   1.890  0.00  0.00     0.109 A 
ATOM     15  C   UNL d   1      26.795 -10.399   2.988  0.00  0.00     0.051 A 
BRANCH  14  16
ATOM     16  N   UNL d   1      25.808  -8.337   2.036  0.00  0.00    -0.115 N 
ATOM     17  O   UNL d   1      26.135  -7.466   2.854  0.00  0.00    -0.532 OA
ATOM     18  O   UNL d   1      24.781  -8.277   1.351  0.00  0.00    -0.532 OA
ENDBRANCH  14  16
ENDBRANCH   7   9
ENDBRANCH   6   7
ENDBRANCH   5   6
ENDBRANCH   3   5
ENDBRANCH   2   3
ENDBRANCH   1   2
BRANCH   1  19
ATOM     19  C   UNL d   1      30.698 -13.895   1.745  0.00  0.00     0.222 C 
ATOM     20  O   UNL d   1      31.010 -13.517   0.616  0.00  0.00    -0.273 OA
ATOM     21  N   UNL d   1      29.522 -14.586   2.033  0.00  0.00    -0.327 N 
ATOM     22  H   UNL d   1      29.219 -14.688   2.994  0.00  0.00     0.169 HD
BRANCH  21  23
ATOM     23  C   UNL d   1      28.628 -15.007   1.016  0.00  0.00     0.034 A 
ATOM     24  C   UNL d   1      29.056 -15.792  -0.058  0.00  0.00     0.031 A 
ATOM     25  C   UNL d   1      28.141 -16.170  -1.064  0.00  0.00     0.021 A 
ATOM     26  C   UNL d   1      26.783 -15.810  -0.989  0.00  0.00     0.005 A 
ATOM     27  C   UNL d   1      26.384 -15.004   0.072  0.00  0.00     0.021 A 
ATOM     28  C   UNL d   1      27.292 -14.607   1.053  0.00  0.00     0.031 A 
BRANCH  26  29
ATOM     29  S   UNL d   1      25.657 -16.492  -2.194  0.00  0.00    -0.091 SA
BRANCH  29  30
ATOM     30  C   UNL d   1      24.292 -17.239  -1.313  0.00  0.00     0.005 A 
ATOM     31  C   UNL d   1      24.393 -18.572  -0.888  0.00  0.00     0.020 A 
ATOM     32  C   UNL d   1      23.262 -19.261  -0.432  0.00  0.00     0.025 A 
ATOM     33  C   UNL d   1      22.048 -18.591  -0.302  0.00  0.00     0.034 A 
ATOM     34 CL   UNL d   1      20.676 -19.412   0.334  0.00  0.00    -0.084 Cl
ATOM     35  C   UNL d   1      21.944 -17.253  -0.673  0.00  0.00     0.025 A 
ATOM     36  C   UNL d   1      23.057 -16.589  -1.198  0.00  0.00     0.020 A 
ENDBRANCH  29  30
ENDBRANCH  26  29
ENDBRANCH  21  23
ENDBRANCH   1  19
TORSDOF 11
ENDMDL
MODEL 9
REMARK VINA RESULT:    -7.746      7.463     10.393
REMARK INTER + INTRA:         -14.954
REMARK INTER:                 -11.028
REMARK INTRA:                  -3.926
REMARK CONF_INDEPENDENT:        3.281
REMARK UNBOUND:                -3.926
REMARK  11 active torsions:
REMARK  status: ('A' for Active; 'I' for Inactive)
REMARK    1  A    between atoms: C_5  and  C_6 
REMARK    2  A    between atoms: C_6  and  C_8 
REMARK    3  A    between atoms: C_8  and  O_9 
REMARK    4  A    between atoms: O_9  and  C_10 
REMARK    5  A    between atoms: C_10  and  C_12 
REMARK    6  A    between atoms: C_12  and  C_13 
REMARK    7  A    between atoms: C_13  and  C_14 
REMARK       I    between atoms: C_14  and  N_16 
REMARK    8  A    between atoms: N_16  and  C_17 
REMARK    9  A    between atoms: C_20  and  S_21 
REMARK   10  A    between atoms: S_21  and  C_22 
REMARK   11  A    between atoms: C_32  and  N_33 
ROOT
ATOM      1  C   UNL d   1      25.953 -10.757  -6.642  0.00  0.00     0.113 C 
ENDROOT
BRANCH   1   2
ATOM      2  C   UNL d   1      27.407 -10.457  -7.071  0.00  0.00     0.120 C 
BRANCH   2   3
ATOM      3  C   UNL d   1      28.409 -11.343  -6.362  0.00  0.00     0.259 C 
ATOM      4  O   UNL d   1      29.030 -11.011  -5.353  0.00  0.00    -0.265 OA
BRANCH   3   5
ATOM      5  O   UNL d   1      28.543 -12.554  -6.972  0.00  0.00    -0.314 OA
BRANCH   5   6
ATOM      6  C   UNL d   1      29.396 -13.492  -6.287  0.00  0.00     0.262 C 
BRANCH   6   7
ATOM      7  C   UNL d   1      28.687 -14.824  -5.997  0.00  0.00     0.183 C 
ATOM      8  O   UNL d   1      27.613 -15.123  -6.520  0.00  0.00    -0.290 OA
BRANCH   7   9
ATOM      9  C   UNL d   1      29.318 -15.813  -5.048  0.00  0.00     0.014 A 
ATOM     10  C   UNL d   1      29.380 -15.491  -3.683  0.00  0.00     0.016 A 
ATOM     11  C   UNL d   1      29.936 -16.383  -2.754  0.00  0.00     0.010 A 
ATOM     12  C   UNL d   1      30.450 -17.627  -3.157  0.00  0.00    -0.029 A 
ATOM     13  C   UNL d   1      31.013 -18.544  -2.104  0.00  0.00     0.050 C 
ATOM     14  C   UNL d   1      30.398 -17.950  -4.531  0.00  0.00     0.109 A 
ATOM     15  C   UNL d   1      29.836 -17.044  -5.466  0.00  0.00     0.051 A 
BRANCH  14  16
ATOM     16  N   UNL d   1      30.912 -19.238  -5.061  0.00  0.00    -0.115 N 
ATOM     17  O   UNL d   1      31.833 -19.182  -5.887  0.00  0.00    -0.532 OA
ATOM     18  O   UNL d   1      30.412 -20.298  -4.667  0.00  0.00    -0.532 OA
ENDBRANCH  14  16
ENDBRANCH   7   9
ENDBRANCH   6   7
ENDBRANCH   5   6
ENDBRANCH   3   5
ENDBRANCH   2   3
ENDBRANCH   1   2
BRANCH   1  19
ATOM     19  C   UNL d   1      25.921 -11.500  -5.315  0.00  0.00     0.222 C 
ATOM     20  O   UNL d   1      25.636 -10.904  -4.277  0.00  0.00    -0.273 OA
ATOM     21  N   UNL d   1      26.263 -12.850  -5.365  0.00  0.00    -0.327 N 
ATOM     22  H   UNL d   1      26.684 -13.234  -6.202  0.00  0.00     0.169 HD
BRANCH  21  23
ATOM     23  C   UNL d   1      26.206 -13.684  -4.219  0.00  0.00     0.034 A 
ATOM     24  C   UNL d   1      25.590 -14.938  -4.254  0.00  0.00     0.031 A 
ATOM     25  C   UNL d   1      25.532 -15.728  -3.086  0.00  0.00     0.021 A 
ATOM     26  C   UNL d   1      26.125 -15.299  -1.884  0.00  0.00     0.005 A 
ATOM     27  C   UNL d   1      26.706 -14.035  -1.863  0.00  0.00     0.021 A 
ATOM     28  C   UNL d   1      26.741 -13.242  -3.010  0.00  0.00     0.031 A 
BRANCH  26  29
ATOM     29  S   UNL d   1      26.178 -16.438  -0.511  0.00  0.00    -0.091 SA
BRANCH  29  30
ATOM     30  C   UNL d   1      24.578 -17.228  -0.389  0.00  0.00     0.005 A 
ATOM     31  C   UNL d   1      24.503 -18.629  -0.358  0.00  0.00     0.020 A 
ATOM     32  C   UNL d   1      23.272 -19.279  -0.523  0.00  0.00     0.025 A 
ATOM     33  C   UNL d   1      22.101 -18.532  -0.618  0.00  0.00     0.034 A 
ATOM     34 CL   UNL d   1      20.580 -19.327  -0.739  0.00  0.00    -0.084 Cl
ATOM     35  C   UNL d   1      22.155 -17.140  -0.600  0.00  0.00     0.025 A 
ATOM     36  C   UNL d   1      23.392 -16.495  -0.510  0.00  0.00     0.020 A 
ENDBRANCH  29  30
ENDBRANCH  26  29
ENDBRANCH  21  23
ENDBRANCH   1  19
TORSDOF 11
ENDMDL
