MODEL 1
REMARK VINA RESULT:    -7.500      0.000      0.000
REMARK INTER + INTRA:          -9.185
REMARK INTER:                  -8.395
REMARK INTRA:                  -0.790
REMARK CONF_INDEPENDENT:        0.895
REMARK UNBOUND:                -0.790
REMARK  3 active torsions:
REMARK  status: ('A' for Active; 'I' for Inactive)
REMARK       I    between atoms: C_2  and  N_4 
REMARK    1  A    between atoms: N_4  and  C_5 
REMARK    2  A    between atoms: C_7  and  C_8 
REMARK       I    between atoms: C_8  and  N_10 
REMARK    3  A    between atoms: N_10  and  C_11 
ROOT
ATOM      1  C   UNL d   1      23.764 -17.163  -0.587  0.00  0.00     0.074 A 
ATOM      2  C   UNL d   1      23.897 -16.248  -1.647  0.00  0.00     0.050 A 
ATOM      3  C   UNL d   1      25.170 -15.714  -1.997  0.00  0.00     0.034 A 
ATOM      4  C   UNL d   1      26.303 -16.149  -1.299  0.00  0.00     0.020 A 
ATOM      5  C   UNL d   1      26.177 -17.100  -0.288  0.00  0.00     0.046 A 
ATOM      6  C   UNL d   1      24.926 -17.593   0.062  0.00  0.00     0.143 A 
ATOM      7  F   UNL d   1      24.877 -18.573   0.978  0.00  0.00    -0.204 F 
ENDROOT
BRANCH   3   8
ATOM      8  C   UNL d   1      25.255 -14.694  -3.096  0.00  0.00     0.256 C 
ATOM      9  O   UNL d   1      24.222 -14.450  -3.725  0.00  0.00    -0.267 OA
ATOM     10  N   UNL d   1      26.493 -14.130  -3.414  0.00  0.00    -0.320 N 
ATOM     11  H   UNL d   1      27.344 -14.587  -3.116  0.00  0.00     0.169 HD
BRANCH  10  12
ATOM     12  C   UNL d   1      26.626 -13.159  -4.448  0.00  0.00     0.075 A 
ATOM     13  C   UNL d   1      25.910 -11.958  -4.350  0.00  0.00     0.034 A 
ATOM     14  C   UNL d   1      26.087 -10.964  -5.318  0.00  0.00     0.022 A 
ATOM     15  C   UNL d   1      26.929 -11.222  -6.387  0.00  0.00     0.118 A 
ATOM     16  N   UNL d   1      27.582 -12.386  -6.557  0.00  0.00    -0.246 NA
ATOM     17  C   UNL d   1      27.431 -13.321  -5.585  0.00  0.00     0.152 A 
ATOM     18 CL   UNL d   1      28.140 -14.829  -6.038  0.00  0.00    -0.060 Cl
ENDBRANCH  10  12
ENDBRANCH   3   8
BRANCH   1  19
ATOM     19  N   UNL d   1      22.488 -17.652  -0.183  0.00  0.00    -0.325 N 
ATOM     20  C   UNL d   1      21.854 -18.670  -0.892  0.00  0.00     0.218 C 
ATOM     21  C   UNL d   1      20.497 -19.075  -0.374  0.00  0.00     0.117 C 
ATOM     22  O   UNL d   1      22.349 -19.277  -1.840  0.00  0.00    -0.274 OA
ATOM     23  H   UNL d   1      22.156 -17.430   0.747  0.00  0.00     0.169 HD
ENDBRANCH   1  19
TORSDOF 3
ENDMDL
MODEL 2
REMARK VINA RESULT:    -7.424      1.249      1.663
REMARK INTER + INTRA:          -9.055
REMARK INTER:                  -8.319
REMARK INTRA:                  -0.737
REMARK CONF_INDEPENDENT:        0.895
REMARK UNBOUND:                -0.737
REMARK  3 active torsions:
REMARK  status: ('A' for Active; 'I' for Inactive)
REMARK       I    between atoms: C_2  and  N_4 
REMARK    1  A    between atoms: N_4  and  C_5 
REMARK    2  A    between atoms: C_7  and  C_8 
REMARK       I    between atoms: C_8  and  N_10 
REMARK    3  A    between atoms: N_10  and  C_11 
ROOT
ATOM      1  C   UNL d   1      23.919 -17.306  -0.567  0.00  0.00     0.074 A 
ATOM      2  C   UNL d   1      24.199 -16.528  -1.704  0.00  0.00     0.050 A 
ATOM      3  C   UNL d   1      25.527 -16.097  -1.988  0.00  0.00     0.034 A 
ATOM      4  C   UNL d   1      26.567 -16.500  -1.142  0.00  0.00     0.020 A 
ATOM      5  C   UNL d   1      26.296 -17.321  -0.047  0.00  0.00     0.046 A 
ATOM      6  C   UNL d   1      24.993 -17.712   0.234  0.00  0.00     0.143 A 
ATOM      7  F   UNL d   1      24.806 -18.574   1.244  0.00  0.00    -0.204 F 
ENDROOT
BRANCH   3   8
ATOM      8  C   UNL d   1      25.769 -15.217  -3.181  0.00  0.00     0.256 C 
ATOM      9  O   UNL d   1      24.780 -14.823  -3.806  0.00  0.00    -0.267 OA
ATOM     10  N   UNL d   1      27.080 -14.948  -3.580  0.00  0.00    -0.320 N 
ATOM     11  H   UNL d   1      27.833 -15.541  -3.261  0.00  0.00     0.169 HD
BRANCH  10  12
ATOM     12  C   UNL d   1      27.361 -14.119  -4.704  0.00  0.00     0.075 A 
ATOM     13  C   UNL d   1      28.260 -14.577  -5.678  0.00  0.00     0.034 A 
ATOM     14  C   UNL d   1      28.490 -13.809  -6.825  0.00  0.00     0.022 A 
ATOM     15  C   UNL d   1      27.862 -12.580  -6.937  0.00  0.00     0.118 A 
ATOM     16  N   UNL d   1      27.048 -12.071  -5.995  0.00  0.00    -0.246 NA
ATOM     17  C   UNL d   1      26.802 -12.849  -4.911  0.00  0.00     0.152 A 
ATOM     18 CL   UNL d   1      25.928 -11.990  -3.695  0.00  0.00    -0.060 Cl
ENDBRANCH  10  12
ENDBRANCH   3   8
BRANCH   1  19
ATOM     19  N   UNL d   1      22.587 -17.685  -0.235  0.00  0.00    -0.325 N 
ATOM     20  C   UNL d   1      21.917 -18.663  -0.967  0.00  0.00     0.218 C 
ATOM     21  C   UNL d   1      20.504 -18.950  -0.527  0.00  0.00     0.117 C 
ATOM     22  O   UNL d   1      22.417 -19.325  -1.875  0.00  0.00    -0.274 OA
ATOM     23  H   UNL d   1      22.219 -17.420   0.670  0.00  0.00     0.169 HD
ENDBRANCH   1  19
TORSDOF 3
ENDMDL
MODEL 3
REMARK VINA RESULT:    -7.116      1.724      1.871
REMARK INTER + INTRA:          -8.670
REMARK INTER:                  -8.010
REMARK INTRA:                  -0.660
REMARK CONF_INDEPENDENT:        0.895
REMARK UNBOUND:                -0.660
REMARK  3 active torsions:
REMARK  status: ('A' for Active; 'I' for Inactive)
REMARK       I    between atoms: C_2  and  N_4 
REMARK    1  A    between atoms: N_4  and  C_5 
REMARK    2  A    between atoms: C_7  and  C_8 
REMARK       I    between atoms: C_8  and  N_10 
REMARK    3  A    between atoms: N_10  and  C_11 
ROOT
ATOM      1  C   UNL d   1      23.839 -17.059  -0.685  0.00  0.00     0.074 A 
ATOM      2  C   UNL d   1      23.906 -16.022  -1.632  0.00  0.00     0.050 A 
ATOM      3  C   UNL d   1      25.155 -15.447  -2.002  0.00  0.00     0.034 A 
ATOM      4  C   UNL d   1      26.331 -15.963  -1.442  0.00  0.00     0.020 A 
ATOM      5  C   UNL d   1      26.267 -17.031  -0.548  0.00  0.00     0.046 A 
ATOM      6  C   UNL d   1      25.040 -17.564  -0.175  0.00  0.00     0.143 A 
ATOM      7  F   UNL d   1      25.047 -18.648   0.616  0.00  0.00    -0.204 F 
ENDROOT
BRANCH   3   8
ATOM      8  C   UNL d   1      25.173 -14.301  -2.972  0.00  0.00     0.256 C 
ATOM      9  O   UNL d   1      24.402 -14.360  -3.934  0.00  0.00    -0.267 OA
ATOM     10  N   UNL d   1      26.097 -13.269  -2.798  0.00  0.00    -0.320 N 
ATOM     11  H   UNL d   1      26.910 -13.416  -2.216  0.00  0.00     0.169 HD
BRANCH  10  12
ATOM     12  C   UNL d   1      26.154 -12.160  -3.691  0.00  0.00     0.075 A 
ATOM     13  C   UNL d   1      25.930 -12.375  -5.058  0.00  0.00     0.034 A 
ATOM     14  C   UNL d   1      25.907 -11.288  -5.937  0.00  0.00     0.022 A 
ATOM     15  C   UNL d   1      26.169 -10.023  -5.434  0.00  0.00     0.118 A 
ATOM     16  N   UNL d   1      26.457  -9.781  -4.143  0.00  0.00    -0.246 NA
ATOM     17  C   UNL d   1      26.431 -10.842  -3.299  0.00  0.00     0.152 A 
ATOM     18 CL   UNL d   1      27.030 -10.425  -1.734  0.00  0.00    -0.060 Cl
ENDBRANCH  10  12
ENDBRANCH   3   8
BRANCH   1  19
ATOM     19  N   UNL d   1      22.590 -17.595  -0.256  0.00  0.00    -0.325 N 
ATOM     20  C   UNL d   1      22.008 -18.672  -0.921  0.00  0.00     0.218 C 
ATOM     21  C   UNL d   1      20.674 -19.124  -0.382  0.00  0.00     0.117 C 
ATOM     22  O   UNL d   1      22.530 -19.291  -1.847  0.00  0.00    -0.274 OA
ATOM     23  H   UNL d   1      22.249 -17.353   0.665  0.00  0.00     0.169 HD
ENDBRANCH   1  19
TORSDOF 3
ENDMDL
MODEL 4
REMARK VINA RESULT:    -6.807      3.570      7.523
REMARK INTER + INTRA:          -8.287
REMARK INTER:                  -7.701
REMARK INTRA:                  -0.585
REMARK CONF_INDEPENDENT:        0.895
REMARK UNBOUND:                -0.585
REMARK  3 active torsions:
REMARK  status: ('A' for Active; 'I' for Inactive)
REMARK       I    between atoms: C_2  and  N_4 
REMARK    1  A    between atoms: N_4  and  C_5 
REMARK    2  A    between atoms: C_7  and  C_8 
REMARK       I    between atoms: C_8  and  N_10 
REMARK    3  A    between atoms: N_10  and  C_11 
ROOT
ATOM      1  C   UNL d   1      28.002 -14.229  -6.137  0.00  0.00     0.074 A 
ATOM      2  C   UNL d   1      27.222 -14.893  -5.174  0.00  0.00     0.050 A 
ATOM      3  C   UNL d   1      26.291 -14.179  -4.367  0.00  0.00     0.034 A 
ATOM      4  C   UNL d   1      26.124 -12.805  -4.578  0.00  0.00     0.020 A 
ATOM      5  C   UNL d   1      26.855 -12.159  -5.575  0.00  0.00     0.046 A 
ATOM      6  C   UNL d   1      27.780 -12.862  -6.336  0.00  0.00     0.143 A 
ATOM      7  F   UNL d   1      28.385 -12.208  -7.339  0.00  0.00    -0.204 F 
ENDROOT
BRANCH   3   8
ATOM      8  C   UNL d   1      25.524 -14.920  -3.309  0.00  0.00     0.256 C 
ATOM      9  O   UNL d   1      24.395 -14.506  -3.032  0.00  0.00    -0.267 OA
ATOM     10  N   UNL d   1      26.134 -15.979  -2.635  0.00  0.00    -0.320 N 
ATOM     11  H   UNL d   1      27.141 -16.070  -2.649  0.00  0.00     0.169 HD
BRANCH  10  12
ATOM     12  C   UNL d   1      25.449 -16.713  -1.624  0.00  0.00     0.075 A 
ATOM     13  C   UNL d   1      24.048 -16.754  -1.644  0.00  0.00     0.034 A 
ATOM     14  C   UNL d   1      23.363 -17.531  -0.704  0.00  0.00     0.022 A 
ATOM     15  C   UNL d   1      24.095 -18.196   0.267  0.00  0.00     0.118 A 
ATOM     16  N   UNL d   1      25.435 -18.127   0.366  0.00  0.00    -0.246 NA
ATOM     17  C   UNL d   1      26.084 -17.405  -0.581  0.00  0.00     0.152 A 
ATOM     18 CL   UNL d   1      27.759 -17.225  -0.206  0.00  0.00    -0.060 Cl
ENDBRANCH  10  12
ENDBRANCH   3   8
BRANCH   1  19
ATOM     19  N   UNL d   1      28.985 -14.920  -6.903  0.00  0.00    -0.325 N 
ATOM     20  C   UNL d   1      29.754 -15.932  -6.334  0.00  0.00     0.218 C 
ATOM     21  C   UNL d   1      30.776 -16.563  -7.247  0.00  0.00     0.117 C 
ATOM     22  O   UNL d   1      29.607 -16.369  -5.193  0.00  0.00    -0.274 OA
ATOM     23  H   UNL d   1      28.958 -14.840  -7.911  0.00  0.00     0.169 HD
ENDBRANCH   1  19
TORSDOF 3
ENDMDL
MODEL 5
REMARK VINA RESULT:    -6.663      3.314      7.453
REMARK INTER + INTRA:          -8.159
REMARK INTER:                  -7.558
REMARK INTRA:                  -0.601
REMARK CONF_INDEPENDENT:        0.895
REMARK UNBOUND:                -0.601
REMARK  3 active torsions:
REMARK  status: ('A' for Active; 'I' for Inactive)
REMARK       I    between atoms: C_2  and  N_4 
REMARK    1  A    between atoms: N_4  and  C_5 
REMARK    2  A    between atoms: C_7  and  C_8 
REMARK       I    between atoms: C_8  and  N_10 
REMARK    3  A    between atoms: N_10  and  C_11 
ROOT
ATOM      1  C   UNL d   1      27.155 -16.390  -0.575  0.00  0.00     0.074 A 
ATOM      2  C   UNL d   1      25.887 -16.989  -0.681  0.00  0.00     0.050 A 
ATOM      3  C   UNL d   1      25.666 -18.321  -0.228  0.00  0.00     0.034 A 
ATOM      4  C   UNL d   1      26.722 -19.017   0.374  0.00  0.00     0.020 A 
ATOM      5  C   UNL d   1      27.962 -18.400   0.532  0.00  0.00     0.046 A 
ATOM      6  C   UNL d   1      28.172 -17.110   0.061  0.00  0.00     0.143 A 
ATOM      7  F   UNL d   1      29.356 -16.537   0.323  0.00  0.00    -0.204 F 
ENDROOT
BRANCH   3   8
ATOM      8  C   UNL d   1      24.311 -18.940  -0.417  0.00  0.00     0.256 C 
ATOM      9  O   UNL d   1      24.262 -20.039  -0.976  0.00  0.00    -0.267 OA
ATOM     10  N   UNL d   1      23.172 -18.229  -0.033  0.00  0.00    -0.320 N 
ATOM     11  H   UNL d   1      23.227 -17.229   0.104  0.00  0.00     0.169 HD
BRANCH  10  12
ATOM     12  C   UNL d   1      21.864 -18.773  -0.192  0.00  0.00     0.075 A 
ATOM     13  C   UNL d   1      21.620 -20.089   0.224  0.00  0.00     0.034 A 
ATOM     14  C   UNL d   1      20.325 -20.613   0.144  0.00  0.00     0.022 A 
ATOM     15  C   UNL d   1      19.325 -19.827  -0.404  0.00  0.00     0.118 A 
ATOM     16  N   UNL d   1      19.529 -18.585  -0.879  0.00  0.00    -0.246 NA
ATOM     17  C   UNL d   1      20.782 -18.079  -0.753  0.00  0.00     0.152 A 
ATOM     18 CL   UNL d   1      20.950 -16.581  -1.594  0.00  0.00    -0.060 Cl
ENDBRANCH  10  12
ENDBRANCH   3   8
BRANCH   1  19
ATOM     19  N   UNL d   1      27.405 -15.084  -1.086  0.00  0.00    -0.325 N 
ATOM     20  C   UNL d   1      26.411 -14.373  -1.753  0.00  0.00     0.218 C 
ATOM     21  C   UNL d   1      26.816 -13.014  -2.266  0.00  0.00     0.117 C 
ATOM     22  O   UNL d   1      25.247 -14.750  -1.884  0.00  0.00    -0.274 OA
ATOM     23  H   UNL d   1      28.221 -14.584  -0.758  0.00  0.00     0.169 HD
ENDBRANCH   1  19
TORSDOF 3
ENDMDL
MODEL 6
REMARK VINA RESULT:    -6.570      4.301      5.455
REMARK INTER + INTRA:          -8.209
REMARK INTER:                  -7.465
REMARK INTRA:                  -0.744
REMARK CONF_INDEPENDENT:        0.895
REMARK UNBOUND:                -0.744
REMARK  3 active torsions:
REMARK  status: ('A' for Active; 'I' for Inactive)
REMARK       I    between atoms: C_2  and  N_4 
REMARK    1  A    between atoms: N_4  and  C_5 
REMARK    2  A    between atoms: C_7  and  C_8 
REMARK       I    between atoms: C_8  and  N_10 
REMARK    3  A    between atoms: N_10  and  C_11 
ROOT
ATOM      1  C   UNL d   1      23.042 -18.013  -0.078  0.00  0.00     0.074 A 
ATOM      2  C   UNL d   1      24.411 -18.209   0.179  0.00  0.00     0.050 A 
ATOM      3  C   UNL d   1      25.392 -17.344  -0.383  0.00  0.00     0.034 A 
ATOM      4  C   UNL d   1      24.974 -16.259  -1.163  0.00  0.00     0.020 A 
ATOM      5  C   UNL d   1      23.613 -16.032  -1.367  0.00  0.00     0.046 A 
ATOM      6  C   UNL d   1      22.667 -16.899  -0.835  0.00  0.00     0.143 A 
ATOM      7  F   UNL d   1      21.373 -16.578  -0.988  0.00  0.00    -0.204 F 
ENDROOT
BRANCH   3   8
ATOM      8  C   UNL d   1      26.845 -17.628  -0.131  0.00  0.00     0.256 C 
ATOM      9  O   UNL d   1      27.119 -18.582   0.602  0.00  0.00    -0.267 OA
ATOM     10  N   UNL d   1      27.814 -16.771  -0.660  0.00  0.00    -0.320 N 
ATOM     11  H   UNL d   1      27.552 -15.843  -0.960  0.00  0.00     0.169 HD
BRANCH  10  12
ATOM     12  C   UNL d   1      29.204 -16.997  -0.449  0.00  0.00     0.075 A 
ATOM     13  C   UNL d   1      29.774 -18.198  -0.895  0.00  0.00     0.034 A 
ATOM     14  C   UNL d   1      31.151 -18.404  -0.763  0.00  0.00     0.022 A 
ATOM     15  C   UNL d   1      31.910 -17.430  -0.135  0.00  0.00     0.118 A 
ATOM     16  N   UNL d   1      31.394 -16.294   0.370  0.00  0.00    -0.246 NA
ATOM     17  C   UNL d   1      30.064 -16.093   0.193  0.00  0.00     0.152 A 
ATOM     18 CL   UNL d   1      29.506 -14.718   1.074  0.00  0.00    -0.060 Cl
ENDBRANCH  10  12
ENDBRANCH   3   8
BRANCH   1  19
ATOM     19  N   UNL d   1      22.056 -18.911   0.423  0.00  0.00    -0.325 N 
ATOM     20  C   UNL d   1      21.103 -19.473  -0.423  0.00  0.00     0.218 C 
ATOM     21  C   UNL d   1      20.102 -20.386   0.240  0.00  0.00     0.117 C 
ATOM     22  O   UNL d   1      21.075 -19.325  -1.644  0.00  0.00    -0.274 OA
ATOM     23  H   UNL d   1      22.195 -19.322   1.337  0.00  0.00     0.169 HD
ENDBRANCH   1  19
TORSDOF 3
ENDMDL
MODEL 7
REMARK VINA RESULT:    -6.149      3.316      7.663
REMARK INTER + INTRA:          -7.784
REMARK INTER:                  -7.044
REMARK INTRA:                  -0.741
REMARK CONF_INDEPENDENT:        0.895
REMARK UNBOUND:                -0.741
REMARK  3 active torsions:
REMARK  status: ('A' for Active; 'I' for Inactive)
REMARK       I    between atoms: C_2  and  N_4 
REMARK    1  A    between atoms: N_4  and  C_5 
REMARK    2  A    between atoms: C_7  and  C_8 
REMARK       I    between atoms: C_8  and  N_10 
REMARK    3  A    between atoms: N_10  and  C_11 
ROOT
ATOM      1  C   UNL d   1      26.787 -12.258  -5.234  0.00  0.00     0.074 A 
ATOM      2  C   UNL d   1      26.111 -12.999  -4.249  0.00  0.00     0.050 A 
ATOM      3  C   UNL d   1      26.280 -14.410  -4.148  0.00  0.00     0.034 A 
ATOM      4  C   UNL d   1      27.173 -15.050  -5.018  0.00  0.00     0.020 A 
ATOM      5  C   UNL d   1      27.888 -14.304  -5.955  0.00  0.00     0.046 A 
ATOM      6  C   UNL d   1      27.692 -12.933  -6.060  0.00  0.00     0.143 A 
ATOM      7  F   UNL d   1      28.474 -12.257  -6.916  0.00  0.00    -0.204 F 
ENDROOT
BRANCH   3   8
ATOM      8  C   UNL d   1      25.491 -15.168  -3.120  0.00  0.00     0.256 C 
ATOM      9  O   UNL d   1      24.386 -14.717  -2.806  0.00  0.00    -0.267 OA
ATOM     10  N   UNL d   1      26.058 -16.290  -2.510  0.00  0.00    -0.320 N 
ATOM     11  H   UNL d   1      27.058 -16.427  -2.543  0.00  0.00     0.169 HD
BRANCH  10  12
ATOM     12  C   UNL d   1      25.350 -17.043  -1.529  0.00  0.00     0.075 A 
ATOM     13  C   UNL d   1      24.020 -17.407  -1.781  0.00  0.00     0.034 A 
ATOM     14  C   UNL d   1      23.335 -18.209  -0.863  0.00  0.00     0.022 A 
ATOM     15  C   UNL d   1      23.978 -18.574   0.309  0.00  0.00     0.118 A 
ATOM     16  N   UNL d   1      25.228 -18.189   0.622  0.00  0.00    -0.246 NA
ATOM     17  C   UNL d   1      25.891 -17.448  -0.300  0.00  0.00     0.152 A 
ATOM     18 CL   UNL d   1      27.385 -16.846   0.321  0.00  0.00    -0.060 Cl
ENDBRANCH  10  12
ENDBRANCH   3   8
BRANCH   1  19
ATOM     19  N   UNL d   1      26.574 -10.858  -5.388  0.00  0.00    -0.325 N 
ATOM     20  C   UNL d   1      25.603 -10.374  -6.262  0.00  0.00     0.218 C 
ATOM     21  C   UNL d   1      25.499  -8.872  -6.350  0.00  0.00     0.117 C 
ATOM     22  O   UNL d   1      24.813 -11.075  -6.892  0.00  0.00    -0.274 OA
ATOM     23  H   UNL d   1      26.957 -10.230  -4.694  0.00  0.00     0.169 HD
ENDBRANCH   1  19
TORSDOF 3
ENDMDL
MODEL 8
REMARK VINA RESULT:    -6.031      2.336      3.843
REMARK INTER + INTRA:          -7.679
REMARK INTER:                  -6.926
REMARK INTRA:                  -0.752
REMARK CONF_INDEPENDENT:        0.895
REMARK UNBOUND:                -0.752
REMARK  3 active torsions:
REMARK  status: ('A' for Active; 'I' for Inactive)
REMARK       I    between atoms: C_2  and  N_4 
REMARK    1  A    between atoms: N_4  and  C_5 
REMARK    2  A    between atoms: C_7  and  C_8 
REMARK       I    between atoms: C_8  and  N_10 
REMARK    3  A    between atoms: N_10  and  C_11 
ROOT
ATOM      1  C   UNL d   1      27.364 -17.062  -0.833  0.00  0.00     0.074 A 
ATOM      2  C   UNL d   1      27.213 -16.118  -1.864  0.00  0.00     0.050 A 
ATOM      3  C   UNL d   1      25.921 -15.756  -2.343  0.00  0.00     0.034 A 
ATOM      4  C   UNL d   1      24.791 -16.320  -1.737  0.00  0.00     0.020 A 
ATOM      5  C   UNL d   1      24.941 -17.210  -0.675  0.00  0.00     0.046 A 
ATOM      6  C   UNL d   1      26.207 -17.576  -0.236  0.00  0.00     0.143 A 
ATOM      7  F   UNL d   1      26.287 -18.363   0.847  0.00  0.00    -0.204 F 
ENDROOT
BRANCH   3   8
ATOM      8  C   UNL d   1      25.812 -14.790  -3.487  0.00  0.00     0.256 C 
ATOM      9  O   UNL d   1      24.781 -14.826  -4.164  0.00  0.00    -0.267 OA
ATOM     10  N   UNL d   1      26.892 -13.957  -3.787  0.00  0.00    -0.320 N 
ATOM     11  H   UNL d   1      27.813 -14.183  -3.437  0.00  0.00     0.169 HD
BRANCH  10  12
ATOM     12  C   UNL d   1      26.837 -13.023  -4.862  0.00  0.00     0.075 A 
ATOM     13  C   UNL d   1      25.921 -11.964  -4.797  0.00  0.00     0.034 A 
ATOM     14  C   UNL d   1      25.906 -10.997  -5.808  0.00  0.00     0.022 A 
ATOM     15  C   UNL d   1      26.766 -11.149  -6.883  0.00  0.00     0.118 A 
ATOM     16  N   UNL d   1      27.611 -12.186  -7.020  0.00  0.00    -0.246 NA
ATOM     17  C   UNL d   1      27.642 -13.090  -6.009  0.00  0.00     0.152 A 
ATOM     18 CL   UNL d   1      28.600 -14.467  -6.416  0.00  0.00    -0.060 Cl
ENDBRANCH  10  12
ENDBRANCH   3   8
BRANCH   1  19
ATOM     19  N   UNL d   1      28.652 -17.483  -0.392  0.00  0.00    -0.325 N 
ATOM     20  C   UNL d   1      29.742 -17.477  -1.259  0.00  0.00     0.218 C 
ATOM     21  C   UNL d   1      31.041 -17.971  -0.672  0.00  0.00     0.117 C 
ATOM     22  O   UNL d   1      29.721 -17.046  -2.411  0.00  0.00    -0.274 OA
ATOM     23  H   UNL d   1      28.823 -17.556   0.602  0.00  0.00     0.169 HD
ENDBRANCH   1  19
TORSDOF 3
ENDMDL
MODEL 9
REMARK VINA RESULT:    -5.935      2.324      3.692
REMARK INTER + INTRA:          -7.645
REMARK INTER:                  -6.830
REMARK INTRA:                  -0.816
REMARK CONF_INDEPENDENT:        0.895
REMARK UNBOUND:                -0.816
REMARK  3 active torsions:
REMARK  status: ('A' for Active; 'I' for Inactive)
REMARK       I    between atoms: C_2  and  N_4 
REMARK    1  A    between atoms: N_4  and  C_5 
REMARK    2  A    between atoms: C_7  and  C_8 
REMARK       I    between atoms: C_8  and  N_10 
REMARK    3  A    between atoms: N_10  and  C_11 
ROOT
ATOM      1  C   UNL d   1      26.865 -16.068  -0.060  0.00  0.00     0.074 A 
ATOM      2  C   UNL d   1      26.723 -15.215  -1.169  0.00  0.00     0.050 A 
ATOM      3  C   UNL d   1      25.830 -15.538  -2.230  0.00  0.00     0.034 A 
ATOM      4  C   UNL d   1      25.054 -16.699  -2.134  0.00  0.00     0.020 A 
ATOM      5  C   UNL d   1      25.153 -17.512  -1.006  0.00  0.00     0.046 A 
ATOM      6  C   UNL d   1      26.047 -17.200   0.010  0.00  0.00     0.143 A 
ATOM      7  F   UNL d   1      26.032 -17.968   1.110  0.00  0.00    -0.204 F 
ENDROOT
BRANCH   3   8
ATOM      8  C   UNL d   1      25.756 -14.628  -3.423  0.00  0.00     0.256 C 
ATOM      9  O   UNL d   1      24.795 -14.767  -4.184  0.00  0.00    -0.267 OA
ATOM     10  N   UNL d   1      26.797 -13.730  -3.666  0.00  0.00    -0.320 N 
ATOM     11  H   UNL d   1      27.697 -13.874  -3.229  0.00  0.00     0.169 HD
BRANCH  10  12
ATOM     12  C   UNL d   1      26.774 -12.846  -4.784  0.00  0.00     0.075 A 
ATOM     13  C   UNL d   1      25.905 -11.747  -4.763  0.00  0.00     0.034 A 
ATOM     14  C   UNL d   1      25.923 -10.828  -5.818  0.00  0.00     0.022 A 
ATOM     15  C   UNL d   1      26.766 -11.068  -6.892  0.00  0.00     0.118 A 
ATOM     16  N   UNL d   1      27.565 -12.146  -6.985  0.00  0.00    -0.246 NA
ATOM     17  C   UNL d   1      27.565 -13.002  -5.932  0.00  0.00     0.152 A 
ATOM     18 CL   UNL d   1      28.459 -14.437  -6.279  0.00  0.00    -0.060 Cl
ENDBRANCH  10  12
ENDBRANCH   3   8
BRANCH   1  19
ATOM     19  N   UNL d   1      27.804 -15.790   0.975  0.00  0.00    -0.325 N 
ATOM     20  C   UNL d   1      27.757 -14.592   1.683  0.00  0.00     0.218 C 
ATOM     21  C   UNL d   1      28.825 -14.414   2.734  0.00  0.00     0.117 C 
ATOM     22  O   UNL d   1      26.887 -13.732   1.550  0.00  0.00    -0.274 OA
ATOM     23  H   UNL d   1      28.348 -16.555   1.354  0.00  0.00     0.169 HD
ENDBRANCH   1  19
TORSDOF 3
ENDMDL
