MODEL 1
REMARK VINA RESULT:    -7.633      0.000      0.000
REMARK INTER + INTRA:         -10.963
REMARK INTER:                  -9.124
REMARK INTRA:                  -1.839
REMARK CONF_INDEPENDENT:        1.492
REMARK UNBOUND:                -1.839
REMARK  5 active torsions:
REMARK  status: ('A' for Active; 'I' for Inactive)
REMARK    1  A    between atoms: C_7  and  N_8 
REMARK    2  A    between atoms: C_16  and  C_17 
REMARK       I    between atoms: C_17  and  N_19 
REMARK    3  A    between atoms: N_19  and  C_20 
REMARK    4  A    between atoms: C_21  and  C_20 
REMARK    5  A    between atoms: C_26  and  N_27 
ROOT
ATOM      1  C   UNL d   1      30.451 -16.128  -0.214  0.00  0.00     0.046 C 
ATOM      2  C   UNL d   1      28.920 -16.063  -0.194  0.00  0.00     0.058 C 
ATOM      3  C   UNL d   1      28.488 -15.170   0.982  0.00  0.00     0.046 C 
ATOM      4  C   UNL d   1      28.474 -15.449  -1.500  0.00  0.00     0.077 C 
ATOM      5  C   UNL d   1      26.998 -15.556  -1.761  0.00  0.00    -0.028 A 
ATOM      6  C   UNL d   1      26.220 -16.510  -1.052  0.00  0.00     0.017 A 
ATOM      7  C   UNL d   1      24.820 -16.581  -1.253  0.00  0.00     0.113 A 
ATOM      8  N   UNL d   1      24.287 -15.746  -2.190  0.00  0.00    -0.336 N 
ATOM      9  C   UNL d   1      25.046 -14.828  -2.898  0.00  0.00     0.089 A 
ATOM     10  S   UNL d   1      24.477 -13.686  -4.077  0.00  0.00    -0.064 SA
ATOM     11  C   UNL d   1      26.056 -13.028  -4.367  0.00  0.00     0.101 A 
ATOM     12  C   UNL d   1      26.970 -13.681  -3.558  0.00  0.00     0.062 A 
ATOM     13  C   UNL d   1      26.407 -14.704  -2.716  0.00  0.00     0.033 A 
ATOM     14  C   UNL d   1      26.945 -17.391  -0.044  0.00  0.00     0.212 C 
ATOM     15  O   UNL d   1      28.375 -17.382  -0.147  0.00  0.00    -0.376 OA
ATOM     16  H   UNL d   1      23.280 -15.772  -2.318  0.00  0.00     0.168 HD
ENDROOT
BRANCH  11  17
ATOM     17  C   UNL d   1      26.443 -11.966  -5.328  0.00  0.00     0.261 C 
ATOM     18  O   UNL d   1      27.539 -12.003  -5.916  0.00  0.00    -0.267 OA
ATOM     19  N   UNL d   1      25.597 -10.921  -5.608  0.00  0.00    -0.354 N 
ATOM     20  H   UNL d   1      24.793 -10.747  -5.021  0.00  0.00     0.162 HD
BRANCH  19  21
ATOM     21  C   UNL d   1      26.007  -9.823  -6.503  0.00  0.00     0.155 C 
BRANCH  21  22
ATOM     22  C   UNL d   1      25.785  -8.421  -5.901  0.00  0.00     0.139 C 
ATOM     23  C   UNL d   1      25.062  -7.452  -6.824  0.00  0.00     0.035 C 
ATOM     24  C   UNL d   1      23.614  -7.700  -6.499  0.00  0.00     0.029 C 
ATOM     25  C   UNL d   1      23.654  -8.025  -5.020  0.00  0.00     0.168 C 
ATOM     26  O   UNL d   1      24.956  -8.551  -4.725  0.00  0.00    -0.384 OA
ENDBRANCH  21  22
ENDBRANCH  19  21
ENDBRANCH  11  17
BRANCH  12  27
ATOM     27  N   UNL d   1      28.283 -13.357  -3.585  0.00  0.00    -0.397 N 
ATOM     28  H   UNL d   1      28.676 -12.810  -4.362  0.00  0.00     0.156 HD
ATOM     29  H   UNL d   1      29.022 -13.739  -3.010  0.00  0.00     0.156 HD
ENDBRANCH  12  27
BRANCH   7  30
ATOM     30  N   UNL d   1      23.949 -17.342  -0.487  0.00  0.00    -0.367 N 
ATOM     31  C   UNL d   1      24.196 -18.761  -0.155  0.00  0.00     0.124 C 
ATOM     32  C   UNL d   1      22.910 -19.497  -0.520  0.00  0.00     0.021 C 
ATOM     33  C   UNL d   1      21.846 -18.490  -0.129  0.00  0.00     0.021 C 
ATOM     34  C   UNL d   1      22.485 -17.110  -0.418  0.00  0.00     0.124 C 
ENDBRANCH   7  30
TORSDOF 5
ENDMDL
MODEL 2
REMARK VINA RESULT:    -7.145      1.426      2.254
REMARK INTER + INTRA:         -10.022
REMARK INTER:                  -8.637
REMARK INTRA:                  -1.385
REMARK CONF_INDEPENDENT:        1.492
REMARK UNBOUND:                -1.385
REMARK  5 active torsions:
REMARK  status: ('A' for Active; 'I' for Inactive)
REMARK    1  A    between atoms: C_7  and  N_8 
REMARK    2  A    between atoms: C_16  and  C_17 
REMARK       I    between atoms: C_17  and  N_19 
REMARK    3  A    between atoms: N_19  and  C_20 
REMARK    4  A    between atoms: C_21  and  C_20 
REMARK    5  A    between atoms: C_26  and  N_27 
ROOT
ATOM      1  C   UNL d   1      30.567 -16.702  -0.795  0.00  0.00     0.046 C 
ATOM      2  C   UNL d   1      29.056 -16.489  -0.656  0.00  0.00     0.058 C 
ATOM      3  C   UNL d   1      28.800 -15.645   0.606  0.00  0.00     0.046 C 
ATOM      4  C   UNL d   1      28.588 -15.741  -1.882  0.00  0.00     0.077 C 
ATOM      5  C   UNL d   1      27.094 -15.682  -2.037  0.00  0.00    -0.028 A 
ATOM      6  C   UNL d   1      26.272 -16.603  -1.336  0.00  0.00     0.017 A 
ATOM      7  C   UNL d   1      24.861 -16.521  -1.435  0.00  0.00     0.113 A 
ATOM      8  N   UNL d   1      24.355 -15.572  -2.273  0.00  0.00    -0.336 N 
ATOM      9  C   UNL d   1      25.155 -14.684  -2.974  0.00  0.00     0.089 A 
ATOM     10  S   UNL d   1      24.629 -13.410  -4.030  0.00  0.00    -0.064 SA
ATOM     11  C   UNL d   1      26.244 -12.891  -4.395  0.00  0.00     0.101 A 
ATOM     12  C   UNL d   1      27.138 -13.688  -3.701  0.00  0.00     0.062 A 
ATOM     13  C   UNL d   1      26.532 -14.709  -2.887  0.00  0.00     0.033 A 
ATOM     14  C   UNL d   1      26.969 -17.623  -0.445  0.00  0.00     0.212 C 
ATOM     15  O   UNL d   1      28.381 -17.747  -0.654  0.00  0.00    -0.376 OA
ATOM     16  H   UNL d   1      23.345 -15.490  -2.327  0.00  0.00     0.168 HD
ENDROOT
BRANCH  11  17
ATOM     17  C   UNL d   1      26.672 -11.806  -5.311  0.00  0.00     0.261 C 
ATOM     18  O   UNL d   1      27.860 -11.437  -5.356  0.00  0.00    -0.267 OA
ATOM     19  N   UNL d   1      25.775 -11.188  -6.147  0.00  0.00    -0.354 N 
ATOM     20  H   UNL d   1      24.783 -11.316  -6.010  0.00  0.00     0.162 HD
BRANCH  19  21
ATOM     21  C   UNL d   1      26.180 -10.058  -7.003  0.00  0.00     0.155 C 
BRANCH  21  22
ATOM     22  C   UNL d   1      26.650 -10.486  -8.408  0.00  0.00     0.139 C 
ATOM     23  C   UNL d   1      27.797  -9.655  -8.964  0.00  0.00     0.035 C 
ATOM     24  C   UNL d   1      29.012 -10.382  -8.456  0.00  0.00     0.029 C 
ATOM     25  C   UNL d   1      28.565 -11.829  -8.467  0.00  0.00     0.168 C 
ATOM     26  O   UNL d   1      27.136 -11.845  -8.336  0.00  0.00    -0.384 OA
ENDBRANCH  21  22
ENDBRANCH  19  21
ENDBRANCH  11  17
BRANCH  12  27
ATOM     27  N   UNL d   1      28.473 -13.494  -3.805  0.00  0.00    -0.397 N 
ATOM     28  H   UNL d   1      28.857 -12.564  -4.020  0.00  0.00     0.156 HD
ATOM     29  H   UNL d   1      29.193 -14.201  -3.878  0.00  0.00     0.156 HD
ENDBRANCH  12  27
BRANCH   7  30
ATOM     30  N   UNL d   1      23.971 -17.246  -0.657  0.00  0.00    -0.367 N 
ATOM     31  C   UNL d   1      24.132 -18.689  -0.379  0.00  0.00     0.124 C 
ATOM     32  C   UNL d   1      22.785 -19.323  -0.712  0.00  0.00     0.021 C 
ATOM     33  C   UNL d   1      21.809 -18.260  -0.247  0.00  0.00     0.021 C 
ATOM     34  C   UNL d   1      22.530 -16.918  -0.520  0.00  0.00     0.124 C 
ENDBRANCH   7  30
TORSDOF 5
ENDMDL
MODEL 3
REMARK VINA RESULT:    -6.775      7.143     11.496
REMARK INTER + INTRA:         -10.125
REMARK INTER:                  -8.266
REMARK INTRA:                  -1.859
REMARK CONF_INDEPENDENT:        1.492
REMARK UNBOUND:                -1.859
REMARK  5 active torsions:
REMARK  status: ('A' for Active; 'I' for Inactive)
REMARK    1  A    between atoms: C_7  and  N_8 
REMARK    2  A    between atoms: C_16  and  C_17 
REMARK       I    between atoms: C_17  and  N_19 
REMARK    3  A    between atoms: N_19  and  C_20 
REMARK    4  A    between atoms: C_21  and  C_20 
REMARK    5  A    between atoms: C_26  and  N_27 
ROOT
ATOM      1  C   UNL d   1      26.813  -8.501   2.235  0.00  0.00     0.046 C 
ATOM      2  C   UNL d   1      27.406  -9.902   2.048  0.00  0.00     0.058 C 
ATOM      3  C   UNL d   1      28.885  -9.753   1.651  0.00  0.00     0.046 C 
ATOM      4  C   UNL d   1      27.295 -10.621   3.371  0.00  0.00     0.077 C 
ATOM      5  C   UNL d   1      27.583 -12.095   3.299  0.00  0.00    -0.028 A 
ATOM      6  C   UNL d   1      27.530 -12.767   2.049  0.00  0.00     0.017 A 
ATOM      7  C   UNL d   1      27.851 -14.144   1.964  0.00  0.00     0.113 A 
ATOM      8  N   UNL d   1      28.144 -14.783   3.133  0.00  0.00    -0.336 N 
ATOM      9  C   UNL d   1      28.177 -14.135   4.357  0.00  0.00     0.089 A 
ATOM     10  S   UNL d   1      28.578 -14.827   5.898  0.00  0.00    -0.064 SA
ATOM     11  C   UNL d   1      28.363 -13.334   6.753  0.00  0.00     0.101 A 
ATOM     12  C   UNL d   1      28.004 -12.348   5.850  0.00  0.00     0.062 A 
ATOM     13  C   UNL d   1      27.898 -12.790   4.484  0.00  0.00     0.033 A 
ATOM     14  C   UNL d   1      27.176 -11.935   0.824  0.00  0.00     0.212 C 
ATOM     15  O   UNL d   1      26.628 -10.641   1.106  0.00  0.00    -0.376 OA
ATOM     16  H   UNL d   1      28.403 -15.763   3.075  0.00  0.00     0.168 HD
ENDROOT
BRANCH  11  17
ATOM     17  C   UNL d   1      28.493 -13.085   8.210  0.00  0.00     0.261 C 
ATOM     18  O   UNL d   1      28.203 -11.978   8.699  0.00  0.00    -0.267 OA
ATOM     19  N   UNL d   1      28.921 -14.072   9.062  0.00  0.00    -0.354 N 
ATOM     20  H   UNL d   1      29.345 -14.912   8.694  0.00  0.00     0.162 HD
BRANCH  19  21
ATOM     21  C   UNL d   1      29.124 -13.809  10.499  0.00  0.00     0.155 C 
BRANCH  21  22
ATOM     22  C   UNL d   1      30.560 -14.100  10.982  0.00  0.00     0.139 C 
ATOM     23  C   UNL d   1      30.656 -15.201  12.027  0.00  0.00     0.035 C 
ATOM     24  C   UNL d   1      30.804 -16.443  11.189  0.00  0.00     0.029 C 
ATOM     25  C   UNL d   1      31.600 -15.950   9.999  0.00  0.00     0.168 C 
ATOM     26  O   UNL d   1      31.343 -14.547   9.853  0.00  0.00    -0.384 OA
ENDBRANCH  21  22
ENDBRANCH  19  21
ENDBRANCH  11  17
BRANCH  12  27
ATOM     27  N   UNL d   1      27.776 -11.077   6.256  0.00  0.00    -0.397 N 
ATOM     28  H   UNL d   1      28.109 -10.748   7.172  0.00  0.00     0.156 HD
ATOM     29  H   UNL d   1      27.140 -10.406   5.847  0.00  0.00     0.156 HD
ENDBRANCH  12  27
BRANCH   7  30
ATOM     30  N   UNL d   1      28.009 -14.847   0.779  0.00  0.00    -0.367 N 
ATOM     31  C   UNL d   1      26.872 -15.403   0.014  0.00  0.00     0.124 C 
ATOM     32  C   UNL d   1      27.233 -16.861  -0.254  0.00  0.00     0.021 C 
ATOM     33  C   UNL d   1      28.728 -16.780  -0.492  0.00  0.00     0.021 C 
ATOM     34  C   UNL d   1      29.214 -15.643   0.440  0.00  0.00     0.124 C 
ENDBRANCH   7  30
TORSDOF 5
ENDMDL
MODEL 4
REMARK VINA RESULT:    -6.571      7.009     10.273
REMARK INTER + INTRA:          -9.325
REMARK INTER:                  -8.062
REMARK INTRA:                  -1.263
REMARK CONF_INDEPENDENT:        1.492
REMARK UNBOUND:                -1.263
REMARK  5 active torsions:
REMARK  status: ('A' for Active; 'I' for Inactive)
REMARK    1  A    between atoms: C_7  and  N_8 
REMARK    2  A    between atoms: C_16  and  C_17 
REMARK       I    between atoms: C_17  and  N_19 
REMARK    3  A    between atoms: N_19  and  C_20 
REMARK    4  A    between atoms: C_21  and  C_20 
REMARK    5  A    between atoms: C_26  and  N_27 
ROOT
ATOM      1  C   UNL d   1      30.957  -8.371   5.700  0.00  0.00     0.046 C 
ATOM      2  C   UNL d   1      30.304  -9.539   6.448  0.00  0.00     0.058 C 
ATOM      3  C   UNL d   1      28.977  -9.047   7.052  0.00  0.00     0.046 C 
ATOM      4  C   UNL d   1      30.040 -10.632   5.439  0.00  0.00     0.077 C 
ATOM      5  C   UNL d   1      29.650 -11.951   6.046  0.00  0.00    -0.028 A 
ATOM      6  C   UNL d   1      29.934 -12.215   7.412  0.00  0.00     0.017 A 
ATOM      7  C   UNL d   1      29.523 -13.433   8.006  0.00  0.00     0.113 A 
ATOM      8  N   UNL d   1      28.912 -14.341   7.193  0.00  0.00    -0.336 N 
ATOM      9  C   UNL d   1      28.650 -14.095   5.855  0.00  0.00     0.089 A 
ATOM     10  S   UNL d   1      27.841 -15.148   4.735  0.00  0.00    -0.064 SA
ATOM     11  C   UNL d   1      27.980 -14.035   3.412  0.00  0.00     0.101 A 
ATOM     12  C   UNL d   1      28.624 -12.892   3.853  0.00  0.00     0.062 A 
ATOM     13  C   UNL d   1      29.007 -12.913   5.240  0.00  0.00     0.033 A 
ATOM     14  C   UNL d   1      30.636 -11.118   8.203  0.00  0.00     0.212 C 
ATOM     15  O   UNL d   1      31.213 -10.073   7.411  0.00  0.00    -0.376 OA
ATOM     16  H   UNL d   1      28.589 -15.204   7.619  0.00  0.00     0.168 HD
ENDROOT
BRANCH  11  17
ATOM     17  C   UNL d   1      27.536 -14.220   2.008  0.00  0.00     0.261 C 
ATOM     18  O   UNL d   1      26.948 -13.310   1.397  0.00  0.00    -0.267 OA
ATOM     19  N   UNL d   1      27.775 -15.394   1.339  0.00  0.00    -0.354 N 
ATOM     20  H   UNL d   1      28.070 -16.217   1.845  0.00  0.00     0.162 HD
BRANCH  19  21
ATOM     21  C   UNL d   1      27.269 -15.612  -0.030  0.00  0.00     0.155 C 
BRANCH  21  22
ATOM     22  C   UNL d   1      27.130 -17.101  -0.407  0.00  0.00     0.139 C 
ATOM     23  C   UNL d   1      26.660 -17.993   0.733  0.00  0.00     0.035 C 
ATOM     24  C   UNL d   1      25.162 -17.935   0.604  0.00  0.00     0.029 C 
ATOM     25  C   UNL d   1      24.959 -17.823  -0.893  0.00  0.00     0.168 C 
ATOM     26  O   UNL d   1      26.137 -17.221  -1.449  0.00  0.00    -0.384 OA
ENDBRANCH  21  22
ENDBRANCH  19  21
ENDBRANCH  11  17
BRANCH  12  27
ATOM     27  N   UNL d   1      28.861 -11.856   3.016  0.00  0.00    -0.397 N 
ATOM     28  H   UNL d   1      28.337 -11.758   2.136  0.00  0.00     0.156 HD
ATOM     29  H   UNL d   1      29.641 -11.214   3.038  0.00  0.00     0.156 HD
ENDBRANCH  12  27
BRANCH   7  30
ATOM     30  N   UNL d   1      29.586 -13.712   9.363  0.00  0.00    -0.367 N 
ATOM     31  C   UNL d   1      30.684 -14.489   9.976  0.00  0.00     0.124 C 
ATOM     32  C   UNL d   1      30.004 -15.565  10.818  0.00  0.00     0.021 C 
ATOM     33  C   UNL d   1      28.799 -14.825  11.366  0.00  0.00     0.021 C 
ATOM     34  C   UNL d   1      28.396 -13.842  10.240  0.00  0.00     0.124 C 
ENDBRANCH   7  30
TORSDOF 5
ENDMDL
MODEL 5
REMARK VINA RESULT:    -6.338      4.376      8.480
REMARK INTER + INTRA:          -9.319
REMARK INTER:                  -7.829
REMARK INTRA:                  -1.490
REMARK CONF_INDEPENDENT:        1.492
REMARK UNBOUND:                -1.490
REMARK  5 active torsions:
REMARK  status: ('A' for Active; 'I' for Inactive)
REMARK    1  A    between atoms: C_7  and  N_8 
REMARK    2  A    between atoms: C_16  and  C_17 
REMARK       I    between atoms: C_17  and  N_19 
REMARK    3  A    between atoms: N_19  and  C_20 
REMARK    4  A    between atoms: C_21  and  C_20 
REMARK    5  A    between atoms: C_26  and  N_27 
ROOT
ATOM      1  C   UNL d   1      25.161 -16.495  -2.380  0.00  0.00     0.046 C 
ATOM      2  C   UNL d   1      25.590 -15.125  -2.916  0.00  0.00     0.058 C 
ATOM      3  C   UNL d   1      26.309 -14.366  -1.786  0.00  0.00     0.046 C 
ATOM      4  C   UNL d   1      26.542 -15.365  -4.064  0.00  0.00     0.077 C 
ATOM      5  C   UNL d   1      26.852 -14.138  -4.876  0.00  0.00    -0.028 A 
ATOM      6  C   UNL d   1      25.995 -13.008  -4.808  0.00  0.00     0.017 A 
ATOM      7  C   UNL d   1      26.308 -11.829  -5.529  0.00  0.00     0.113 A 
ATOM      8  N   UNL d   1      27.417 -11.866  -6.321  0.00  0.00    -0.336 N 
ATOM      9  C   UNL d   1      28.245 -12.973  -6.405  0.00  0.00     0.089 A 
ATOM     10  S   UNL d   1      29.702 -13.124  -7.338  0.00  0.00    -0.064 SA
ATOM     11  C   UNL d   1      30.001 -14.752  -6.820  0.00  0.00     0.101 A 
ATOM     12  C   UNL d   1      28.997 -15.137  -5.947  0.00  0.00     0.062 A 
ATOM     13  C   UNL d   1      27.995 -14.133  -5.701  0.00  0.00     0.033 A 
ATOM     14  C   UNL d   1      24.780 -13.107  -3.894  0.00  0.00     0.212 C 
ATOM     15  O   UNL d   1      24.462 -14.431  -3.449  0.00  0.00    -0.376 OA
ATOM     16  H   UNL d   1      27.662 -11.015  -6.818  0.00  0.00     0.168 HD
ENDROOT
BRANCH  11  17
ATOM     17  C   UNL d   1      31.106 -15.655  -7.226  0.00  0.00     0.261 C 
ATOM     18  O   UNL d   1      32.235 -15.204  -7.494  0.00  0.00    -0.267 OA
ATOM     19  N   UNL d   1      30.921 -17.013  -7.302  0.00  0.00    -0.354 N 
ATOM     20  H   UNL d   1      29.988 -17.400  -7.283  0.00  0.00     0.162 HD
BRANCH  19  21
ATOM     21  C   UNL d   1      31.993 -17.906  -7.778  0.00  0.00     0.155 C 
BRANCH  21  22
ATOM     22  C   UNL d   1      31.628 -19.403  -7.702  0.00  0.00     0.139 C 
ATOM     23  C   UNL d   1      32.540 -20.223  -6.802  0.00  0.00     0.035 C 
ATOM     24  C   UNL d   1      31.875 -20.106  -5.458  0.00  0.00     0.029 C 
ATOM     25  C   UNL d   1      30.405 -20.049  -5.816  0.00  0.00     0.168 C 
ATOM     26  O   UNL d   1      30.299 -19.525  -7.147  0.00  0.00    -0.384 OA
ENDBRANCH  21  22
ENDBRANCH  19  21
ENDBRANCH  11  17
BRANCH  12  27
ATOM     27  N   UNL d   1      28.990 -16.369  -5.390  0.00  0.00    -0.397 N 
ATOM     28  H   UNL d   1      28.860 -16.489  -4.376  0.00  0.00     0.156 HD
ATOM     29  H   UNL d   1      29.282 -17.238  -5.815  0.00  0.00     0.156 HD
ENDBRANCH  12  27
BRANCH   7  30
ATOM     30  N   UNL d   1      25.645 -10.619  -5.390  0.00  0.00    -0.367 N 
ATOM     31  C   UNL d   1      25.514  -9.640  -6.490  0.00  0.00     0.124 C 
ATOM     32  C   UNL d   1      25.964  -8.305  -5.906  0.00  0.00     0.021 C 
ATOM     33  C   UNL d   1      25.428  -8.380  -4.490  0.00  0.00     0.021 C 
ATOM     34  C   UNL d   1      25.530  -9.877  -4.110  0.00  0.00     0.124 C 
ENDBRANCH   7  30
TORSDOF 5
ENDMDL
MODEL 6
REMARK VINA RESULT:    -5.997      5.339      7.939
REMARK INTER + INTRA:          -9.478
REMARK INTER:                  -7.488
REMARK INTRA:                  -1.990
REMARK CONF_INDEPENDENT:        1.492
REMARK UNBOUND:                -1.990
REMARK  5 active torsions:
REMARK  status: ('A' for Active; 'I' for Inactive)
REMARK    1  A    between atoms: C_7  and  N_8 
REMARK    2  A    between atoms: C_16  and  C_17 
REMARK       I    between atoms: C_17  and  N_19 
REMARK    3  A    between atoms: N_19  and  C_20 
REMARK    4  A    between atoms: C_21  and  C_20 
REMARK    5  A    between atoms: C_26  and  N_27 
ROOT
ATOM      1  C   UNL d   1      25.906 -11.603  -4.971  0.00  0.00     0.046 C 
ATOM      2  C   UNL d   1      26.109 -12.948  -4.265  0.00  0.00     0.058 C 
ATOM      3  C   UNL d   1      24.942 -13.877  -4.645  0.00  0.00     0.046 C 
ATOM      4  C   UNL d   1      27.413 -13.528  -4.760  0.00  0.00     0.077 C 
ATOM      5  C   UNL d   1      27.899 -14.715  -3.976  0.00  0.00    -0.028 A 
ATOM      6  C   UNL d   1      27.394 -14.957  -2.671  0.00  0.00     0.017 A 
ATOM      7  C   UNL d   1      27.807 -16.101  -1.946  0.00  0.00     0.113 A 
ATOM      8  N   UNL d   1      28.742 -16.901  -2.534  0.00  0.00    -0.336 N 
ATOM      9  C   UNL d   1      29.252 -16.657  -3.798  0.00  0.00     0.089 A 
ATOM     10  S   UNL d   1      30.406 -17.622  -4.667  0.00  0.00    -0.064 SA
ATOM     11  C   UNL d   1      30.403 -16.581  -6.054  0.00  0.00     0.101 A 
ATOM     12  C   UNL d   1      29.522 -15.536  -5.830  0.00  0.00     0.062 A 
ATOM     13  C   UNL d   1      28.859 -15.571  -4.553  0.00  0.00     0.033 A 
ATOM     14  C   UNL d   1      26.364 -13.975  -2.128  0.00  0.00     0.212 C 
ATOM     15  O   UNL d   1      26.251 -12.748  -2.858  0.00  0.00    -0.376 OA
ATOM     16  H   UNL d   1      29.021 -17.738  -2.031  0.00  0.00     0.168 HD
ENDROOT
BRANCH  11  17
ATOM     17  C   UNL d   1      31.206 -16.706  -7.295  0.00  0.00     0.261 C 
ATOM     18  O   UNL d   1      31.527 -15.701  -7.955  0.00  0.00    -0.267 OA
ATOM     19  N   UNL d   1      31.632 -17.932  -7.743  0.00  0.00    -0.354 N 
ATOM     20  H   UNL d   1      31.239 -18.778  -7.355  0.00  0.00     0.162 HD
BRANCH  19  21
ATOM     21  C   UNL d   1      32.364 -18.070  -9.015  0.00  0.00     0.155 C 
BRANCH  21  22
ATOM     22  C   UNL d   1      32.220 -19.463  -9.662  0.00  0.00     0.139 C 
ATOM     23  C   UNL d   1      33.434 -20.362  -9.485  0.00  0.00     0.035 C 
ATOM     24  C   UNL d   1      33.146 -21.059  -8.183  0.00  0.00     0.029 C 
ATOM     25  C   UNL d   1      31.638 -21.198  -8.205  0.00  0.00     0.168 C 
ATOM     26  O   UNL d   1      31.115 -20.150  -9.033  0.00  0.00    -0.384 OA
ENDBRANCH  21  22
ENDBRANCH  19  21
ENDBRANCH  11  17
BRANCH  12  27
ATOM     27  N   UNL d   1      29.326 -14.575  -6.761  0.00  0.00    -0.397 N 
ATOM     28  H   UNL d   1      29.599 -14.726  -7.741  0.00  0.00     0.156 HD
ATOM     29  H   UNL d   1      29.095 -13.604  -6.602  0.00  0.00     0.156 HD
ENDBRANCH  12  27
BRANCH   7  30
ATOM     30  N   UNL d   1      27.243 -16.526  -0.752  0.00  0.00    -0.367 N 
ATOM     31  C   UNL d   1      27.965 -17.366   0.228  0.00  0.00     0.124 C 
ATOM     32  C   UNL d   1      27.026 -18.526   0.543  0.00  0.00     0.021 C 
ATOM     33  C   UNL d   1      25.669 -17.851   0.528  0.00  0.00     0.021 C 
ATOM     34  C   UNL d   1      25.789 -16.751  -0.554  0.00  0.00     0.124 C 
ENDBRANCH   7  30
TORSDOF 5
ENDMDL
MODEL 7
REMARK VINA RESULT:    -5.994      5.491      9.029
REMARK INTER + INTRA:          -9.383
REMARK INTER:                  -7.486
REMARK INTRA:                  -1.897
REMARK CONF_INDEPENDENT:        1.492
REMARK UNBOUND:                -1.897
REMARK  5 active torsions:
REMARK  status: ('A' for Active; 'I' for Inactive)
REMARK    1  A    between atoms: C_7  and  N_8 
REMARK    2  A    between atoms: C_16  and  C_17 
REMARK       I    between atoms: C_17  and  N_19 
REMARK    3  A    between atoms: N_19  and  C_20 
REMARK    4  A    between atoms: C_21  and  C_20 
REMARK    5  A    between atoms: C_26  and  N_27 
ROOT
ATOM      1  C   UNL d   1      29.866 -13.581   7.415  0.00  0.00     0.046 C 
ATOM      2  C   UNL d   1      29.560 -12.536   6.336  0.00  0.00     0.058 C 
ATOM      3  C   UNL d   1      30.892 -12.054   5.736  0.00  0.00     0.046 C 
ATOM      4  C   UNL d   1      28.729 -13.213   5.272  0.00  0.00     0.077 C 
ATOM      5  C   UNL d   1      28.115 -12.270   4.275  0.00  0.00    -0.028 A 
ATOM      6  C   UNL d   1      27.994 -10.890   4.585  0.00  0.00     0.017 A 
ATOM      7  C   UNL d   1      27.466  -9.986   3.631  0.00  0.00     0.113 A 
ATOM      8  N   UNL d   1      27.033 -10.517   2.452  0.00  0.00    -0.336 N 
ATOM      9  C   UNL d   1      27.132 -11.866   2.153  0.00  0.00     0.089 A 
ATOM     10  S   UNL d   1      26.659 -12.649   0.676  0.00  0.00    -0.064 SA
ATOM     11  C   UNL d   1      27.147 -14.222   1.221  0.00  0.00     0.101 A 
ATOM     12  C   UNL d   1      27.664 -14.113   2.500  0.00  0.00     0.062 A 
ATOM     13  C   UNL d   1      27.664 -12.779   3.040  0.00  0.00     0.033 A 
ATOM     14  C   UNL d   1      28.505 -10.434   5.945  0.00  0.00     0.212 C 
ATOM     15  O   UNL d   1      28.761 -11.487   6.883  0.00  0.00    -0.376 OA
ATOM     16  H   UNL d   1      26.680  -9.871   1.752  0.00  0.00     0.168 HD
ENDROOT
BRANCH  11  17
ATOM     17  C   UNL d   1      27.031 -15.516   0.504  0.00  0.00     0.261 C 
ATOM     18  O   UNL d   1      27.935 -16.368   0.570  0.00  0.00    -0.267 OA
ATOM     19  N   UNL d   1      25.916 -15.818  -0.238  0.00  0.00    -0.354 N 
ATOM     20  H   UNL d   1      25.253 -15.094  -0.476  0.00  0.00     0.162 HD
BRANCH  19  21
ATOM     21  C   UNL d   1      25.828 -17.069  -1.013  0.00  0.00     0.155 C 
BRANCH  21  22
ATOM     22  C   UNL d   1      24.459 -17.280  -1.690  0.00  0.00     0.139 C 
ATOM     23  C   UNL d   1      23.644 -18.425  -1.107  0.00  0.00     0.035 C 
ATOM     24  C   UNL d   1      22.871 -17.754  -0.004  0.00  0.00     0.029 C 
ATOM     25  C   UNL d   1      22.623 -16.369  -0.563  0.00  0.00     0.168 C 
ATOM     26  O   UNL d   1      23.666 -16.086  -1.507  0.00  0.00    -0.384 OA
ENDBRANCH  21  22
ENDBRANCH  19  21
ENDBRANCH  11  17
BRANCH  12  27
ATOM     27  N   UNL d   1      28.123 -15.199   3.163  0.00  0.00    -0.397 N 
ATOM     28  H   UNL d   1      28.105 -16.131   2.727  0.00  0.00     0.156 HD
ATOM     29  H   UNL d   1      28.337 -15.273   4.148  0.00  0.00     0.156 HD
ENDBRANCH  12  27
BRANCH   7  30
ATOM     30  N   UNL d   1      27.474  -8.606   3.761  0.00  0.00    -0.367 N 
ATOM     31  C   UNL d   1      26.793  -7.701   2.810  0.00  0.00     0.124 C 
ATOM     32  C   UNL d   1      27.835  -6.657   2.420  0.00  0.00     0.021 C 
ATOM     33  C   UNL d   1      28.583  -6.452   3.722  0.00  0.00     0.021 C 
ATOM     34  C   UNL d   1      28.569  -7.839   4.408  0.00  0.00     0.124 C 
ENDBRANCH   7  30
TORSDOF 5
ENDMDL
MODEL 8
REMARK VINA RESULT:    -5.992      3.235      8.417
REMARK INTER + INTRA:          -9.487
REMARK INTER:                  -7.483
REMARK INTRA:                  -2.004
REMARK CONF_INDEPENDENT:        1.492
REMARK UNBOUND:                -2.004
REMARK  5 active torsions:
REMARK  status: ('A' for Active; 'I' for Inactive)
REMARK    1  A    between atoms: C_7  and  N_8 
REMARK    2  A    between atoms: C_16  and  C_17 
REMARK       I    between atoms: C_17  and  N_19 
REMARK    3  A    between atoms: N_19  and  C_20 
REMARK    4  A    between atoms: C_21  and  C_20 
REMARK    5  A    between atoms: C_26  and  N_27 
ROOT
ATOM      1  C   UNL d   1      26.338 -12.324  -4.350  0.00  0.00     0.046 C 
ATOM      2  C   UNL d   1      25.895 -13.696  -3.830  0.00  0.00     0.058 C 
ATOM      3  C   UNL d   1      25.760 -14.650  -5.031  0.00  0.00     0.046 C 
ATOM      4  C   UNL d   1      26.970 -14.195  -2.893  0.00  0.00     0.077 C 
ATOM      5  C   UNL d   1      26.576 -15.401  -2.087  0.00  0.00    -0.028 A 
ATOM      6  C   UNL d   1      25.204 -15.734  -1.934  0.00  0.00     0.017 A 
ATOM      7  C   UNL d   1      24.826 -16.898  -1.221  0.00  0.00     0.113 A 
ATOM      8  N   UNL d   1      25.829 -17.626  -0.651  0.00  0.00    -0.336 N 
ATOM      9  C   UNL d   1      27.167 -17.294  -0.783  0.00  0.00     0.089 A 
ATOM     10  S   UNL d   1      28.530 -18.162  -0.145  0.00  0.00    -0.064 SA
ATOM     11  C   UNL d   1      29.689 -17.048  -0.796  0.00  0.00     0.101 A 
ATOM     12  C   UNL d   1      29.018 -16.055  -1.488  0.00  0.00     0.062 A 
ATOM     13  C   UNL d   1      27.584 -16.185  -1.490  0.00  0.00     0.033 A 
ATOM     14  C   UNL d   1      24.186 -14.826  -2.611  0.00  0.00     0.212 C 
ATOM     15  O   UNL d   1      24.700 -13.566  -3.061  0.00  0.00    -0.376 OA
ATOM     16  H   UNL d   1      25.567 -18.477  -0.164  0.00  0.00     0.168 HD
ENDROOT
BRANCH  11  17
ATOM     17  C   UNL d   1      31.166 -17.073  -0.652  0.00  0.00     0.261 C 
ATOM     18  O   UNL d   1      31.898 -16.456  -1.446  0.00  0.00    -0.267 OA
ATOM     19  N   UNL d   1      31.765 -17.765   0.371  0.00  0.00    -0.354 N 
ATOM     20  H   UNL d   1      31.233 -18.429   0.916  0.00  0.00     0.162 HD
BRANCH  19  21
ATOM     21  C   UNL d   1      33.234 -17.856   0.475  0.00  0.00     0.155 C 
BRANCH  21  22
ATOM     22  C   UNL d   1      33.731 -19.221   0.994  0.00  0.00     0.139 C 
ATOM     23  C   UNL d   1      34.291 -19.187   2.407  0.00  0.00     0.035 C 
ATOM     24  C   UNL d   1      33.073 -19.434   3.254  0.00  0.00     0.029 C 
ATOM     25  C   UNL d   1      32.252 -20.372   2.393  0.00  0.00     0.168 C 
ATOM     26  O   UNL d   1      32.614 -20.137   1.025  0.00  0.00    -0.384 OA
ENDBRANCH  21  22
ENDBRANCH  19  21
ENDBRANCH  11  17
BRANCH  12  27
ATOM     27  N   UNL d   1      29.689 -15.053  -2.101  0.00  0.00    -0.397 N 
ATOM     28  H   UNL d   1      30.669 -14.851  -1.862  0.00  0.00     0.156 HD
ATOM     29  H   UNL d   1      29.303 -14.313  -2.671  0.00  0.00     0.156 HD
ENDBRANCH  12  27
BRANCH   7  30
ATOM     30  N   UNL d   1      23.538 -17.410  -1.169  0.00  0.00    -0.367 N 
ATOM     31  C   UNL d   1      22.551 -17.006  -0.145  0.00  0.00     0.124 C 
ATOM     32  C   UNL d   1      22.005 -18.307   0.434  0.00  0.00     0.021 C 
ATOM     33  C   UNL d   1      21.954 -19.203  -0.789  0.00  0.00     0.021 C 
ATOM     34  C   UNL d   1      23.162 -18.763  -1.650  0.00  0.00     0.124 C 
ENDBRANCH   7  30
TORSDOF 5
ENDMDL
MODEL 9
REMARK VINA RESULT:    -5.889      3.736      9.183
REMARK INTER + INTRA:          -9.420
REMARK INTER:                  -7.380
REMARK INTRA:                  -2.040
REMARK CONF_INDEPENDENT:        1.492
REMARK UNBOUND:                -2.040
REMARK  5 active torsions:
REMARK  status: ('A' for Active; 'I' for Inactive)
REMARK    1  A    between atoms: C_7  and  N_8 
REMARK    2  A    between atoms: C_16  and  C_17 
REMARK       I    between atoms: C_17  and  N_19 
REMARK    3  A    between atoms: N_19  and  C_20 
REMARK    4  A    between atoms: C_21  and  C_20 
REMARK    5  A    between atoms: C_26  and  N_27 
ROOT
ATOM      1  C   UNL d   1      27.171  -9.229  -8.357  0.00  0.00     0.046 C 
ATOM      2  C   UNL d   1      28.188 -10.225  -7.789  0.00  0.00     0.058 C 
ATOM      3  C   UNL d   1      29.048  -9.497  -6.741  0.00  0.00     0.046 C 
ATOM      4  C   UNL d   1      27.411 -11.343  -7.134  0.00  0.00     0.077 C 
ATOM      5  C   UNL d   1      28.242 -12.538  -6.761  0.00  0.00    -0.028 A 
ATOM      6  C   UNL d   1      29.513 -12.733  -7.364  0.00  0.00     0.017 A 
ATOM      7  C   UNL d   1      30.326 -13.828  -6.979  0.00  0.00     0.113 A 
ATOM      8  N   UNL d   1      29.802 -14.695  -6.067  0.00  0.00    -0.336 N 
ATOM      9  C   UNL d   1      28.555 -14.519  -5.491  0.00  0.00     0.089 A 
ATOM     10  S   UNL d   1      27.803 -15.525  -4.291  0.00  0.00    -0.064 SA
ATOM     11  C   UNL d   1      26.370 -14.551  -4.208  0.00  0.00     0.101 A 
ATOM     12  C   UNL d   1      26.501 -13.485  -5.082  0.00  0.00     0.062 A 
ATOM     13  C   UNL d   1      27.740 -13.453  -5.814  0.00  0.00     0.033 A 
ATOM     14  C   UNL d   1      29.971 -11.695  -8.380  0.00  0.00     0.212 C 
ATOM     15  O   UNL d   1      28.945 -10.811  -8.849  0.00  0.00    -0.376 OA
ATOM     16  H   UNL d   1      30.392 -15.466  -5.766  0.00  0.00     0.168 HD
ENDROOT
BRANCH  11  17
ATOM     17  C   UNL d   1      25.155 -14.777  -3.387  0.00  0.00     0.261 C 
ATOM     18  O   UNL d   1      24.139 -14.075  -3.541  0.00  0.00    -0.267 OA
ATOM     19  N   UNL d   1      25.111 -15.776  -2.447  0.00  0.00    -0.354 N 
ATOM     20  H   UNL d   1      25.961 -16.237  -2.156  0.00  0.00     0.162 HD
BRANCH  19  21
ATOM     21  C   UNL d   1      23.935 -15.956  -1.576  0.00  0.00     0.155 C 
BRANCH  21  22
ATOM     22  C   UNL d   1      24.281 -16.509  -0.179  0.00  0.00     0.139 C 
ATOM     23  C   UNL d   1      23.505 -17.758   0.209  0.00  0.00     0.035 C 
ATOM     24  C   UNL d   1      24.372 -18.867  -0.322  0.00  0.00     0.029 C 
ATOM     25  C   UNL d   1      25.770 -18.312  -0.145  0.00  0.00     0.168 C 
ATOM     26  O   UNL d   1      25.677 -16.881  -0.164  0.00  0.00    -0.384 OA
ENDBRANCH  21  22
ENDBRANCH  19  21
ENDBRANCH  11  17
BRANCH  12  27
ATOM     27  N   UNL d   1      25.519 -12.563  -5.212  0.00  0.00    -0.397 N 
ATOM     28  H   UNL d   1      24.775 -12.481  -4.507  0.00  0.00     0.156 HD
ATOM     29  H   UNL d   1      25.291 -12.021  -6.034  0.00  0.00     0.156 HD
ENDBRANCH  12  27
BRANCH   7  30
ATOM     30  N   UNL d   1      31.646 -14.006  -7.367  0.00  0.00    -0.367 N 
ATOM     31  C   UNL d   1      32.793 -13.511  -6.576  0.00  0.00     0.124 C 
ATOM     32  C   UNL d   1      33.667 -12.742  -7.562  0.00  0.00     0.021 C 
ATOM     33  C   UNL d   1      33.533 -13.573  -8.822  0.00  0.00     0.021 C 
ATOM     34  C   UNL d   1      32.088 -14.123  -8.779  0.00  0.00     0.124 C 
ENDBRANCH   7  30
TORSDOF 5
ENDMDL
