MODEL 1
REMARK VINA RESULT:    -8.929      0.000      0.000
REMARK INTER + INTRA:         -12.092
REMARK INTER:                 -10.421
REMARK INTRA:                  -1.671
REMARK CONF_INDEPENDENT:        1.492
REMARK UNBOUND:                -1.671
REMARK  5 active torsions:
REMARK  status: ('A' for Active; 'I' for Inactive)
REMARK       I    between atoms: N_1  and  C_2 
REMARK    1  A    between atoms: C_2  and  C_4 
REMARK    2  A    between atoms: C_4  and  C_5 
REMARK    3  A    between atoms: C_6  and  C_5 
REMARK    4  A    between atoms: N_22  and  C_23 
REMARK    5  A    between atoms: C_23  and  C_24 
ROOT
ATOM      1  C   UNL d   1      26.825 -13.079  -5.436  0.00  0.00     0.237 A 
ATOM      2  N   UNL d   1      27.374 -11.794  -4.994  0.00  0.00     0.113 N 
ATOM      3  C   UNL d   1      26.832 -11.474  -3.682  0.00  0.00     0.279 A 
ATOM      4  C   UNL d   1      28.017 -11.356  -2.662  0.00  0.00     0.267 C 
ATOM      5  O   UNL d   1      28.900 -12.171  -2.452  0.00  0.00    -0.270 OA
ATOM      6  N   UNL d   1      27.864 -10.132  -2.018  0.00  0.00    -0.324 N 
ATOM      7  C   UNL d   1      26.871  -9.368  -2.610  0.00  0.00     0.044 A 
ATOM      8  C   UNL d   1      26.533  -8.066  -2.318  0.00  0.00     0.032 A 
ATOM      9  C   UNL d   1      25.530  -7.470  -3.091  0.00  0.00     0.026 A 
ATOM     10  C   UNL d   1      24.890  -8.188  -4.117  0.00  0.00     0.034 A 
ATOM     11 CL   UNL d   1      23.659  -7.424  -5.047  0.00  0.00    -0.084 Cl
ATOM     12  C   UNL d   1      25.238  -9.510  -4.393  0.00  0.00     0.036 A 
ATOM     13  C   UNL d   1      26.244 -10.086  -3.627  0.00  0.00     0.019 A 
ATOM     14  C   UNL d   1      25.786 -12.510  -3.328  0.00  0.00     0.147 A 
ATOM     15  C   UNL d   1      26.080 -13.288  -2.080  0.00  0.00     0.235 C 
ATOM     16  O   UNL d   1      26.657 -12.885  -1.098  0.00  0.00    -0.272 OA
ATOM     17  N   UNL d   1      25.544 -14.532  -2.195  0.00  0.00    -0.283 N 
ATOM     18  C   UNL d   1      25.617 -14.869  -3.527  0.00  0.00     0.234 C 
ATOM     19  O   UNL d   1      25.530 -16.006  -3.972  0.00  0.00    -0.272 OA
ATOM     20  C   UNL d   1      25.744 -13.559  -4.416  0.00  0.00     0.128 A 
ATOM     21  H   UNL d   1      27.280 -11.031  -5.661  0.00  0.00     0.318 HD
ATOM     22  H   UNL d   1      28.473  -9.858  -1.263  0.00  0.00     0.169 HD
ENDROOT
BRANCH   1  23
ATOM     23  C   UNL d   1      28.002 -13.995  -5.727  0.00  0.00     0.045 C 
BRANCH  23  24
ATOM     24  C   UNL d   1      29.014 -13.285  -6.602  0.00  0.00     0.105 C 
BRANCH  24  25
ATOM     25  C   UNL d   1      28.387 -12.456  -7.684  0.00  0.00     0.215 C 
ATOM     26  N   UNL d   1      28.582 -12.950  -8.942  0.00  0.00    -0.370 N 
ATOM     27  H   UNL d   1      28.280 -12.361  -9.705  0.00  0.00     0.159 HD
ATOM     28  H   UNL d   1      29.242 -13.693  -9.139  0.00  0.00     0.159 HD
ATOM     29  O   UNL d   1      27.780 -11.410  -7.500  0.00  0.00    -0.274 OA
ENDBRANCH  24  25
ENDBRANCH  23  24
ENDBRANCH   1  23
BRANCH  17  30
ATOM     30  C   UNL d   1      25.571 -15.319  -0.923  0.00  0.00     0.175 C 
BRANCH  30  31
ATOM     31  C   UNL d   1      24.647 -16.500  -0.727  0.00  0.00    -0.018 C 
ATOM     32  C   UNL d   1      23.325 -16.327  -1.143  0.00  0.00     0.010 C 
ATOM     33  C   UNL d   1      22.358 -17.296  -0.892  0.00  0.00     0.001 C 
ATOM     34  C   UNL d   1      22.720 -18.535  -0.377  0.00  0.00     0.002 C 
ATOM     35  C   UNL d   1      24.064 -18.813  -0.147  0.00  0.00     0.024 C 
ATOM     36  C   UNL d   1      25.019 -17.787  -0.267  0.00  0.00     0.042 C 
ATOM     37 CL   UNL d   1      26.638 -18.196   0.184  0.00  0.00    -0.084 Cl
ENDBRANCH  30  31
ENDBRANCH  17  30
TORSDOF 5
ENDMDL
MODEL 2
REMARK VINA RESULT:    -8.429      1.187      1.756
REMARK INTER + INTRA:         -11.820
REMARK INTER:                  -9.921
REMARK INTRA:                  -1.899
REMARK CONF_INDEPENDENT:        1.492
REMARK UNBOUND:                -1.899
REMARK  5 active torsions:
REMARK  status: ('A' for Active; 'I' for Inactive)
REMARK       I    between atoms: N_1  and  C_2 
REMARK    1  A    between atoms: C_2  and  C_4 
REMARK    2  A    between atoms: C_4  and  C_5 
REMARK    3  A    between atoms: C_6  and  C_5 
REMARK    4  A    between atoms: N_22  and  C_23 
REMARK    5  A    between atoms: C_23  and  C_24 
ROOT
ATOM      1  C   UNL d   1      27.340 -12.980  -5.581  0.00  0.00     0.237 A 
ATOM      2  N   UNL d   1      27.757 -11.790  -4.834  0.00  0.00     0.113 N 
ATOM      3  C   UNL d   1      26.832 -11.576  -3.731  0.00  0.00     0.279 A 
ATOM      4  C   UNL d   1      27.630 -11.647  -2.383  0.00  0.00     0.267 C 
ATOM      5  O   UNL d   1      28.373 -12.538  -2.006  0.00  0.00    -0.270 OA
ATOM      6  N   UNL d   1      27.314 -10.492  -1.675  0.00  0.00    -0.324 N 
ATOM      7  C   UNL d   1      26.588  -9.603  -2.452  0.00  0.00     0.044 A 
ATOM      8  C   UNL d   1      26.213  -8.320  -2.124  0.00  0.00     0.032 A 
ATOM      9  C   UNL d   1      25.530  -7.578  -3.095  0.00  0.00     0.026 A 
ATOM     10  C   UNL d   1      25.232  -8.138  -4.350  0.00  0.00     0.034 A 
ATOM     11 CL   UNL d   1      24.389  -7.198  -5.520  0.00  0.00    -0.084 Cl
ATOM     12  C   UNL d   1      25.611  -9.444  -4.663  0.00  0.00     0.036 A 
ATOM     13  C   UNL d   1      26.299 -10.164  -3.695  0.00  0.00     0.019 A 
ATOM     14  C   UNL d   1      25.697 -12.570  -3.855  0.00  0.00     0.147 A 
ATOM     15  C   UNL d   1      25.551 -13.495  -2.683  0.00  0.00     0.235 C 
ATOM     16  O   UNL d   1      25.793 -13.238  -1.528  0.00  0.00    -0.272 OA
ATOM     17  N   UNL d   1      25.043 -14.680  -3.113  0.00  0.00    -0.283 N 
ATOM     18  C   UNL d   1      25.530 -14.878  -4.385  0.00  0.00     0.234 C 
ATOM     19  O   UNL d   1      25.557 -15.952  -4.971  0.00  0.00    -0.272 OA
ATOM     20  C   UNL d   1      25.975 -13.492  -5.021  0.00  0.00     0.128 A 
ATOM     21  H   UNL d   1      27.906 -10.955  -5.397  0.00  0.00     0.318 HD
ATOM     22  H   UNL d   1      27.656 -10.341  -0.739  0.00  0.00     0.169 HD
ENDROOT
BRANCH   1  23
ATOM     23  C   UNL d   1      28.521 -13.937  -5.595  0.00  0.00     0.045 C 
BRANCH  23  24
ATOM     24  C   UNL d   1      29.369 -13.704  -6.828  0.00  0.00     0.105 C 
BRANCH  24  25
ATOM     25  C   UNL d   1      28.952 -12.498  -7.617  0.00  0.00     0.215 C 
ATOM     26  N   UNL d   1      28.529 -12.787  -8.883  0.00  0.00    -0.370 N 
ATOM     27  H   UNL d   1      28.354 -11.996  -9.486  0.00  0.00     0.159 HD
ATOM     28  H   UNL d   1      28.663 -13.696  -9.308  0.00  0.00     0.159 HD
ATOM     29  O   UNL d   1      29.005 -11.345  -7.213  0.00  0.00    -0.274 OA
ENDBRANCH  24  25
ENDBRANCH  23  24
ENDBRANCH   1  23
BRANCH  17  30
ATOM     30  C   UNL d   1      24.636 -15.598  -2.005  0.00  0.00     0.175 C 
BRANCH  30  31
ATOM     31  C   UNL d   1      25.669 -16.421  -1.266  0.00  0.00    -0.018 C 
ATOM     32  C   UNL d   1      26.987 -15.965  -1.336  0.00  0.00     0.010 C 
ATOM     33  C   UNL d   1      28.036 -16.711  -0.807  0.00  0.00     0.001 C 
ATOM     34  C   UNL d   1      27.779 -17.843  -0.042  0.00  0.00     0.002 C 
ATOM     35  C   UNL d   1      26.462 -18.205   0.221  0.00  0.00     0.024 C 
ATOM     36  C   UNL d   1      25.411 -17.534  -0.430  0.00  0.00     0.042 C 
ATOM     37 CL   UNL d   1      23.821 -18.156  -0.151  0.00  0.00    -0.084 Cl
ENDBRANCH  30  31
ENDBRANCH  17  30
TORSDOF 5
ENDMDL
MODEL 3
REMARK VINA RESULT:    -8.297      1.869      2.206
REMARK INTER + INTRA:         -12.113
REMARK INTER:                  -9.789
REMARK INTRA:                  -2.324
REMARK CONF_INDEPENDENT:        1.492
REMARK UNBOUND:                -2.324
REMARK  5 active torsions:
REMARK  status: ('A' for Active; 'I' for Inactive)
REMARK       I    between atoms: N_1  and  C_2 
REMARK    1  A    between atoms: C_2  and  C_4 
REMARK    2  A    between atoms: C_4  and  C_5 
REMARK    3  A    between atoms: C_6  and  C_5 
REMARK    4  A    between atoms: N_22  and  C_23 
REMARK    5  A    between atoms: C_23  and  C_24 
ROOT
ATOM      1  C   UNL d   1      26.245 -11.522  -4.850  0.00  0.00     0.237 A 
ATOM      2  N   UNL d   1      27.274 -10.703  -4.205  0.00  0.00     0.113 N 
ATOM      3  C   UNL d   1      27.380 -11.091  -2.806  0.00  0.00     0.279 A 
ATOM      4  C   UNL d   1      28.837 -11.604  -2.535  0.00  0.00     0.267 C 
ATOM      5  O   UNL d   1      29.450 -12.461  -3.151  0.00  0.00    -0.270 OA
ATOM      6  N   UNL d   1      29.306 -10.899  -1.431  0.00  0.00    -0.324 N 
ATOM      7  C   UNL d   1      28.440  -9.877  -1.077  0.00  0.00     0.044 A 
ATOM      8  C   UNL d   1      28.638  -8.907  -0.120  0.00  0.00     0.032 A 
ATOM      9  C   UNL d   1      27.646  -7.931   0.026  0.00  0.00     0.026 A 
ATOM     10  C   UNL d   1      26.488  -7.957  -0.772  0.00  0.00     0.034 A 
ATOM     11 CL   UNL d   1      25.286  -6.741  -0.564  0.00  0.00    -0.084 Cl
ATOM     12  C   UNL d   1      26.298  -8.952  -1.731  0.00  0.00     0.036 A 
ATOM     13  C   UNL d   1      27.296  -9.908  -1.874  0.00  0.00     0.019 A 
ATOM     14  C   UNL d   1      26.284 -12.089  -2.499  0.00  0.00     0.147 A 
ATOM     15  C   UNL d   1      26.776 -13.426  -2.029  0.00  0.00     0.235 C 
ATOM     16  O   UNL d   1      27.768 -13.639  -1.374  0.00  0.00    -0.272 OA
ATOM     17  N   UNL d   1      25.892 -14.385  -2.412  0.00  0.00    -0.283 N 
ATOM     18  C   UNL d   1      25.360 -13.971  -3.612  0.00  0.00     0.234 C 
ATOM     19  O   UNL d   1      24.780 -14.693  -4.413  0.00  0.00    -0.272 OA
ATOM     20  C   UNL d   1      25.530 -12.400  -3.773  0.00  0.00     0.128 A 
ATOM     21  H   UNL d   1      27.171  -9.698  -4.333  0.00  0.00     0.318 HD
ATOM     22  H   UNL d   1      30.203 -11.104  -1.022  0.00  0.00     0.169 HD
ENDROOT
BRANCH   1  23
ATOM     23  C   UNL d   1      26.900 -12.218  -6.032  0.00  0.00     0.045 C 
BRANCH  23  24
ATOM     24  C   UNL d   1      28.175 -12.906  -5.593  0.00  0.00     0.105 C 
BRANCH  24  25
ATOM     25  C   UNL d   1      28.016 -14.386  -5.398  0.00  0.00     0.215 C 
ATOM     26  N   UNL d   1      28.205 -14.796  -4.110  0.00  0.00    -0.370 N 
ATOM     27  H   UNL d   1      28.225 -15.794  -3.958  0.00  0.00     0.159 HD
ATOM     28  H   UNL d   1      28.598 -14.193  -3.398  0.00  0.00     0.159 HD
ATOM     29  O   UNL d   1      27.776 -15.186  -6.292  0.00  0.00    -0.274 OA
ENDBRANCH  24  25
ENDBRANCH  23  24
ENDBRANCH   1  23
BRANCH  17  30
ATOM     30  C   UNL d   1      26.155 -15.724  -1.802  0.00  0.00     0.175 C 
BRANCH  30  31
ATOM     31  C   UNL d   1      25.039 -16.503  -1.139  0.00  0.00    -0.018 C 
ATOM     32  C   UNL d   1      23.740 -16.175  -1.530  0.00  0.00     0.010 C 
ATOM     33  C   UNL d   1      22.634 -16.730  -0.893  0.00  0.00     0.001 C 
ATOM     34  C   UNL d   1      22.795 -17.758   0.029  0.00  0.00     0.002 C 
ATOM     35  C   UNL d   1      24.071 -18.251   0.286  0.00  0.00     0.024 C 
ATOM     36  C   UNL d   1      25.193 -17.594  -0.250  0.00  0.00     0.042 C 
ATOM     37 CL   UNL d   1      26.737 -18.195   0.248  0.00  0.00    -0.084 Cl
ENDBRANCH  30  31
ENDBRANCH  17  30
TORSDOF 5
ENDMDL
MODEL 4
REMARK VINA RESULT:    -8.254      1.272      1.870
REMARK INTER + INTRA:         -12.220
REMARK INTER:                  -9.746
REMARK INTRA:                  -2.474
REMARK CONF_INDEPENDENT:        1.492
REMARK UNBOUND:                -2.474
REMARK  5 active torsions:
REMARK  status: ('A' for Active; 'I' for Inactive)
REMARK       I    between atoms: N_1  and  C_2 
REMARK    1  A    between atoms: C_2  and  C_4 
REMARK    2  A    between atoms: C_4  and  C_5 
REMARK    3  A    between atoms: C_6  and  C_5 
REMARK    4  A    between atoms: N_22  and  C_23 
REMARK    5  A    between atoms: C_23  and  C_24 
ROOT
ATOM      1  C   UNL d   1      26.848 -13.228  -5.526  0.00  0.00     0.237 A 
ATOM      2  N   UNL d   1      27.394 -11.931  -5.117  0.00  0.00     0.113 N 
ATOM      3  C   UNL d   1      26.834 -11.569  -3.823  0.00  0.00     0.279 A 
ATOM      4  C   UNL d   1      28.006 -11.420  -2.791  0.00  0.00     0.267 C 
ATOM      5  O   UNL d   1      28.885 -12.229  -2.544  0.00  0.00    -0.270 OA
ATOM      6  N   UNL d   1      27.845 -10.177  -2.188  0.00  0.00    -0.324 N 
ATOM      7  C   UNL d   1      26.862  -9.430  -2.817  0.00  0.00     0.044 A 
ATOM      8  C   UNL d   1      26.522  -8.119  -2.571  0.00  0.00     0.032 A 
ATOM      9  C   UNL d   1      25.530  -7.547  -3.375  0.00  0.00     0.026 A 
ATOM     10  C   UNL d   1      24.903  -8.296  -4.387  0.00  0.00     0.034 A 
ATOM     11 CL   UNL d   1      23.686  -7.561  -5.358  0.00  0.00    -0.084 Cl
ATOM     12  C   UNL d   1      25.253  -9.627  -4.617  0.00  0.00     0.036 A 
ATOM     13  C   UNL d   1      26.247 -10.179  -3.820  0.00  0.00     0.019 A 
ATOM     14  C   UNL d   1      25.782 -12.592  -3.451  0.00  0.00     0.147 A 
ATOM     15  C   UNL d   1      26.058 -13.331  -2.175  0.00  0.00     0.235 C 
ATOM     16  O   UNL d   1      26.622 -12.898  -1.199  0.00  0.00    -0.272 OA
ATOM     17  N   UNL d   1      25.522 -14.577  -2.258  0.00  0.00    -0.283 N 
ATOM     18  C   UNL d   1      25.612 -14.956  -3.578  0.00  0.00     0.234 C 
ATOM     19  O   UNL d   1      25.530 -16.106  -3.989  0.00  0.00    -0.272 OA
ATOM     20  C   UNL d   1      25.753 -13.675  -4.506  0.00  0.00     0.128 A 
ATOM     21  H   UNL d   1      27.310 -11.188  -5.808  0.00  0.00     0.318 HD
ATOM     22  H   UNL d   1      28.444  -9.880  -1.434  0.00  0.00     0.169 HD
ENDROOT
BRANCH   1  23
ATOM     23  C   UNL d   1      28.029 -14.153  -5.772  0.00  0.00     0.045 C 
BRANCH  23  24
ATOM     24  C   UNL d   1      28.994 -14.092  -4.607  0.00  0.00     0.105 C 
BRANCH  24  25
ATOM     25  C   UNL d   1      28.914 -15.288  -3.704  0.00  0.00     0.215 C 
ATOM     26  N   UNL d   1      28.421 -15.010  -2.462  0.00  0.00    -0.370 N 
ATOM     27  H   UNL d   1      28.462 -15.760  -1.787  0.00  0.00     0.159 HD
ATOM     28  H   UNL d   1      28.301 -14.063  -2.122  0.00  0.00     0.159 HD
ATOM     29  O   UNL d   1      29.280 -16.416  -4.005  0.00  0.00    -0.274 OA
ENDBRANCH  24  25
ENDBRANCH  23  24
ENDBRANCH   1  23
BRANCH  17  30
ATOM     30  C   UNL d   1      25.530 -15.324  -0.962  0.00  0.00     0.175 C 
BRANCH  30  31
ATOM     31  C   UNL d   1      24.607 -16.503  -0.745  0.00  0.00    -0.018 C 
ATOM     32  C   UNL d   1      23.279 -16.328  -1.137  0.00  0.00     0.010 C 
ATOM     33  C   UNL d   1      22.315 -17.294  -0.865  0.00  0.00     0.001 C 
ATOM     34  C   UNL d   1      22.684 -18.532  -0.351  0.00  0.00     0.002 C 
ATOM     35  C   UNL d   1      24.031 -18.811  -0.145  0.00  0.00     0.024 C 
ATOM     36  C   UNL d   1      24.985 -17.788  -0.286  0.00  0.00     0.042 C 
ATOM     37 CL   UNL d   1      26.611 -18.199   0.137  0.00  0.00    -0.084 Cl
ENDBRANCH  30  31
ENDBRANCH  17  30
TORSDOF 5
ENDMDL
MODEL 5
REMARK VINA RESULT:    -8.248      3.915      7.413
REMARK INTER + INTRA:         -11.430
REMARK INTER:                  -9.740
REMARK INTRA:                  -1.690
REMARK CONF_INDEPENDENT:        1.492
REMARK UNBOUND:                -1.690
REMARK  5 active torsions:
REMARK  status: ('A' for Active; 'I' for Inactive)
REMARK       I    between atoms: N_1  and  C_2 
REMARK    1  A    between atoms: C_2  and  C_4 
REMARK    2  A    between atoms: C_4  and  C_5 
REMARK    3  A    between atoms: C_6  and  C_5 
REMARK    4  A    between atoms: N_22  and  C_23 
REMARK    5  A    between atoms: C_23  and  C_24 
ROOT
ATOM      1  C   UNL d   1      27.582 -13.949  -3.332  0.00  0.00     0.237 A 
ATOM      2  N   UNL d   1      27.430 -14.342  -1.928  0.00  0.00     0.113 N 
ATOM      3  C   UNL d   1      27.831 -15.733  -1.779  0.00  0.00     0.279 A 
ATOM      4  C   UNL d   1      29.033 -15.805  -0.775  0.00  0.00     0.267 C 
ATOM      5  O   UNL d   1      30.077 -15.175  -0.819  0.00  0.00    -0.270 OA
ATOM      6  N   UNL d   1      28.690 -16.750   0.186  0.00  0.00    -0.324 N 
ATOM      7  C   UNL d   1      27.370 -17.150   0.055  0.00  0.00     0.044 A 
ATOM      8  C   UNL d   1      26.658 -17.972   0.899  0.00  0.00     0.032 A 
ATOM      9  C   UNL d   1      25.309 -18.193   0.600  0.00  0.00     0.026 A 
ATOM     10  C   UNL d   1      24.716 -17.602  -0.530  0.00  0.00     0.034 A 
ATOM     11 CL   UNL d   1      23.054 -17.896  -0.869  0.00  0.00    -0.084 Cl
ATOM     12  C   UNL d   1      25.454 -16.778  -1.381  0.00  0.00     0.036 A 
ATOM     13  C   UNL d   1      26.789 -16.558  -1.066  0.00  0.00     0.019 A 
ATOM     14  C   UNL d   1      28.112 -16.302  -3.154  0.00  0.00     0.147 A 
ATOM     15  C   UNL d   1      29.513 -16.801  -3.345  0.00  0.00     0.235 C 
ATOM     16  O   UNL d   1      30.221 -17.300  -2.503  0.00  0.00    -0.272 OA
ATOM     17  N   UNL d   1      29.863 -16.654  -4.650  0.00  0.00    -0.283 N 
ATOM     18  C   UNL d   1      29.219 -15.526  -5.104  0.00  0.00     0.234 C 
ATOM     19  O   UNL d   1      29.522 -14.898  -6.110  0.00  0.00    -0.272 OA
ATOM     20  C   UNL d   1      27.968 -15.201  -4.182  0.00  0.00     0.128 A 
ATOM     21  H   UNL d   1      26.518 -14.144  -1.520  0.00  0.00     0.318 HD
ATOM     22  H   UNL d   1      29.339 -17.023   0.907  0.00  0.00     0.169 HD
ENDROOT
BRANCH   1  23
ATOM     23  C   UNL d   1      28.505 -12.742  -3.363  0.00  0.00     0.045 C 
BRANCH  23  24
ATOM     24  C   UNL d   1      27.707 -11.468  -3.177  0.00  0.00     0.105 C 
BRANCH  24  25
ATOM     25  C   UNL d   1      26.223 -11.686  -3.211  0.00  0.00     0.215 C 
ATOM     26  N   UNL d   1      25.593 -11.031  -4.231  0.00  0.00    -0.370 N 
ATOM     27  H   UNL d   1      24.583 -11.054  -4.219  0.00  0.00     0.159 HD
ATOM     28  H   UNL d   1      26.052 -10.322  -4.789  0.00  0.00     0.159 HD
ATOM     29  O   UNL d   1      25.594 -12.351  -2.399  0.00  0.00    -0.274 OA
ENDBRANCH  24  25
ENDBRANCH  23  24
ENDBRANCH   1  23
BRANCH  17  30
ATOM     30  C   UNL d   1      31.149 -17.329  -5.008  0.00  0.00     0.175 C 
BRANCH  30  31
ATOM     31  C   UNL d   1      31.255 -18.177  -6.256  0.00  0.00    -0.018 C 
ATOM     32  C   UNL d   1      31.786 -17.551  -7.385  0.00  0.00     0.010 C 
ATOM     33  C   UNL d   1      31.809 -18.191  -8.621  0.00  0.00     0.001 C 
ATOM     34  C   UNL d   1      31.463 -19.533  -8.724  0.00  0.00     0.002 C 
ATOM     35  C   UNL d   1      31.127 -20.242  -7.575  0.00  0.00     0.024 C 
ATOM     36  C   UNL d   1      30.969 -19.560  -6.356  0.00  0.00     0.042 C 
ATOM     37 CL   UNL d   1      30.406 -20.506  -5.021  0.00  0.00    -0.084 Cl
ENDBRANCH  30  31
ENDBRANCH  17  30
TORSDOF 5
ENDMDL
MODEL 6
REMARK VINA RESULT:    -8.212      3.266      7.913
REMARK INTER + INTRA:         -11.413
REMARK INTER:                  -9.703
REMARK INTRA:                  -1.709
REMARK CONF_INDEPENDENT:        1.492
REMARK UNBOUND:                -1.709
REMARK  5 active torsions:
REMARK  status: ('A' for Active; 'I' for Inactive)
REMARK       I    between atoms: N_1  and  C_2 
REMARK    1  A    between atoms: C_2  and  C_4 
REMARK    2  A    between atoms: C_4  and  C_5 
REMARK    3  A    between atoms: C_6  and  C_5 
REMARK    4  A    between atoms: N_22  and  C_23 
REMARK    5  A    between atoms: C_23  and  C_24 
ROOT
ATOM      1  C   UNL d   1      25.168 -16.458  -1.519  0.00  0.00     0.237 A 
ATOM      2  N   UNL d   1      26.151 -16.515  -0.434  0.00  0.00     0.113 N 
ATOM      3  C   UNL d   1      27.210 -15.554  -0.704  0.00  0.00     0.279 A 
ATOM      4  C   UNL d   1      27.255 -14.512   0.467  0.00  0.00     0.267 C 
ATOM      5  O   UNL d   1      26.330 -13.850   0.908  0.00  0.00    -0.270 OA
ATOM      6  N   UNL d   1      28.574 -14.468   0.907  0.00  0.00    -0.324 N 
ATOM      7  C   UNL d   1      29.337 -15.467   0.325  0.00  0.00     0.044 A 
ATOM      8  C   UNL d   1      30.640 -15.800   0.615  0.00  0.00     0.032 A 
ATOM      9  C   UNL d   1      31.195 -16.892  -0.062  0.00  0.00     0.026 A 
ATOM     10  C   UNL d   1      30.442 -17.608  -1.010  0.00  0.00     0.034 A 
ATOM     11 CL   UNL d   1      31.156 -18.946  -1.825  0.00  0.00    -0.084 Cl
ATOM     12  C   UNL d   1      29.125 -17.252  -1.299  0.00  0.00     0.036 A 
ATOM     13  C   UNL d   1      28.583 -16.173  -0.612  0.00  0.00     0.019 A 
ATOM     14  C   UNL d   1      26.984 -14.962  -2.078  0.00  0.00     0.147 A 
ATOM     15  C   UNL d   1      26.792 -13.475  -2.090  0.00  0.00     0.235 C 
ATOM     16  O   UNL d   1      27.302 -12.677  -1.341  0.00  0.00    -0.272 OA
ATOM     17  N   UNL d   1      25.980 -13.139  -3.127  0.00  0.00    -0.283 N 
ATOM     18  C   UNL d   1      25.096 -14.181  -3.286  0.00  0.00     0.234 C 
ATOM     19  O   UNL d   1      24.034 -14.119  -3.892  0.00  0.00    -0.272 OA
ATOM     20  C   UNL d   1      25.690 -15.506  -2.642  0.00  0.00     0.128 A 
ATOM     21  H   UNL d   1      26.502 -17.445  -0.216  0.00  0.00     0.318 HD
ATOM     22  H   UNL d   1      28.867 -13.815   1.616  0.00  0.00     0.169 HD
ENDROOT
BRANCH   1  23
ATOM     23  C   UNL d   1      23.818 -16.159  -0.887  0.00  0.00     0.045 C 
BRANCH  23  24
ATOM     24  C   UNL d   1      22.939 -17.391  -0.922  0.00  0.00     0.105 C 
BRANCH  24  25
ATOM     25  C   UNL d   1      23.569 -18.589  -0.275  0.00  0.00     0.215 C 
ATOM     26  N   UNL d   1      22.725 -19.654  -0.145  0.00  0.00    -0.370 N 
ATOM     27  H   UNL d   1      23.072 -20.437   0.391  0.00  0.00     0.159 HD
ATOM     28  H   UNL d   1      21.727 -19.580  -0.296  0.00  0.00     0.159 HD
ATOM     29  O   UNL d   1      24.718 -18.635   0.143  0.00  0.00    -0.274 OA
ENDBRANCH  24  25
ENDBRANCH  23  24
ENDBRANCH   1  23
BRANCH  17  30
ATOM     30  C   UNL d   1      25.905 -11.667  -3.380  0.00  0.00     0.175 C 
BRANCH  30  31
ATOM     31  C   UNL d   1      26.103 -11.112  -4.774  0.00  0.00    -0.018 C 
ATOM     32  C   UNL d   1      25.595  -9.833  -5.007  0.00  0.00     0.010 C 
ATOM     33  C   UNL d   1      25.603  -9.277  -6.283  0.00  0.00     0.001 C 
ATOM     34  C   UNL d   1      26.275  -9.909  -7.323  0.00  0.00     0.002 C 
ATOM     35  C   UNL d   1      26.971 -11.087  -7.069  0.00  0.00     0.024 C 
ATOM     36  C   UNL d   1      26.843 -11.717  -5.818  0.00  0.00     0.042 C 
ATOM     37 CL   UNL d   1      27.627 -13.251  -5.654  0.00  0.00    -0.084 Cl
ENDBRANCH  30  31
ENDBRANCH  17  30
TORSDOF 5
ENDMDL
MODEL 7
REMARK VINA RESULT:    -7.822      3.217      6.774
REMARK INTER + INTRA:         -11.803
REMARK INTER:                  -9.313
REMARK INTRA:                  -2.490
REMARK CONF_INDEPENDENT:        1.492
REMARK UNBOUND:                -2.490
REMARK  5 active torsions:
REMARK  status: ('A' for Active; 'I' for Inactive)
REMARK       I    between atoms: N_1  and  C_2 
REMARK    1  A    between atoms: C_2  and  C_4 
REMARK    2  A    between atoms: C_4  and  C_5 
REMARK    3  A    between atoms: C_6  and  C_5 
REMARK    4  A    between atoms: N_22  and  C_23 
REMARK    5  A    between atoms: C_23  and  C_24 
ROOT
ATOM      1  C   UNL d   1      25.502 -13.568  -3.820  0.00  0.00     0.237 A 
ATOM      2  N   UNL d   1      25.453 -13.941  -2.404  0.00  0.00     0.113 N 
ATOM      3  C   UNL d   1      26.305 -15.102  -2.190  0.00  0.00     0.279 A 
ATOM      4  C   UNL d   1      27.428 -14.720  -1.165  0.00  0.00     0.267 C 
ATOM      5  O   UNL d   1      28.191 -13.770  -1.219  0.00  0.00    -0.270 OA
ATOM      6  N   UNL d   1      27.403 -15.693  -0.171  0.00  0.00    -0.324 N 
ATOM      7  C   UNL d   1      26.306 -16.528  -0.305  0.00  0.00     0.044 A 
ATOM      8  C   UNL d   1      25.896 -17.516   0.561  0.00  0.00     0.032 A 
ATOM      9  C   UNL d   1      24.715 -18.200   0.250  0.00  0.00     0.026 A 
ATOM     10  C   UNL d   1      23.989 -17.888  -0.914  0.00  0.00     0.034 A 
ATOM     11 CL   UNL d   1      22.540 -18.750  -1.266  0.00  0.00    -0.084 Cl
ATOM     12  C   UNL d   1      24.423 -16.890  -1.786  0.00  0.00     0.036 A 
ATOM     13  C   UNL d   1      25.590 -16.211  -1.459  0.00  0.00     0.019 A 
ATOM     14  C   UNL d   1      26.804 -15.586  -3.535  0.00  0.00     0.147 A 
ATOM     15  C   UNL d   1      28.297 -15.576  -3.682  0.00  0.00     0.235 C 
ATOM     16  O   UNL d   1      29.109 -15.771  -2.809  0.00  0.00    -0.272 OA
ATOM     17  N   UNL d   1      28.614 -15.362  -4.987  0.00  0.00    -0.283 N 
ATOM     18  C   UNL d   1      27.634 -14.542  -5.498  0.00  0.00     0.234 C 
ATOM     19  O   UNL d   1      27.732 -13.882  -6.525  0.00  0.00    -0.272 OA
ATOM     20  C   UNL d   1      26.321 -14.638  -4.610  0.00  0.00     0.128 A 
ATOM     21  H   UNL d   1      24.517 -14.057  -2.019  0.00  0.00     0.318 HD
ATOM     22  H   UNL d   1      28.084 -15.700   0.572  0.00  0.00     0.169 HD
ENDROOT
BRANCH   1  23
ATOM     23  C   UNL d   1      25.953 -12.118  -3.887  0.00  0.00     0.045 C 
BRANCH  23  24
ATOM     24  C   UNL d   1      27.129 -11.892  -2.961  0.00  0.00     0.105 C 
BRANCH  24  25
ATOM     25  C   UNL d   1      28.438 -11.759  -3.682  0.00  0.00     0.215 C 
ATOM     26  N   UNL d   1      29.272 -12.826  -3.513  0.00  0.00    -0.370 N 
ATOM     27  H   UNL d   1      30.206 -12.725  -3.882  0.00  0.00     0.159 HD
ATOM     28  H   UNL d   1      29.103 -13.545  -2.820  0.00  0.00     0.159 HD
ATOM     29  O   UNL d   1      28.777 -10.785  -4.341  0.00  0.00    -0.274 OA
ENDBRANCH  24  25
ENDBRANCH  23  24
ENDBRANCH   1  23
BRANCH  17  30
ATOM     30  C   UNL d   1      30.063 -15.563  -5.295  0.00  0.00     0.175 C 
BRANCH  30  31
ATOM     31  C   UNL d   1      30.552 -16.864  -5.892  0.00  0.00    -0.018 C 
ATOM     32  C   UNL d   1      30.780 -16.864  -7.269  0.00  0.00     0.010 C 
ATOM     33  C   UNL d   1      31.104 -18.037  -7.946  0.00  0.00     0.001 C 
ATOM     34  C   UNL d   1      31.379 -19.203  -7.241  0.00  0.00     0.002 C 
ATOM     35  C   UNL d   1      31.364 -19.179  -5.849  0.00  0.00     0.024 C 
ATOM     36  C   UNL d   1      30.900 -18.035  -5.176  0.00  0.00     0.042 C 
ATOM     37 CL   UNL d   1      30.780 -18.160  -3.455  0.00  0.00    -0.084 Cl
ENDBRANCH  30  31
ENDBRANCH  17  30
TORSDOF 5
ENDMDL
MODEL 8
REMARK VINA RESULT:    -7.687      2.769      5.612
REMARK INTER + INTRA:         -11.595
REMARK INTER:                  -9.178
REMARK INTRA:                  -2.417
REMARK CONF_INDEPENDENT:        1.492
REMARK UNBOUND:                -2.417
REMARK  5 active torsions:
REMARK  status: ('A' for Active; 'I' for Inactive)
REMARK       I    between atoms: N_1  and  C_2 
REMARK    1  A    between atoms: C_2  and  C_4 
REMARK    2  A    between atoms: C_4  and  C_5 
REMARK    3  A    between atoms: C_6  and  C_5 
REMARK    4  A    between atoms: N_22  and  C_23 
REMARK    5  A    between atoms: C_23  and  C_24 
ROOT
ATOM      1  C   UNL d   1      29.211 -12.114  -3.436  0.00  0.00     0.237 A 
ATOM      2  N   UNL d   1      29.703 -12.472  -4.769  0.00  0.00     0.113 N 
ATOM      3  C   UNL d   1      29.358 -13.858  -5.045  0.00  0.00     0.279 A 
ATOM      4  C   UNL d   1      28.437 -13.906  -6.313  0.00  0.00     0.267 C 
ATOM      5  O   UNL d   1      27.410 -13.277  -6.509  0.00  0.00    -0.270 OA
ATOM      6  N   UNL d   1      29.009 -14.827  -7.183  0.00  0.00    -0.324 N 
ATOM      7  C   UNL d   1      30.261 -15.230  -6.745  0.00  0.00     0.044 A 
ATOM      8  C   UNL d   1      31.161 -16.031  -7.409  0.00  0.00     0.032 A 
ATOM      9  C   UNL d   1      32.398 -16.259  -6.796  0.00  0.00     0.026 A 
ATOM     10  C   UNL d   1      32.694 -15.696  -5.542  0.00  0.00     0.034 A 
ATOM     11 CL   UNL d   1      34.226 -15.998  -4.816  0.00  0.00    -0.084 Cl
ATOM     12  C   UNL d   1      31.767 -14.894  -4.877  0.00  0.00     0.036 A 
ATOM     13  C   UNL d   1      30.547 -14.665  -5.502  0.00  0.00     0.019 A 
ATOM     14  C   UNL d   1      28.755 -14.461  -3.794  0.00  0.00     0.147 A 
ATOM     15  C   UNL d   1      27.352 -14.965  -3.962  0.00  0.00     0.235 C 
ATOM     16  O   UNL d   1      26.873 -15.444  -4.962  0.00  0.00    -0.272 OA
ATOM     17  N   UNL d   1      26.694 -14.850  -2.778  0.00  0.00    -0.283 N 
ATOM     18  C   UNL d   1      27.201 -13.734  -2.154  0.00  0.00     0.234 C 
ATOM     19  O   UNL d   1      26.659 -13.131  -1.237  0.00  0.00    -0.272 OA
ATOM     20  C   UNL d   1      28.637 -13.387  -2.736  0.00  0.00     0.128 A 
ATOM     21  H   UNL d   1      30.685 -12.264  -4.938  0.00  0.00     0.318 HD
ATOM     22  H   UNL d   1      28.557 -15.082  -8.047  0.00  0.00     0.169 HD
ENDROOT
BRANCH   1  23
ATOM     23  C   UNL d   1      28.301 -10.907  -3.602  0.00  0.00     0.045 C 
BRANCH  23  24
ATOM     24  C   UNL d   1      27.349 -11.125  -4.758  0.00  0.00     0.105 C 
BRANCH  24  25
ATOM     25  C   UNL d   1      25.930 -11.354  -4.326  0.00  0.00     0.215 C 
ATOM     26  N   UNL d   1      25.492 -12.631  -4.527  0.00  0.00    -0.370 N 
ATOM     27  H   UNL d   1      24.509 -12.797  -4.361  0.00  0.00     0.159 HD
ATOM     28  H   UNL d   1      26.006 -13.302  -5.084  0.00  0.00     0.159 HD
ATOM     29  O   UNL d   1      25.192 -10.493  -3.866  0.00  0.00    -0.274 OA
ENDBRANCH  24  25
ENDBRANCH  23  24
ENDBRANCH   1  23
BRANCH  17  30
ATOM     30  C   UNL d   1      25.364 -15.534  -2.760  0.00  0.00     0.175 C 
BRANCH  30  31
ATOM     31  C   UNL d   1      25.006 -16.497  -1.650  0.00  0.00    -0.018 C 
ATOM     32  C   UNL d   1      23.654 -16.825  -1.528  0.00  0.00     0.010 C 
ATOM     33  C   UNL d   1      23.192 -17.595  -0.465  0.00  0.00     0.001 C 
ATOM     34  C   UNL d   1      24.089 -18.203   0.406  0.00  0.00     0.002 C 
ATOM     35  C   UNL d   1      25.456 -18.064   0.184  0.00  0.00     0.024 C 
ATOM     36  C   UNL d   1      25.916 -17.173  -0.802  0.00  0.00     0.042 C 
ATOM     37 CL   UNL d   1      27.630 -16.961  -0.897  0.00  0.00    -0.084 Cl
ENDBRANCH  30  31
ENDBRANCH  17  30
TORSDOF 5
ENDMDL
MODEL 9
REMARK VINA RESULT:    -7.067      3.200      7.291
REMARK INTER + INTRA:         -11.175
REMARK INTER:                  -8.559
REMARK INTRA:                  -2.616
REMARK CONF_INDEPENDENT:        1.492
REMARK UNBOUND:                -2.616
REMARK  5 active torsions:
REMARK  status: ('A' for Active; 'I' for Inactive)
REMARK       I    between atoms: N_1  and  C_2 
REMARK    1  A    between atoms: C_2  and  C_4 
REMARK    2  A    between atoms: C_4  and  C_5 
REMARK    3  A    between atoms: C_6  and  C_5 
REMARK    4  A    between atoms: N_22  and  C_23 
REMARK    5  A    between atoms: C_23  and  C_24 
ROOT
ATOM      1  C   UNL d   1      25.435 -13.600  -3.813  0.00  0.00     0.237 A 
ATOM      2  N   UNL d   1      25.391 -13.976  -2.398  0.00  0.00     0.113 N 
ATOM      3  C   UNL d   1      26.256 -15.128  -2.187  0.00  0.00     0.279 A 
ATOM      4  C   UNL d   1      27.375 -14.735  -1.162  0.00  0.00     0.267 C 
ATOM      5  O   UNL d   1      28.128 -13.776  -1.215  0.00  0.00    -0.270 OA
ATOM      6  N   UNL d   1      27.362 -15.711  -0.170  0.00  0.00    -0.324 N 
ATOM      7  C   UNL d   1      26.275 -16.558  -0.306  0.00  0.00     0.044 A 
ATOM      8  C   UNL d   1      25.877 -17.553   0.558  0.00  0.00     0.032 A 
ATOM      9  C   UNL d   1      24.704 -18.250   0.246  0.00  0.00     0.026 A 
ATOM     10  C   UNL d   1      23.973 -17.943  -0.916  0.00  0.00     0.034 A 
ATOM     11 CL   UNL d   1      22.535 -18.821  -1.270  0.00  0.00    -0.084 Cl
ATOM     12  C   UNL d   1      24.395 -16.938  -1.786  0.00  0.00     0.036 A 
ATOM     13  C   UNL d   1      25.554 -16.247  -1.459  0.00  0.00     0.019 A 
ATOM     14  C   UNL d   1      26.760 -15.602  -3.533  0.00  0.00     0.147 A 
ATOM     15  C   UNL d   1      28.253 -15.575  -3.682  0.00  0.00     0.235 C 
ATOM     16  O   UNL d   1      29.067 -15.763  -2.810  0.00  0.00    -0.272 OA
ATOM     17  N   UNL d   1      28.566 -15.354  -4.986  0.00  0.00    -0.283 N 
ATOM     18  C   UNL d   1      27.576 -14.544  -5.495  0.00  0.00     0.234 C 
ATOM     19  O   UNL d   1      27.666 -13.881  -6.520  0.00  0.00    -0.272 OA
ATOM     20  C   UNL d   1      26.265 -14.658  -4.606  0.00  0.00     0.128 A 
ATOM     21  H   UNL d   1      24.457 -14.104  -2.013  0.00  0.00     0.318 HD
ATOM     22  H   UNL d   1      28.044 -15.712   0.572  0.00  0.00     0.169 HD
ENDROOT
BRANCH   1  23
ATOM     23  C   UNL d   1      25.868 -12.144  -3.877  0.00  0.00     0.045 C 
BRANCH  23  24
ATOM     24  C   UNL d   1      27.063 -11.914  -2.976  0.00  0.00     0.105 C 
BRANCH  24  25
ATOM     25  C   UNL d   1      28.360 -11.802  -3.723  0.00  0.00     0.215 C 
ATOM     26  N   UNL d   1      29.212 -12.847  -3.508  0.00  0.00    -0.370 N 
ATOM     27  H   UNL d   1      30.140 -12.753  -3.895  0.00  0.00     0.159 HD
ATOM     28  H   UNL d   1      29.064 -13.529  -2.774  0.00  0.00     0.159 HD
ATOM     29  O   UNL d   1      28.675 -10.862  -4.439  0.00  0.00    -0.274 OA
ENDBRANCH  24  25
ENDBRANCH  23  24
ENDBRANCH   1  23
BRANCH  17  30
ATOM     30  C   UNL d   1      30.017 -15.538  -5.296  0.00  0.00     0.175 C 
BRANCH  30  31
ATOM     31  C   UNL d   1      30.675 -14.749  -6.407  0.00  0.00    -0.018 C 
ATOM     32  C   UNL d   1      30.528 -13.362  -6.350  0.00  0.00     0.010 C 
ATOM     33  C   UNL d   1      30.976 -12.547  -7.386  0.00  0.00     0.001 C 
ATOM     34  C   UNL d   1      31.738 -13.078  -8.421  0.00  0.00     0.002 C 
ATOM     35  C   UNL d   1      32.079 -14.427  -8.394  0.00  0.00     0.024 C 
ATOM     36  C   UNL d   1      31.507 -15.272  -7.426  0.00  0.00     0.042 C 
ATOM     37 CL   UNL d   1      31.878 -16.956  -7.570  0.00  0.00    -0.084 Cl
ENDBRANCH  30  31
ENDBRANCH  17  30
TORSDOF 5
ENDMDL
