MODEL 1
REMARK VINA RESULT:    -7.199      0.000      0.000
REMARK INTER + INTRA:         -11.531
REMARK INTER:                 -10.480
REMARK INTRA:                  -1.051
REMARK CONF_INDEPENDENT:        3.281
REMARK UNBOUND:                -1.051
REMARK  11 active torsions:
REMARK  status: ('A' for Active; 'I' for Inactive)
REMARK    1  A    between atoms: O_2  and  C_3 
REMARK    2  A    between atoms: C_5  and  O_6 
REMARK    3  A    between atoms: C_8  and  O_9 
REMARK    4  A    between atoms: C_12  and  C_13 
REMARK    5  A    between atoms: C_14  and  C_15 
REMARK       I    between atoms: C_15  and  N_17 
REMARK    6  A    between atoms: N_17  and  N_18 
REMARK    7  A    between atoms: N_18  and  C_19 
REMARK    8  A    between atoms: C_19  and  N_21 
REMARK    9  A    between atoms: N_21  and  C_22 
REMARK   10  A    between atoms: C_22  and  C_23 
REMARK   11  A    between atoms: C_23  and  C_24 
ROOT
ATOM      1  C   UNL d   1      25.088 -17.036  -0.256  0.00  0.00     0.259 C 
ATOM      2  O   UNL d   1      25.358 -17.847   0.639  0.00  0.00    -0.267 OA
ATOM      3  N   UNL d   1      23.794 -16.575  -0.485  0.00  0.00    -0.264 N 
ATOM      4  H   UNL d   1      23.557 -15.785  -1.087  0.00  0.00     0.190 HD
ENDROOT
BRANCH   1   5
ATOM      5  C   UNL d   1      26.164 -16.428  -1.114  0.00  0.00     0.076 C 
ATOM      6  C   UNL d   1      25.876 -15.713  -2.226  0.00  0.00     0.020 C 
BRANCH   6   7
ATOM      7  C   UNL d   1      26.797 -15.473  -3.383  0.00  0.00     0.000 C 
ATOM      8  C   UNL d   1      28.182 -15.714  -3.186  0.00  0.00     0.054 C 
ATOM      9  C   UNL d   1      29.141 -15.555  -4.207  0.00  0.00     0.102 C 
ATOM     10  C   UNL d   1      28.717 -15.204  -5.495  0.00  0.00     0.104 C 
ATOM     11  C   UNL d   1      27.368 -14.839  -5.675  0.00  0.00     0.077 C 
ATOM     12  C   UNL d   1      26.417 -14.932  -4.627  0.00  0.00     0.081 C 
BRANCH   9  13
ATOM     13  O   UNL d   1      30.487 -15.702  -4.019  0.00  0.00    -0.353 OA
ATOM     14  C   UNL d   1      31.145 -15.027  -2.966  0.00  0.00     0.210 C 
ENDBRANCH   9  13
BRANCH  10  15
ATOM     15  O   UNL d   1      29.494 -15.189  -6.637  0.00  0.00    -0.353 OA
ATOM     16  C   UNL d   1      30.064 -13.935  -7.037  0.00  0.00     0.210 C 
ENDBRANCH  10  15
BRANCH  12  17
ATOM     17  O   UNL d   1      25.129 -14.617  -4.991  0.00  0.00    -0.355 OA
ATOM     18  C   UNL d   1      24.387 -13.695  -4.188  0.00  0.00     0.210 C 
ENDBRANCH  12  17
ENDBRANCH   6   7
ENDBRANCH   1   5
BRANCH   3  19
ATOM     19  N   UNL d   1      22.673 -17.217   0.165  0.00  0.00    -0.274 N 
ATOM     20  H   UNL d   1      22.333 -16.730   0.991  0.00  0.00     0.189 HD
BRANCH  19  21
ATOM     21  C   UNL d   1      22.242 -18.493  -0.201  0.00  0.00     0.186 C 
ATOM     22  S   UNL d   1      23.285 -19.632  -0.869  0.00  0.00    -0.040 SA
BRANCH  21  23
ATOM     23  N   UNL d   1      20.880 -18.724   0.020  0.00  0.00    -0.366 N 
ATOM     24  H   UNL d   1      20.465 -18.446   0.899  0.00  0.00     0.161 HD
BRANCH  23  25
ATOM     25  C   UNL d   1      20.014 -19.457  -0.924  0.00  0.00     0.122 C 
BRANCH  25  26
ATOM     26  C   UNL d   1      18.695 -20.001  -0.354  0.00  0.00     0.023 C 
BRANCH  26  27
ATOM     27  C   UNL d   1      18.925 -21.052   0.765  0.00  0.00    -0.021 C 
ATOM     28  C   UNL d   1      19.332 -20.403   2.091  0.00  0.00     0.009 C 
ATOM     29  C   UNL d   1      17.663 -21.890   0.990  0.00  0.00     0.009 C 
ENDBRANCH  26  27
ENDBRANCH  25  26
ENDBRANCH  23  25
ENDBRANCH  21  23
ENDBRANCH  19  21
ENDBRANCH   3  19
TORSDOF 11
ENDMDL
MODEL 2
REMARK VINA RESULT:    -7.085      1.835      2.793
REMARK INTER + INTRA:         -11.847
REMARK INTER:                 -10.366
REMARK INTRA:                  -1.481
REMARK CONF_INDEPENDENT:        3.281
REMARK UNBOUND:                -1.481
REMARK  11 active torsions:
REMARK  status: ('A' for Active; 'I' for Inactive)
REMARK    1  A    between atoms: O_2  and  C_3 
REMARK    2  A    between atoms: C_5  and  O_6 
REMARK    3  A    between atoms: C_8  and  O_9 
REMARK    4  A    between atoms: C_12  and  C_13 
REMARK    5  A    between atoms: C_14  and  C_15 
REMARK       I    between atoms: C_15  and  N_17 
REMARK    6  A    between atoms: N_17  and  N_18 
REMARK    7  A    between atoms: N_18  and  C_19 
REMARK    8  A    between atoms: C_19  and  N_21 
REMARK    9  A    between atoms: N_21  and  C_22 
REMARK   10  A    between atoms: C_22  and  C_23 
REMARK   11  A    between atoms: C_23  and  C_24 
ROOT
ATOM      1  C   UNL d   1      25.051 -15.065  -2.862  0.00  0.00     0.259 C 
ATOM      2  O   UNL d   1      24.089 -14.351  -3.169  0.00  0.00    -0.267 OA
ATOM      3  N   UNL d   1      24.919 -16.200  -2.068  0.00  0.00    -0.264 N 
ATOM      4  H   UNL d   1      25.645 -16.906  -1.937  0.00  0.00     0.190 HD
ENDROOT
BRANCH   1   5
ATOM      5  C   UNL d   1      26.432 -14.794  -3.396  0.00  0.00     0.076 C 
ATOM      6  C   UNL d   1      26.744 -14.973  -4.700  0.00  0.00     0.020 C 
BRANCH   6   7
ATOM      7  C   UNL d   1      28.117 -15.201  -5.255  0.00  0.00     0.000 C 
ATOM      8  C   UNL d   1      28.900 -16.234  -4.676  0.00  0.00     0.054 C 
ATOM      9  C   UNL d   1      30.193 -16.563  -5.132  0.00  0.00     0.102 C 
ATOM     10  C   UNL d   1      30.717 -15.893  -6.245  0.00  0.00     0.104 C 
ATOM     11  C   UNL d   1      30.009 -14.784  -6.748  0.00  0.00     0.077 C 
ATOM     12  C   UNL d   1      28.738 -14.410  -6.241  0.00  0.00     0.081 C 
BRANCH   9  13
ATOM     13  O   UNL d   1      30.996 -17.497  -4.540  0.00  0.00    -0.353 OA
ATOM     14  C   UNL d   1      30.762 -18.876  -4.737  0.00  0.00     0.210 C 
ENDBRANCH   9  13
BRANCH  10  15
ATOM     15  O   UNL d   1      31.875 -16.217  -6.925  0.00  0.00    -0.353 OA
ATOM     16  C   UNL d   1      32.187 -15.464  -8.105  0.00  0.00     0.210 C 
ENDBRANCH  10  15
BRANCH  12  17
ATOM     17  O   UNL d   1      28.146 -13.357  -6.896  0.00  0.00    -0.355 OA
ATOM     18  C   UNL d   1      28.806 -12.782  -8.028  0.00  0.00     0.210 C 
ENDBRANCH  12  17
ENDBRANCH   6   7
ENDBRANCH   1   5
BRANCH   3  19
ATOM     19  N   UNL d   1      23.678 -16.453  -1.370  0.00  0.00    -0.274 N 
ATOM     20  H   UNL d   1      22.964 -15.743  -1.514  0.00  0.00     0.189 HD
BRANCH  19  21
ATOM     21  C   UNL d   1      23.558 -17.476  -0.427  0.00  0.00     0.186 C 
ATOM     22  S   UNL d   1      24.901 -18.202   0.280  0.00  0.00    -0.040 SA
BRANCH  21  23
ATOM     23  N   UNL d   1      22.238 -17.846  -0.145  0.00  0.00    -0.366 N 
ATOM     24  H   UNL d   1      21.790 -17.487   0.688  0.00  0.00     0.161 HD
BRANCH  23  25
ATOM     25  C   UNL d   1      21.478 -18.826  -0.943  0.00  0.00     0.122 C 
BRANCH  25  26
ATOM     26  C   UNL d   1      20.030 -19.086  -0.501  0.00  0.00     0.023 C 
BRANCH  26  27
ATOM     27  C   UNL d   1      19.932 -20.203   0.573  0.00  0.00    -0.021 C 
ATOM     28  C   UNL d   1      20.250 -19.680   1.978  0.00  0.00     0.009 C 
ATOM     29  C   UNL d   1      18.535 -20.828   0.581  0.00  0.00     0.009 C 
ENDBRANCH  26  27
ENDBRANCH  25  26
ENDBRANCH  23  25
ENDBRANCH  21  23
ENDBRANCH  19  21
ENDBRANCH   3  19
TORSDOF 11
ENDMDL
MODEL 3
REMARK VINA RESULT:    -7.005      6.894      9.031
REMARK INTER + INTRA:         -11.392
REMARK INTER:                 -10.286
REMARK INTRA:                  -1.106
REMARK CONF_INDEPENDENT:        3.281
REMARK UNBOUND:                -1.106
REMARK  11 active torsions:
REMARK  status: ('A' for Active; 'I' for Inactive)
REMARK    1  A    between atoms: O_2  and  C_3 
REMARK    2  A    between atoms: C_5  and  O_6 
REMARK    3  A    between atoms: C_8  and  O_9 
REMARK    4  A    between atoms: C_12  and  C_13 
REMARK    5  A    between atoms: C_14  and  C_15 
REMARK       I    between atoms: C_15  and  N_17 
REMARK    6  A    between atoms: N_17  and  N_18 
REMARK    7  A    between atoms: N_18  and  C_19 
REMARK    8  A    between atoms: C_19  and  N_21 
REMARK    9  A    between atoms: N_21  and  C_22 
REMARK   10  A    between atoms: C_22  and  C_23 
REMARK   11  A    between atoms: C_23  and  C_24 
ROOT
ATOM      1  C   UNL d   1      27.718 -14.421   3.680  0.00  0.00     0.259 C 
ATOM      2  O   UNL d   1      26.870 -13.705   4.226  0.00  0.00    -0.267 OA
ATOM      3  N   UNL d   1      28.619 -15.200   4.400  0.00  0.00    -0.264 N 
ATOM      4  H   UNL d   1      29.209 -15.929   3.997  0.00  0.00     0.190 HD
ENDROOT
BRANCH   1   5
ATOM      5  C   UNL d   1      27.781 -14.559   2.182  0.00  0.00     0.076 C 
ATOM      6  C   UNL d   1      27.009 -13.811   1.360  0.00  0.00     0.020 C 
BRANCH   6   7
ATOM      7  C   UNL d   1      26.627 -14.157  -0.047  0.00  0.00     0.000 C 
ATOM      8  C   UNL d   1      26.044 -15.430  -0.279  0.00  0.00     0.054 C 
ATOM      9  C   UNL d   1      25.616 -15.857  -1.553  0.00  0.00     0.102 C 
ATOM     10  C   UNL d   1      25.704 -14.972  -2.635  0.00  0.00     0.104 C 
ATOM     11  C   UNL d   1      26.393 -13.758  -2.448  0.00  0.00     0.077 C 
ATOM     12  C   UNL d   1      26.887 -13.361  -1.180  0.00  0.00     0.081 C 
BRANCH   9  13
ATOM     13  O   UNL d   1      25.128 -17.106  -1.815  0.00  0.00    -0.353 OA
ATOM     14  C   UNL d   1      24.038 -17.622  -1.079  0.00  0.00     0.210 C 
ENDBRANCH   9  13
BRANCH  10  15
ATOM     15  O   UNL d   1      25.165 -15.162  -3.893  0.00  0.00    -0.353 OA
ATOM     16  C   UNL d   1      26.069 -15.199  -5.006  0.00  0.00     0.210 C 
ENDBRANCH  10  15
BRANCH  12  17
ATOM     17  O   UNL d   1      27.462 -12.113  -1.152  0.00  0.00    -0.355 OA
ATOM     18  C   UNL d   1      28.853 -11.994  -0.844  0.00  0.00     0.210 C 
ENDBRANCH  12  17
ENDBRANCH   6   7
ENDBRANCH   1   5
BRANCH   3  19
ATOM     19  N   UNL d   1      28.754 -15.013   5.828  0.00  0.00    -0.274 N 
ATOM     20  H   UNL d   1      28.434 -15.801   6.386  0.00  0.00     0.189 HD
BRANCH  19  21
ATOM     21  C   UNL d   1      29.102 -13.779   6.380  0.00  0.00     0.186 C 
ATOM     22  S   UNL d   1      28.023 -12.488   6.434  0.00  0.00    -0.040 SA
BRANCH  21  23
ATOM     23  N   UNL d   1      30.415 -13.713   6.858  0.00  0.00    -0.366 N 
ATOM     24  H   UNL d   1      31.184 -13.740   6.201  0.00  0.00     0.161 HD
BRANCH  23  25
ATOM     25  C   UNL d   1      30.761 -13.711   8.292  0.00  0.00     0.122 C 
BRANCH  25  26
ATOM     26  C   UNL d   1      29.791 -14.450   9.226  0.00  0.00     0.023 C 
BRANCH  26  27
ATOM     27  C   UNL d   1      29.108 -13.495  10.243  0.00  0.00    -0.021 C 
ATOM     28  C   UNL d   1      28.851 -12.108   9.646  0.00  0.00     0.009 C 
ATOM     29  C   UNL d   1      27.780 -14.080  10.729  0.00  0.00     0.009 C 
ENDBRANCH  26  27
ENDBRANCH  25  26
ENDBRANCH  23  25
ENDBRANCH  21  23
ENDBRANCH  19  21
ENDBRANCH   3  19
TORSDOF 11
ENDMDL
MODEL 4
REMARK VINA RESULT:    -6.918      2.462      3.548
REMARK INTER + INTRA:         -11.298
REMARK INTER:                 -10.199
REMARK INTRA:                  -1.099
REMARK CONF_INDEPENDENT:        3.281
REMARK UNBOUND:                -1.099
REMARK  11 active torsions:
REMARK  status: ('A' for Active; 'I' for Inactive)
REMARK    1  A    between atoms: O_2  and  C_3 
REMARK    2  A    between atoms: C_5  and  O_6 
REMARK    3  A    between atoms: C_8  and  O_9 
REMARK    4  A    between atoms: C_12  and  C_13 
REMARK    5  A    between atoms: C_14  and  C_15 
REMARK       I    between atoms: C_15  and  N_17 
REMARK    6  A    between atoms: N_17  and  N_18 
REMARK    7  A    between atoms: N_18  and  C_19 
REMARK    8  A    between atoms: C_19  and  N_21 
REMARK    9  A    between atoms: N_21  and  C_22 
REMARK   10  A    between atoms: C_22  and  C_23 
REMARK   11  A    between atoms: C_23  and  C_24 
ROOT
ATOM      1  C   UNL d   1      25.045 -16.270  -2.421  0.00  0.00     0.259 C 
ATOM      2  O   UNL d   1      24.780 -17.450  -2.681  0.00  0.00    -0.267 OA
ATOM      3  N   UNL d   1      24.517 -15.610  -1.315  0.00  0.00    -0.264 N 
ATOM      4  H   UNL d   1      24.842 -14.706  -0.968  0.00  0.00     0.190 HD
ENDROOT
BRANCH   1   5
ATOM      5  C   UNL d   1      26.027 -15.486  -3.248  0.00  0.00     0.076 C 
ATOM      6  C   UNL d   1      25.913 -14.148  -3.419  0.00  0.00     0.020 C 
BRANCH   6   7
ATOM      7  C   UNL d   1      26.495 -13.350  -4.545  0.00  0.00     0.000 C 
ATOM      8  C   UNL d   1      26.204 -11.961  -4.590  0.00  0.00     0.054 C 
ATOM      9  C   UNL d   1      26.719 -11.102  -5.582  0.00  0.00     0.102 C 
ATOM     10  C   UNL d   1      27.609 -11.613  -6.534  0.00  0.00     0.104 C 
ATOM     11  C   UNL d   1      27.807 -13.007  -6.581  0.00  0.00     0.077 C 
ATOM     12  C   UNL d   1      27.230 -13.880  -5.624  0.00  0.00     0.081 C 
BRANCH   9  13
ATOM     13  O   UNL d   1      26.388  -9.780  -5.692  0.00  0.00    -0.353 OA
ATOM     14  C   UNL d   1      25.106  -9.395  -6.145  0.00  0.00     0.210 C 
ENDBRANCH   9  13
BRANCH  10  15
ATOM     15  O   UNL d   1      28.339 -10.878  -7.449  0.00  0.00    -0.353 OA
ATOM     16  C   UNL d   1      29.624 -10.391  -7.037  0.00  0.00     0.210 C 
ENDBRANCH  10  15
BRANCH  12  17
ATOM     17  O   UNL d   1      27.589 -15.200  -5.761  0.00  0.00    -0.355 OA
ATOM     18  C   UNL d   1      28.906 -15.606  -5.379  0.00  0.00     0.210 C 
ENDBRANCH  12  17
ENDBRANCH   6   7
ENDBRANCH   1   5
BRANCH   3  19
ATOM     19  N   UNL d   1      23.443 -16.213  -0.558  0.00  0.00    -0.274 N 
ATOM     20  H   UNL d   1      22.680 -15.579  -0.334  0.00  0.00     0.189 HD
BRANCH  19  21
ATOM     21  C   UNL d   1      23.553 -17.495  -0.016  0.00  0.00     0.186 C 
ATOM     22  S   UNL d   1      25.045 -18.216   0.279  0.00  0.00    -0.040 SA
BRANCH  21  23
ATOM     23  N   UNL d   1      22.327 -18.121   0.235  0.00  0.00    -0.366 N 
ATOM     24  H   UNL d   1      21.773 -17.824   1.028  0.00  0.00     0.161 HD
BRANCH  23  25
ATOM     25  C   UNL d   1      21.829 -19.278  -0.533  0.00  0.00     0.122 C 
BRANCH  25  26
ATOM     26  C   UNL d   1      20.310 -19.506  -0.509  0.00  0.00     0.023 C 
BRANCH  26  27
ATOM     27  C   UNL d   1      19.867 -20.403   0.678  0.00  0.00    -0.021 C 
ATOM     28  C   UNL d   1      20.040 -19.700   2.027  0.00  0.00     0.009 C 
ATOM     29  C   UNL d   1      18.403 -20.825   0.522  0.00  0.00     0.009 C 
ENDBRANCH  26  27
ENDBRANCH  25  26
ENDBRANCH  23  25
ENDBRANCH  21  23
ENDBRANCH  19  21
ENDBRANCH   3  19
TORSDOF 11
ENDMDL
MODEL 5
REMARK VINA RESULT:    -6.846      2.092      3.759
REMARK INTER + INTRA:         -11.588
REMARK INTER:                 -10.127
REMARK INTRA:                  -1.460
REMARK CONF_INDEPENDENT:        3.281
REMARK UNBOUND:                -1.460
REMARK  11 active torsions:
REMARK  status: ('A' for Active; 'I' for Inactive)
REMARK    1  A    between atoms: O_2  and  C_3 
REMARK    2  A    between atoms: C_5  and  O_6 
REMARK    3  A    between atoms: C_8  and  O_9 
REMARK    4  A    between atoms: C_12  and  C_13 
REMARK    5  A    between atoms: C_14  and  C_15 
REMARK       I    between atoms: C_15  and  N_17 
REMARK    6  A    between atoms: N_17  and  N_18 
REMARK    7  A    between atoms: N_18  and  C_19 
REMARK    8  A    between atoms: C_19  and  N_21 
REMARK    9  A    between atoms: N_21  and  C_22 
REMARK   10  A    between atoms: C_22  and  C_23 
REMARK   11  A    between atoms: C_23  and  C_24 
ROOT
ATOM      1  C   UNL d   1      25.089 -15.234  -3.106  0.00  0.00     0.259 C 
ATOM      2  O   UNL d   1      24.150 -14.434  -3.208  0.00  0.00    -0.267 OA
ATOM      3  N   UNL d   1      25.044 -16.340  -2.263  0.00  0.00    -0.264 N 
ATOM      4  H   UNL d   1      25.713 -17.111  -2.279  0.00  0.00     0.190 HD
ENDROOT
BRANCH   1   5
ATOM      5  C   UNL d   1      26.325 -15.105  -3.956  0.00  0.00     0.076 C 
ATOM      6  C   UNL d   1      26.782 -13.904  -4.379  0.00  0.00     0.020 C 
BRANCH   6   7
ATOM      7  C   UNL d   1      27.666 -13.665  -5.565  0.00  0.00     0.000 C 
ATOM      8  C   UNL d   1      27.574 -12.405  -6.213  0.00  0.00     0.054 C 
ATOM      9  C   UNL d   1      28.375 -12.052  -7.318  0.00  0.00     0.102 C 
ATOM     10  C   UNL d   1      29.353 -12.948  -7.769  0.00  0.00     0.104 C 
ATOM     11  C   UNL d   1      29.369 -14.246  -7.221  0.00  0.00     0.077 C 
ATOM     12  C   UNL d   1      28.513 -14.623  -6.155  0.00  0.00     0.081 C 
BRANCH   9  13
ATOM     13  O   UNL d   1      28.249 -10.878  -8.007  0.00  0.00    -0.353 OA
ATOM     14  C   UNL d   1      29.110  -9.791  -7.741  0.00  0.00     0.210 C 
ENDBRANCH   9  13
BRANCH  10  15
ATOM     15  O   UNL d   1      30.333 -12.686  -8.707  0.00  0.00    -0.353 OA
ATOM     16  C   UNL d   1      29.913 -12.202  -9.990  0.00  0.00     0.210 C 
ENDBRANCH  10  15
BRANCH  12  17
ATOM     17  O   UNL d   1      28.713 -15.898  -5.682  0.00  0.00    -0.355 OA
ATOM     18  C   UNL d   1      30.022 -16.469  -5.755  0.00  0.00     0.210 C 
ENDBRANCH  12  17
ENDBRANCH   6   7
ENDBRANCH   1   5
BRANCH   3  19
ATOM     19  N   UNL d   1      23.983 -16.462  -1.288  0.00  0.00    -0.274 N 
ATOM     20  H   UNL d   1      23.353 -15.664  -1.251  0.00  0.00     0.189 HD
BRANCH  19  21
ATOM     21  C   UNL d   1      23.961 -17.494  -0.349  0.00  0.00     0.186 C 
ATOM     22  S   UNL d   1      25.372 -18.198   0.240  0.00  0.00    -0.040 SA
BRANCH  21  23
ATOM     23  N   UNL d   1      22.676 -17.894   0.036  0.00  0.00    -0.366 N 
ATOM     24  H   UNL d   1      22.166 -17.341   0.711  0.00  0.00     0.161 HD
BRANCH  23  25
ATOM     25  C   UNL d   1      22.047 -19.153  -0.408  0.00  0.00     0.122 C 
BRANCH  25  26
ATOM     26  C   UNL d   1      20.596 -19.050  -0.902  0.00  0.00     0.023 C 
BRANCH  26  27
ATOM     27  C   UNL d   1      19.568 -19.326   0.228  0.00  0.00    -0.021 C 
ATOM     28  C   UNL d   1      18.592 -20.447  -0.143  0.00  0.00     0.009 C 
ATOM     29  C   UNL d   1      20.280 -19.699   1.531  0.00  0.00     0.009 C 
ENDBRANCH  26  27
ENDBRANCH  25  26
ENDBRANCH  23  25
ENDBRANCH  21  23
ENDBRANCH  19  21
ENDBRANCH   3  19
TORSDOF 11
ENDMDL
MODEL 6
REMARK VINA RESULT:    -6.788      4.391      5.919
REMARK INTER + INTRA:         -11.246
REMARK INTER:                 -10.070
REMARK INTRA:                  -1.177
REMARK CONF_INDEPENDENT:        3.281
REMARK UNBOUND:                -1.177
REMARK  11 active torsions:
REMARK  status: ('A' for Active; 'I' for Inactive)
REMARK    1  A    between atoms: O_2  and  C_3 
REMARK    2  A    between atoms: C_5  and  O_6 
REMARK    3  A    between atoms: C_8  and  O_9 
REMARK    4  A    between atoms: C_12  and  C_13 
REMARK    5  A    between atoms: C_14  and  C_15 
REMARK       I    between atoms: C_15  and  N_17 
REMARK    6  A    between atoms: N_17  and  N_18 
REMARK    7  A    between atoms: N_18  and  C_19 
REMARK    8  A    between atoms: C_19  and  N_21 
REMARK    9  A    between atoms: N_21  and  C_22 
REMARK   10  A    between atoms: C_22  and  C_23 
REMARK   11  A    between atoms: C_23  and  C_24 
ROOT
ATOM      1  C   UNL d   1      25.846 -16.787  -0.721  0.00  0.00     0.259 C 
ATOM      2  O   UNL d   1      25.619 -16.904  -1.932  0.00  0.00    -0.267 OA
ATOM      3  N   UNL d   1      25.331 -17.665   0.228  0.00  0.00    -0.264 N 
ATOM      4  H   UNL d   1      25.632 -17.710   1.202  0.00  0.00     0.190 HD
ENDROOT
BRANCH   1   5
ATOM      5  C   UNL d   1      26.769 -15.720  -0.197  0.00  0.00     0.076 C 
ATOM      6  C   UNL d   1      27.405 -15.843   0.991  0.00  0.00     0.020 C 
BRANCH   6   7
ATOM      7  C   UNL d   1      27.940 -14.719   1.825  0.00  0.00     0.000 C 
ATOM      8  C   UNL d   1      27.812 -14.825   3.235  0.00  0.00     0.054 C 
ATOM      9  C   UNL d   1      28.304 -13.848   4.125  0.00  0.00     0.102 C 
ATOM     10  C   UNL d   1      29.008 -12.750   3.614  0.00  0.00     0.104 C 
ATOM     11  C   UNL d   1      29.033 -12.566   2.217  0.00  0.00     0.077 C 
ATOM     12  C   UNL d   1      28.474 -13.516   1.324  0.00  0.00     0.081 C 
BRANCH   9  13
ATOM     13  O   UNL d   1      28.121 -13.888   5.479  0.00  0.00    -0.353 OA
ATOM     14  C   UNL d   1      29.127 -14.404   6.326  0.00  0.00     0.210 C 
ENDBRANCH   9  13
BRANCH  10  15
ATOM     15  O   UNL d   1      29.707 -11.812   4.349  0.00  0.00    -0.353 OA
ATOM     16  C   UNL d   1      31.137 -11.810   4.238  0.00  0.00     0.210 C 
ENDBRANCH  10  15
BRANCH  12  17
ATOM     17  O   UNL d   1      28.655 -13.227  -0.008  0.00  0.00    -0.355 OA
ATOM     18  C   UNL d   1      27.623 -12.534  -0.715  0.00  0.00     0.210 C 
ENDBRANCH  12  17
ENDBRANCH   6   7
ENDBRANCH   1   5
BRANCH   3  19
ATOM     19  N   UNL d   1      24.307 -18.614  -0.148  0.00  0.00    -0.274 N 
ATOM     20  H   UNL d   1      24.660 -19.531  -0.409  0.00  0.00     0.189 HD
BRANCH  19  21
ATOM     21  C   UNL d   1      22.977 -18.229  -0.328  0.00  0.00     0.186 C 
ATOM     22  S   UNL d   1      22.530 -16.618  -0.520  0.00  0.00    -0.040 SA
BRANCH  21  23
ATOM     23  N   UNL d   1      22.064 -19.290  -0.315  0.00  0.00    -0.366 N 
ATOM     24  H   UNL d   1      22.272 -20.116   0.230  0.00  0.00     0.161 HD
BRANCH  23  25
ATOM     25  C   UNL d   1      20.844 -19.325  -1.144  0.00  0.00     0.122 C 
BRANCH  25  26
ATOM     26  C   UNL d   1      19.511 -19.418  -0.386  0.00  0.00     0.023 C 
BRANCH  26  27
ATOM     27  C   UNL d   1      19.550 -20.475   0.750  0.00  0.00    -0.021 C 
ATOM     28  C   UNL d   1      19.893 -19.852   2.106  0.00  0.00     0.009 C 
ATOM     29  C   UNL d   1      18.206 -21.200   0.863  0.00  0.00     0.009 C 
ENDBRANCH  26  27
ENDBRANCH  25  26
ENDBRANCH  23  25
ENDBRANCH  21  23
ENDBRANCH  19  21
ENDBRANCH   3  19
TORSDOF 11
ENDMDL
MODEL 7
REMARK VINA RESULT:    -6.618      1.839      3.321
REMARK INTER + INTRA:         -11.448
REMARK INTER:                  -9.899
REMARK INTRA:                  -1.549
REMARK CONF_INDEPENDENT:        3.281
REMARK UNBOUND:                -1.549
REMARK  11 active torsions:
REMARK  status: ('A' for Active; 'I' for Inactive)
REMARK    1  A    between atoms: O_2  and  C_3 
REMARK    2  A    between atoms: C_5  and  O_6 
REMARK    3  A    between atoms: C_8  and  O_9 
REMARK    4  A    between atoms: C_12  and  C_13 
REMARK    5  A    between atoms: C_14  and  C_15 
REMARK       I    between atoms: C_15  and  N_17 
REMARK    6  A    between atoms: N_17  and  N_18 
REMARK    7  A    between atoms: N_18  and  C_19 
REMARK    8  A    between atoms: C_19  and  N_21 
REMARK    9  A    between atoms: N_21  and  C_22 
REMARK   10  A    between atoms: C_22  and  C_23 
REMARK   11  A    between atoms: C_23  and  C_24 
ROOT
ATOM      1  C   UNL d   1      24.950 -14.837  -2.960  0.00  0.00     0.259 C 
ATOM      2  O   UNL d   1      23.923 -14.212  -3.251  0.00  0.00    -0.267 OA
ATOM      3  N   UNL d   1      24.936 -15.961  -2.139  0.00  0.00    -0.264 N 
ATOM      4  H   UNL d   1      25.722 -16.601  -2.018  0.00  0.00     0.190 HD
ENDROOT
BRANCH   1   5
ATOM      5  C   UNL d   1      26.287 -14.465  -3.542  0.00  0.00     0.076 C 
ATOM      6  C   UNL d   1      26.698 -14.925  -4.746  0.00  0.00     0.020 C 
BRANCH   6   7
ATOM      7  C   UNL d   1      28.118 -15.031  -5.212  0.00  0.00     0.000 C 
ATOM      8  C   UNL d   1      28.494 -14.282  -6.358  0.00  0.00     0.054 C 
ATOM      9  C   UNL d   1      29.807 -14.277  -6.873  0.00  0.00     0.102 C 
ATOM     10  C   UNL d   1      30.809 -14.984  -6.198  0.00  0.00     0.104 C 
ATOM     11  C   UNL d   1      30.428 -15.831  -5.138  0.00  0.00     0.077 C 
ATOM     12  C   UNL d   1      29.092 -15.890  -4.666  0.00  0.00     0.081 C 
BRANCH   9  13
ATOM     13  O   UNL d   1      30.173 -13.630  -8.020  0.00  0.00    -0.353 OA
ATOM     14  C   UNL d   1      29.509 -12.451  -8.425  0.00  0.00     0.210 C 
ENDBRANCH   9  13
BRANCH  10  15
ATOM     15  O   UNL d   1      32.165 -14.933  -6.459  0.00  0.00    -0.353 OA
ATOM     16  C   UNL d   1      32.608 -15.337  -7.762  0.00  0.00     0.210 C 
ENDBRANCH  10  15
BRANCH  12  17
ATOM     17  O   UNL d   1      28.904 -16.702  -3.573  0.00  0.00    -0.355 OA
ATOM     18  C   UNL d   1      30.009 -16.962  -2.703  0.00  0.00     0.210 C 
ENDBRANCH  12  17
ENDBRANCH   6   7
ENDBRANCH   1   5
BRANCH   3  19
ATOM     19  N   UNL d   1      23.741 -16.300  -1.399  0.00  0.00    -0.274 N 
ATOM     20  H   UNL d   1      22.979 -15.636  -1.507  0.00  0.00     0.189 HD
BRANCH  19  21
ATOM     21  C   UNL d   1      23.723 -17.337  -0.464  0.00  0.00     0.186 C 
ATOM     22  S   UNL d   1      25.137 -17.985   0.180  0.00  0.00    -0.040 SA
BRANCH  21  23
ATOM     23  N   UNL d   1      22.442 -17.790  -0.133  0.00  0.00    -0.366 N 
ATOM     24  H   UNL d   1      22.000 -17.453   0.712  0.00  0.00     0.161 HD
BRANCH  23  25
ATOM     25  C   UNL d   1      21.723 -18.828  -0.895  0.00  0.00     0.122 C 
BRANCH  25  26
ATOM     26  C   UNL d   1      20.236 -19.015  -0.553  0.00  0.00     0.023 C 
BRANCH  26  27
ATOM     27  C   UNL d   1      20.004 -20.167   0.461  0.00  0.00    -0.021 C 
ATOM     28  C   UNL d   1      20.170 -19.700   1.910  0.00  0.00     0.009 C 
ATOM     29  C   UNL d   1      18.605 -20.766   0.290  0.00  0.00     0.009 C 
ENDBRANCH  26  27
ENDBRANCH  25  26
ENDBRANCH  23  25
ENDBRANCH  21  23
ENDBRANCH  19  21
ENDBRANCH   3  19
TORSDOF 11
ENDMDL
MODEL 8
REMARK VINA RESULT:    -6.483      6.905      9.323
REMARK INTER + INTRA:         -11.509
REMARK INTER:                  -9.765
REMARK INTRA:                  -1.745
REMARK CONF_INDEPENDENT:        3.281
REMARK UNBOUND:                -1.745
REMARK  11 active torsions:
REMARK  status: ('A' for Active; 'I' for Inactive)
REMARK    1  A    between atoms: O_2  and  C_3 
REMARK    2  A    between atoms: C_5  and  O_6 
REMARK    3  A    between atoms: C_8  and  O_9 
REMARK    4  A    between atoms: C_12  and  C_13 
REMARK    5  A    between atoms: C_14  and  C_15 
REMARK       I    between atoms: C_15  and  N_17 
REMARK    6  A    between atoms: N_17  and  N_18 
REMARK    7  A    between atoms: N_18  and  C_19 
REMARK    8  A    between atoms: C_19  and  N_21 
REMARK    9  A    between atoms: N_21  and  C_22 
REMARK   10  A    between atoms: C_22  and  C_23 
REMARK   11  A    between atoms: C_23  and  C_24 
ROOT
ATOM      1  C   UNL d   1      27.991 -14.636   1.520  0.00  0.00     0.259 C 
ATOM      2  O   UNL d   1      27.006 -14.127   0.972  0.00  0.00    -0.267 OA
ATOM      3  N   UNL d   1      28.672 -15.723   0.979  0.00  0.00    -0.264 N 
ATOM      4  H   UNL d   1      29.581 -16.058   1.301  0.00  0.00     0.190 HD
ENDROOT
BRANCH   1   5
ATOM      5  C   UNL d   1      28.574 -14.057   2.781  0.00  0.00     0.076 C 
ATOM      6  C   UNL d   1      28.217 -14.503   4.006  0.00  0.00     0.020 C 
BRANCH   6   7
ATOM      7  C   UNL d   1      28.335 -13.742   5.292  0.00  0.00     0.000 C 
ATOM      8  C   UNL d   1      28.731 -14.461   6.450  0.00  0.00     0.054 C 
ATOM      9  C   UNL d   1      28.907 -13.849   7.708  0.00  0.00     0.102 C 
ATOM     10  C   UNL d   1      28.749 -12.463   7.823  0.00  0.00     0.104 C 
ATOM     11  C   UNL d   1      28.234 -11.758   6.717  0.00  0.00     0.077 C 
ATOM     12  C   UNL d   1      27.990 -12.388   5.471  0.00  0.00     0.081 C 
BRANCH   9  13
ATOM     13  O   UNL d   1      29.208 -14.533   8.853  0.00  0.00    -0.353 OA
ATOM     14  C   UNL d   1      30.552 -14.786   9.208  0.00  0.00     0.210 C 
ENDBRANCH   9  13
BRANCH  10  15
ATOM     15  O   UNL d   1      29.062 -11.691   8.926  0.00  0.00    -0.353 OA
ATOM     16  C   UNL d   1      28.702 -12.200  10.218  0.00  0.00     0.210 C 
ENDBRANCH  10  15
BRANCH  12  17
ATOM     17  O   UNL d   1      27.567 -11.543   4.472  0.00  0.00    -0.355 OA
ATOM     18  C   UNL d   1      27.510 -10.137   4.730  0.00  0.00     0.210 C 
ENDBRANCH  12  17
ENDBRANCH   6   7
ENDBRANCH   1   5
BRANCH   3  19
ATOM     19  N   UNL d   1      28.100 -16.455  -0.129  0.00  0.00    -0.274 N 
ATOM     20  H   UNL d   1      28.681 -16.474  -0.964  0.00  0.00     0.189 HD
BRANCH  19  21
ATOM     21  C   UNL d   1      26.781 -16.912  -0.108  0.00  0.00     0.186 C 
ATOM     22  S   UNL d   1      26.353 -18.375   0.606  0.00  0.00    -0.040 SA
BRANCH  21  23
ATOM     23  N   UNL d   1      25.868 -16.062  -0.742  0.00  0.00    -0.366 N 
ATOM     24  H   UNL d   1      25.742 -15.121  -0.394  0.00  0.00     0.161 HD
BRANCH  23  25
ATOM     25  C   UNL d   1      24.982 -16.492  -1.841  0.00  0.00     0.122 C 
BRANCH  25  26
ATOM     26  C   UNL d   1      24.243 -17.824  -1.637  0.00  0.00     0.023 C 
BRANCH  26  27
ATOM     27  C   UNL d   1      23.180 -17.742  -0.509  0.00  0.00    -0.021 C 
ATOM     28  C   UNL d   1      22.429 -16.407  -0.521  0.00  0.00     0.009 C 
ATOM     29  C   UNL d   1      22.166 -18.883  -0.635  0.00  0.00     0.009 C 
ENDBRANCH  26  27
ENDBRANCH  25  26
ENDBRANCH  23  25
ENDBRANCH  21  23
ENDBRANCH  19  21
ENDBRANCH   3  19
TORSDOF 11
ENDMDL
MODEL 9
REMARK VINA RESULT:    -6.200      5.987      8.605
REMARK INTER + INTRA:         -11.383
REMARK INTER:                  -9.482
REMARK INTRA:                  -1.901
REMARK CONF_INDEPENDENT:        3.281
REMARK UNBOUND:                -1.901
REMARK  11 active torsions:
REMARK  status: ('A' for Active; 'I' for Inactive)
REMARK    1  A    between atoms: O_2  and  C_3 
REMARK    2  A    between atoms: C_5  and  O_6 
REMARK    3  A    between atoms: C_8  and  O_9 
REMARK    4  A    between atoms: C_12  and  C_13 
REMARK    5  A    between atoms: C_14  and  C_15 
REMARK       I    between atoms: C_15  and  N_17 
REMARK    6  A    between atoms: N_17  and  N_18 
REMARK    7  A    between atoms: N_18  and  C_19 
REMARK    8  A    between atoms: C_19  and  N_21 
REMARK    9  A    between atoms: N_21  and  C_22 
REMARK   10  A    between atoms: C_22  and  C_23 
REMARK   11  A    between atoms: C_23  and  C_24 
ROOT
ATOM      1  C   UNL d   1      27.774 -14.480   3.762  0.00  0.00     0.259 C 
ATOM      2  O   UNL d   1      26.876 -13.872   4.357  0.00  0.00    -0.267 OA
ATOM      3  N   UNL d   1      28.764 -15.196   4.429  0.00  0.00    -0.264 N 
ATOM      4  H   UNL d   1      29.410 -15.848   3.983  0.00  0.00     0.190 HD
ENDROOT
BRANCH   1   5
ATOM      5  C   UNL d   1      27.812 -14.551   2.259  0.00  0.00     0.076 C 
ATOM      6  C   UNL d   1      27.040 -13.754   1.484  0.00  0.00     0.020 C 
BRANCH   6   7
ATOM      7  C   UNL d   1      26.631 -14.029   0.070  0.00  0.00     0.000 C 
ATOM      8  C   UNL d   1      26.014 -15.277  -0.208  0.00  0.00     0.054 C 
ATOM      9  C   UNL d   1      25.557 -15.638  -1.492  0.00  0.00     0.102 C 
ATOM     10  C   UNL d   1      25.652 -14.710  -2.537  0.00  0.00     0.104 C 
ATOM     11  C   UNL d   1      26.373 -13.521  -2.309  0.00  0.00     0.077 C 
ATOM     12  C   UNL d   1      26.895 -13.192  -1.032  0.00  0.00     0.081 C 
BRANCH   9  13
ATOM     13  O   UNL d   1      25.035 -16.863  -1.800  0.00  0.00    -0.353 OA
ATOM     14  C   UNL d   1      24.344 -17.616  -0.826  0.00  0.00     0.210 C 
ENDBRANCH   9  13
BRANCH  10  15
ATOM     15  O   UNL d   1      25.091 -14.832  -3.794  0.00  0.00    -0.353 OA
ATOM     16  C   UNL d   1      25.957 -15.197  -4.877  0.00  0.00     0.210 C 
ENDBRANCH  10  15
BRANCH  12  17
ATOM     17  O   UNL d   1      27.500 -11.960  -0.959  0.00  0.00    -0.355 OA
ATOM     18  C   UNL d   1      27.325 -11.035  -2.036  0.00  0.00     0.210 C 
ENDBRANCH  12  17
ENDBRANCH   6   7
ENDBRANCH   1   5
BRANCH   3  19
ATOM     19  N   UNL d   1      28.917 -15.055   5.860  0.00  0.00    -0.274 N 
ATOM     20  H   UNL d   1      28.527 -15.822   6.402  0.00  0.00     0.189 HD
BRANCH  19  21
ATOM     21  C   UNL d   1      29.378 -13.870   6.438  0.00  0.00     0.186 C 
ATOM     22  S   UNL d   1      28.909 -13.388   7.981  0.00  0.00    -0.040 SA
BRANCH  21  23
ATOM     23  N   UNL d   1      30.235 -13.126   5.620  0.00  0.00    -0.366 N 
ATOM     24  H   UNL d   1      31.214 -13.375   5.571  0.00  0.00     0.161 HD
BRANCH  23  25
ATOM     25  C   UNL d   1      29.817 -11.914   4.891  0.00  0.00     0.122 C 
BRANCH  25  26
ATOM     26  C   UNL d   1      28.403 -11.394   5.191  0.00  0.00     0.023 C 
BRANCH  26  27
ATOM     27  C   UNL d   1      27.643 -10.973   3.905  0.00  0.00    -0.021 C 
ATOM     28  C   UNL d   1      27.044  -9.569   4.023  0.00  0.00     0.009 C 
ATOM     29  C   UNL d   1      28.572 -11.015   2.688  0.00  0.00     0.009 C 
ENDBRANCH  26  27
ENDBRANCH  25  26
ENDBRANCH  23  25
ENDBRANCH  21  23
ENDBRANCH  19  21
ENDBRANCH   3  19
TORSDOF 11
ENDMDL
