MODEL 1
REMARK VINA RESULT:    -6.282      0.000      0.000
REMARK INTER + INTRA:          -8.106
REMARK INTER:                  -7.475
REMARK INTRA:                  -0.631
REMARK CONF_INDEPENDENT:        1.193
REMARK UNBOUND:                -0.631
REMARK  4 active torsions:
REMARK  status: ('A' for Active; 'I' for Inactive)
REMARK       I    between atoms: C_2  and  N_3 
REMARK       I    between atoms: C_2  and  N_14 
REMARK    1  A    between atoms: N_3  and  C_4 
REMARK    2  A    between atoms: C_7  and  O_8 
REMARK    3  A    between atoms: O_8  and  C_9 
REMARK    4  A    between atoms: N_14  and  C_15 
ROOT
ATOM      1  O   UNL d   1      27.100 -18.207   0.581  0.00  0.00    -0.247 OA
ATOM      2  C   UNL d   1      26.783 -17.012   0.623  0.00  0.00     0.325 C 
ATOM      3  N   UNL d   1      25.599 -16.499   0.155  0.00  0.00    -0.309 N 
ATOM      4  N   UNL d   1      27.734 -16.107   1.020  0.00  0.00    -0.306 N 
ATOM      5  H   UNL d   1      25.501 -15.496   0.127  0.00  0.00     0.170 HD
ATOM      6  H   UNL d   1      28.653 -16.520   1.127  0.00  0.00     0.171 HD
ENDROOT
BRANCH   3   7
ATOM      7  C   UNL d   1      24.473 -17.233  -0.251  0.00  0.00     0.036 A 
ATOM      8  C   UNL d   1      23.299 -16.554  -0.592  0.00  0.00     0.032 A 
ATOM      9  C   UNL d   1      22.134 -17.273  -0.897  0.00  0.00     0.039 A 
ATOM     10  C   UNL d   1      22.142 -18.672  -0.890  0.00  0.00     0.075 A 
ATOM     11  C   UNL d   1      23.312 -19.338  -0.530  0.00  0.00     0.039 A 
ATOM     12  C   UNL d   1      24.472 -18.623  -0.226  0.00  0.00     0.032 A 
BRANCH  10  13
ATOM     13  O   UNL d   1      20.967 -19.278  -1.246  0.00  0.00    -0.290 OA
BRANCH  13  14
ATOM     14  C   UNL d   1      19.984 -19.370  -0.223  0.00  0.00     0.505 C 
ATOM     15  F   UNL d   1      19.540 -20.650  -0.148  0.00  0.00    -0.184 F 
ATOM     16  F   UNL d   1      20.593 -19.105   0.961  0.00  0.00    -0.184 F 
ENDBRANCH  13  14
ENDBRANCH  10  13
ENDBRANCH   3   7
BRANCH   4  17
ATOM     17  C   UNL d   1      27.587 -14.749   1.355  0.00  0.00     0.075 A 
ATOM     18  C   UNL d   1      27.808 -14.346   2.676  0.00  0.00     0.033 A 
ATOM     19  C   UNL d   1      27.657 -12.998   3.028  0.00  0.00     0.002 A 
ATOM     20  C   UNL d   1      27.309 -12.051   2.062  0.00  0.00     0.003 A 
ATOM     21  C   UNL d   1      27.059 -12.454   0.755  0.00  0.00     0.044 A 
ATOM     22  C   UNL d   1      27.183 -13.793   0.417  0.00  0.00     0.143 A 
ATOM     23  F   UNL d   1      26.873 -14.155  -0.835  0.00  0.00    -0.204 F 
ENDBRANCH   4  17
TORSDOF 4
ENDMDL
MODEL 2
REMARK VINA RESULT:    -6.211      2.335      3.180
REMARK INTER + INTRA:          -8.102
REMARK INTER:                  -7.404
REMARK INTRA:                  -0.698
REMARK CONF_INDEPENDENT:        1.193
REMARK UNBOUND:                -0.698
REMARK  4 active torsions:
REMARK  status: ('A' for Active; 'I' for Inactive)
REMARK       I    between atoms: C_2  and  N_3 
REMARK       I    between atoms: C_2  and  N_14 
REMARK    1  A    between atoms: N_3  and  C_4 
REMARK    2  A    between atoms: C_7  and  O_8 
REMARK    3  A    between atoms: O_8  and  C_9 
REMARK    4  A    between atoms: N_14  and  C_15 
ROOT
ATOM      1  O   UNL d   1      26.528 -18.383   1.211  0.00  0.00    -0.247 OA
ATOM      2  C   UNL d   1      26.844 -17.795   0.170  0.00  0.00     0.325 C 
ATOM      3  N   UNL d   1      25.974 -17.469  -0.840  0.00  0.00    -0.309 N 
ATOM      4  N   UNL d   1      28.179 -17.588  -0.074  0.00  0.00    -0.306 N 
ATOM      5  H   UNL d   1      26.364 -17.103  -1.695  0.00  0.00     0.170 HD
ATOM      6  H   UNL d   1      28.779 -18.058   0.592  0.00  0.00     0.171 HD
ENDROOT
BRANCH   3   7
ATOM      7  C   UNL d   1      24.572 -17.545  -0.793  0.00  0.00     0.036 A 
ATOM      8  C   UNL d   1      23.953 -18.798  -0.798  0.00  0.00     0.032 A 
ATOM      9  C   UNL d   1      22.555 -18.891  -0.857  0.00  0.00     0.039 A 
ATOM     10  C   UNL d   1      21.767 -17.735  -0.884  0.00  0.00     0.075 A 
ATOM     11  C   UNL d   1      22.396 -16.491  -0.897  0.00  0.00     0.039 A 
ATOM     12  C   UNL d   1      23.787 -16.398  -0.838  0.00  0.00     0.032 A 
BRANCH  10  13
ATOM     13  O   UNL d   1      20.413 -17.935  -0.895  0.00  0.00    -0.290 OA
BRANCH  13  14
ATOM     14  C   UNL d   1      19.978 -19.241  -0.541  0.00  0.00     0.505 C 
ATOM     15  F   UNL d   1      19.195 -19.162   0.566  0.00  0.00    -0.184 F 
ATOM     16  F   UNL d   1      19.184 -19.698  -1.541  0.00  0.00    -0.184 F 
ENDBRANCH  13  14
ENDBRANCH  10  13
ENDBRANCH   3   7
BRANCH   4  17
ATOM     17  C   UNL d   1      28.791 -16.781  -1.049  0.00  0.00     0.075 A 
ATOM     18  C   UNL d   1      29.860 -17.298  -1.788  0.00  0.00     0.033 A 
ATOM     19  C   UNL d   1      30.487 -16.504  -2.756  0.00  0.00     0.002 A 
ATOM     20  C   UNL d   1      30.036 -15.205  -3.004  0.00  0.00     0.003 A 
ATOM     21  C   UNL d   1      28.994 -14.678  -2.250  0.00  0.00     0.044 A 
ATOM     22  C   UNL d   1      28.394 -15.459  -1.273  0.00  0.00     0.143 A 
ATOM     23  F   UNL d   1      27.436 -14.898  -0.523  0.00  0.00    -0.204 F 
ENDBRANCH   4  17
TORSDOF 4
ENDMDL
MODEL 3
REMARK VINA RESULT:    -6.207      2.728      3.430
REMARK INTER + INTRA:          -7.977
REMARK INTER:                  -7.400
REMARK INTRA:                  -0.577
REMARK CONF_INDEPENDENT:        1.193
REMARK UNBOUND:                -0.577
REMARK  4 active torsions:
REMARK  status: ('A' for Active; 'I' for Inactive)
REMARK       I    between atoms: C_2  and  N_3 
REMARK       I    between atoms: C_2  and  N_14 
REMARK    1  A    between atoms: N_3  and  C_4 
REMARK    2  A    between atoms: C_7  and  O_8 
REMARK    3  A    between atoms: O_8  and  C_9 
REMARK    4  A    between atoms: N_14  and  C_15 
ROOT
ATOM      1  O   UNL d   1      26.463 -18.414   1.262  0.00  0.00    -0.247 OA
ATOM      2  C   UNL d   1      26.746 -17.857   0.194  0.00  0.00     0.325 C 
ATOM      3  N   UNL d   1      25.850 -17.590  -0.810  0.00  0.00    -0.309 N 
ATOM      4  N   UNL d   1      28.070 -17.628  -0.082  0.00  0.00    -0.306 N 
ATOM      5  H   UNL d   1      26.215 -17.246  -1.685  0.00  0.00     0.170 HD
ATOM      6  H   UNL d   1      28.694 -18.059   0.590  0.00  0.00     0.171 HD
ENDROOT
BRANCH   3   7
ATOM      7  C   UNL d   1      24.452 -17.697  -0.734  0.00  0.00     0.036 A 
ATOM      8  C   UNL d   1      23.867 -18.961  -0.619  0.00  0.00     0.032 A 
ATOM      9  C   UNL d   1      22.471 -19.095  -0.648  0.00  0.00     0.039 A 
ATOM     10  C   UNL d   1      21.652 -17.967  -0.763  0.00  0.00     0.075 A 
ATOM     11  C   UNL d   1      22.247 -16.713  -0.895  0.00  0.00     0.039 A 
ATOM     12  C   UNL d   1      23.636 -16.579  -0.867  0.00  0.00     0.032 A 
BRANCH  10  13
ATOM     13  O   UNL d   1      20.304 -18.201  -0.735  0.00  0.00    -0.290 OA
BRANCH  13  14
ATOM     14  C   UNL d   1      19.905 -19.456  -0.198  0.00  0.00     0.505 C 
ATOM     15  F   UNL d   1      19.484 -19.278   1.080  0.00  0.00    -0.184 F 
ATOM     16  F   UNL d   1      18.827 -19.884  -0.902  0.00  0.00    -0.184 F 
ENDBRANCH  13  14
ENDBRANCH  10  13
ENDBRANCH   3   7
BRANCH   4  17
ATOM     17  C   UNL d   1      28.645 -16.842  -1.096  0.00  0.00     0.075 A 
ATOM     18  C   UNL d   1      27.939 -15.738  -1.585  0.00  0.00     0.033 A 
ATOM     19  C   UNL d   1      28.493 -14.950  -2.601  0.00  0.00     0.002 A 
ATOM     20  C   UNL d   1      29.759 -15.247  -3.114  0.00  0.00     0.003 A 
ATOM     21  C   UNL d   1      30.449 -16.361  -2.651  0.00  0.00     0.044 A 
ATOM     22  C   UNL d   1      29.884 -17.155  -1.665  0.00  0.00     0.143 A 
ATOM     23  F   UNL d   1      30.549 -18.256  -1.288  0.00  0.00    -0.204 F 
ENDBRANCH   4  17
TORSDOF 4
ENDMDL
MODEL 4
REMARK VINA RESULT:    -6.147      1.032      1.472
REMARK INTER + INTRA:          -7.933
REMARK INTER:                  -7.340
REMARK INTRA:                  -0.593
REMARK CONF_INDEPENDENT:        1.193
REMARK UNBOUND:                -0.593
REMARK  4 active torsions:
REMARK  status: ('A' for Active; 'I' for Inactive)
REMARK       I    between atoms: C_2  and  N_3 
REMARK       I    between atoms: C_2  and  N_14 
REMARK    1  A    between atoms: N_3  and  C_4 
REMARK    2  A    between atoms: C_7  and  O_8 
REMARK    3  A    between atoms: O_8  and  C_9 
REMARK    4  A    between atoms: N_14  and  C_15 
ROOT
ATOM      1  O   UNL d   1      27.074 -18.199   0.585  0.00  0.00    -0.247 OA
ATOM      2  C   UNL d   1      26.765 -17.001   0.608  0.00  0.00     0.325 C 
ATOM      3  N   UNL d   1      25.587 -16.488   0.126  0.00  0.00    -0.309 N 
ATOM      4  N   UNL d   1      27.722 -16.097   0.994  0.00  0.00    -0.306 N 
ATOM      5  H   UNL d   1      25.496 -15.484   0.083  0.00  0.00     0.170 HD
ATOM      6  H   UNL d   1      28.637 -16.515   1.111  0.00  0.00     0.171 HD
ENDROOT
BRANCH   3   7
ATOM      7  C   UNL d   1      24.457 -17.219  -0.272  0.00  0.00     0.036 A 
ATOM      8  C   UNL d   1      23.280 -16.539  -0.597  0.00  0.00     0.032 A 
ATOM      9  C   UNL d   1      22.112 -17.257  -0.895  0.00  0.00     0.039 A 
ATOM     10  C   UNL d   1      22.120 -18.656  -0.897  0.00  0.00     0.075 A 
ATOM     11  C   UNL d   1      23.295 -19.324  -0.553  0.00  0.00     0.039 A 
ATOM     12  C   UNL d   1      24.457 -18.610  -0.257  0.00  0.00     0.032 A 
BRANCH  10  13
ATOM     13  O   UNL d   1      20.942 -19.260  -1.245  0.00  0.00    -0.290 OA
BRANCH  13  14
ATOM     14  C   UNL d   1      20.036 -19.508  -0.178  0.00  0.00     0.505 C 
ATOM     15  F   UNL d   1      19.734 -20.831  -0.151  0.00  0.00    -0.184 F 
ATOM     16  F   UNL d   1      20.682 -19.237   0.985  0.00  0.00    -0.184 F 
ENDBRANCH  13  14
ENDBRANCH  10  13
ENDBRANCH   3   7
BRANCH   4  17
ATOM     17  C   UNL d   1      27.583 -14.733   1.307  0.00  0.00     0.075 A 
ATOM     18  C   UNL d   1      27.284 -13.827   0.284  0.00  0.00     0.033 A 
ATOM     19  C   UNL d   1      27.150 -12.464   0.577  0.00  0.00     0.002 A 
ATOM     20  C   UNL d   1      27.292 -12.007   1.890  0.00  0.00     0.003 A 
ATOM     21  C   UNL d   1      27.619 -12.901   2.903  0.00  0.00     0.044 A 
ATOM     22  C   UNL d   1      27.778 -14.246   2.603  0.00  0.00     0.143 A 
ATOM     23  F   UNL d   1      28.155 -15.068   3.591  0.00  0.00    -0.204 F 
ENDBRANCH   4  17
TORSDOF 4
ENDMDL
MODEL 5
REMARK VINA RESULT:    -5.675      3.687      4.464
REMARK INTER + INTRA:          -7.386
REMARK INTER:                  -6.868
REMARK INTRA:                  -0.517
REMARK CONF_INDEPENDENT:        1.193
REMARK UNBOUND:                -0.517
REMARK  4 active torsions:
REMARK  status: ('A' for Active; 'I' for Inactive)
REMARK       I    between atoms: C_2  and  N_3 
REMARK       I    between atoms: C_2  and  N_14 
REMARK    1  A    between atoms: N_3  and  C_4 
REMARK    2  A    between atoms: C_7  and  O_8 
REMARK    3  A    between atoms: O_8  and  C_9 
REMARK    4  A    between atoms: N_14  and  C_15 
ROOT
ATOM      1  O   UNL d   1      24.404 -14.511  -3.215  0.00  0.00    -0.247 OA
ATOM      2  C   UNL d   1      25.451 -15.143  -3.029  0.00  0.00     0.325 C 
ATOM      3  N   UNL d   1      25.604 -16.149  -2.107  0.00  0.00    -0.309 N 
ATOM      4  N   UNL d   1      26.586 -14.715  -3.670  0.00  0.00    -0.306 N 
ATOM      5  H   UNL d   1      26.534 -16.508  -1.955  0.00  0.00     0.170 HD
ATOM      6  H   UNL d   1      26.459 -13.832  -4.149  0.00  0.00     0.171 HD
ENDROOT
BRANCH   3   7
ATOM      7  C   UNL d   1      24.582 -16.776  -1.377  0.00  0.00     0.036 A 
ATOM      8  C   UNL d   1      24.786 -18.067  -0.882  0.00  0.00     0.032 A 
ATOM      9  C   UNL d   1      23.741 -18.749  -0.243  0.00  0.00     0.039 A 
ATOM     10  C   UNL d   1      22.496 -18.136  -0.069  0.00  0.00     0.075 A 
ATOM     11  C   UNL d   1      22.297 -16.855  -0.582  0.00  0.00     0.039 A 
ATOM     12  C   UNL d   1      23.337 -16.176  -1.219  0.00  0.00     0.032 A 
BRANCH  10  13
ATOM     13  O   UNL d   1      21.558 -18.869   0.608  0.00  0.00    -0.290 OA
BRANCH  13  14
ATOM     14  C   UNL d   1      20.647 -19.604  -0.200  0.00  0.00     0.505 C 
ATOM     15  F   UNL d   1      19.467 -19.725   0.461  0.00  0.00    -0.184 F 
ATOM     16  F   UNL d   1      20.391 -18.866  -1.310  0.00  0.00    -0.184 F 
ENDBRANCH  13  14
ENDBRANCH  10  13
ENDBRANCH   3   7
BRANCH   4  17
ATOM     17  C   UNL d   1      27.829 -15.357  -3.802  0.00  0.00     0.075 A 
ATOM     18  C   UNL d   1      28.518 -15.751  -2.650  0.00  0.00     0.033 A 
ATOM     19  C   UNL d   1      29.763 -16.384  -2.764  0.00  0.00     0.002 A 
ATOM     20  C   UNL d   1      30.310 -16.644  -4.023  0.00  0.00     0.003 A 
ATOM     21  C   UNL d   1      29.642 -16.226  -5.168  0.00  0.00     0.044 A 
ATOM     22  C   UNL d   1      28.423 -15.575  -5.049  0.00  0.00     0.143 A 
ATOM     23  F   UNL d   1      27.838 -15.130  -6.170  0.00  0.00    -0.204 F 
ENDBRANCH   4  17
TORSDOF 4
ENDMDL
MODEL 6
REMARK VINA RESULT:    -5.493      3.117      3.962
REMARK INTER + INTRA:          -7.401
REMARK INTER:                  -6.686
REMARK INTRA:                  -0.715
REMARK CONF_INDEPENDENT:        1.193
REMARK UNBOUND:                -0.715
REMARK  4 active torsions:
REMARK  status: ('A' for Active; 'I' for Inactive)
REMARK       I    between atoms: C_2  and  N_3 
REMARK       I    between atoms: C_2  and  N_14 
REMARK    1  A    between atoms: N_3  and  C_4 
REMARK    2  A    between atoms: C_7  and  O_8 
REMARK    3  A    between atoms: O_8  and  C_9 
REMARK    4  A    between atoms: N_14  and  C_15 
ROOT
ATOM      1  O   UNL d   1      26.949 -16.311   0.216  0.00  0.00    -0.247 OA
ATOM      2  C   UNL d   1      26.762 -16.231  -1.004  0.00  0.00     0.325 C 
ATOM      3  N   UNL d   1      25.674 -16.744  -1.664  0.00  0.00    -0.309 N 
ATOM      4  N   UNL d   1      27.779 -15.737  -1.781  0.00  0.00    -0.306 N 
ATOM      5  H   UNL d   1      25.687 -16.730  -2.673  0.00  0.00     0.170 HD
ATOM      6  H   UNL d   1      28.639 -15.597  -1.264  0.00  0.00     0.171 HD
ENDROOT
BRANCH   3   7
ATOM      7  C   UNL d   1      24.502 -17.249  -1.078  0.00  0.00     0.036 A 
ATOM      8  C   UNL d   1      24.473 -18.575  -0.636  0.00  0.00     0.032 A 
ATOM      9  C   UNL d   1      23.281 -19.127  -0.145  0.00  0.00     0.039 A 
ATOM     10  C   UNL d   1      22.119 -18.351  -0.067  0.00  0.00     0.075 A 
ATOM     11  C   UNL d   1      22.155 -17.036  -0.527  0.00  0.00     0.039 A 
ATOM     12  C   UNL d   1      23.341 -16.486  -1.016  0.00  0.00     0.032 A 
BRANCH  10  13
ATOM     13  O   UNL d   1      21.022 -18.970   0.469  0.00  0.00    -0.290 OA
BRANCH  13  14
ATOM     14  C   UNL d   1      20.154 -19.603  -0.462  0.00  0.00     0.505 C 
ATOM     15  F   UNL d   1      18.963 -18.951  -0.471  0.00  0.00    -0.184 F 
ATOM     16  F   UNL d   1      20.687 -19.445  -1.699  0.00  0.00    -0.184 F 
ENDBRANCH  13  14
ENDBRANCH  10  13
ENDBRANCH   3   7
BRANCH   4  17
ATOM     17  C   UNL d   1      27.760 -15.349  -3.132  0.00  0.00     0.075 A 
ATOM     18  C   UNL d   1      28.859 -15.650  -3.943  0.00  0.00     0.033 A 
ATOM     19  C   UNL d   1      28.859 -15.263  -5.290  0.00  0.00     0.002 A 
ATOM     20  C   UNL d   1      27.758 -14.596  -5.832  0.00  0.00     0.003 A 
ATOM     21  C   UNL d   1      26.678 -14.268  -5.021  0.00  0.00     0.044 A 
ATOM     22  C   UNL d   1      26.694 -14.630  -3.682  0.00  0.00     0.143 A 
ATOM     23  F   UNL d   1      25.666 -14.242  -2.915  0.00  0.00    -0.204 F 
ENDBRANCH   4  17
TORSDOF 4
ENDMDL
MODEL 7
REMARK VINA RESULT:    -5.463      1.763      2.163
REMARK INTER + INTRA:          -7.349
REMARK INTER:                  -6.656
REMARK INTRA:                  -0.694
REMARK CONF_INDEPENDENT:        1.193
REMARK UNBOUND:                -0.694
REMARK  4 active torsions:
REMARK  status: ('A' for Active; 'I' for Inactive)
REMARK       I    between atoms: C_2  and  N_3 
REMARK       I    between atoms: C_2  and  N_14 
REMARK    1  A    between atoms: N_3  and  C_4 
REMARK    2  A    between atoms: C_7  and  O_8 
REMARK    3  A    between atoms: O_8  and  C_9 
REMARK    4  A    between atoms: N_14  and  C_15 
ROOT
ATOM      1  O   UNL d   1      25.020 -15.090  -2.720  0.00  0.00    -0.247 OA
ATOM      2  C   UNL d   1      25.551 -15.196  -1.608  0.00  0.00     0.325 C 
ATOM      3  N   UNL d   1      25.098 -16.008  -0.599  0.00  0.00    -0.309 N 
ATOM      4  N   UNL d   1      26.570 -14.332  -1.296  0.00  0.00    -0.306 N 
ATOM      5  H   UNL d   1      25.535 -15.921   0.305  0.00  0.00     0.170 HD
ATOM      6  H   UNL d   1      26.699 -13.606  -1.990  0.00  0.00     0.171 HD
ENDROOT
BRANCH   3   7
ATOM      7  C   UNL d   1      24.109 -17.000  -0.705  0.00  0.00     0.036 A 
ATOM      8  C   UNL d   1      22.777 -16.622  -0.893  0.00  0.00     0.032 A 
ATOM      9  C   UNL d   1      21.764 -17.591  -0.895  0.00  0.00     0.039 A 
ATOM     10  C   UNL d   1      22.078 -18.945  -0.736  0.00  0.00     0.075 A 
ATOM     11  C   UNL d   1      23.408 -19.309  -0.531  0.00  0.00     0.039 A 
ATOM     12  C   UNL d   1      24.416 -18.345  -0.529  0.00  0.00     0.032 A 
BRANCH  10  13
ATOM     13  O   UNL d   1      21.022 -19.815  -0.798  0.00  0.00    -0.290 OA
BRANCH  13  14
ATOM     14  C   UNL d   1      19.749 -19.266  -0.482  0.00  0.00     0.505 C 
ATOM     15  F   UNL d   1      18.782 -20.055  -1.015  0.00  0.00    -0.184 F 
ATOM     16  F   UNL d   1      19.596 -19.327   0.865  0.00  0.00    -0.184 F 
ENDBRANCH  13  14
ENDBRANCH  10  13
ENDBRANCH   3   7
BRANCH   4  17
ATOM     17  C   UNL d   1      27.468 -14.368  -0.215  0.00  0.00     0.075 A 
ATOM     18  C   UNL d   1      28.742 -14.914  -0.406  0.00  0.00     0.033 A 
ATOM     19  C   UNL d   1      29.646 -14.966   0.663  0.00  0.00     0.002 A 
ATOM     20  C   UNL d   1      29.290 -14.455   1.914  0.00  0.00     0.003 A 
ATOM     21  C   UNL d   1      28.014 -13.941   2.114  0.00  0.00     0.044 A 
ATOM     22  C   UNL d   1      27.113 -13.917   1.060  0.00  0.00     0.143 A 
ATOM     23  F   UNL d   1      25.873 -13.473   1.306  0.00  0.00    -0.204 F 
ENDBRANCH   4  17
TORSDOF 4
ENDMDL
MODEL 8
REMARK VINA RESULT:    -5.459      3.214      4.084
REMARK INTER + INTRA:          -7.332
REMARK INTER:                  -6.653
REMARK INTRA:                  -0.679
REMARK CONF_INDEPENDENT:        1.193
REMARK UNBOUND:                -0.679
REMARK  4 active torsions:
REMARK  status: ('A' for Active; 'I' for Inactive)
REMARK       I    between atoms: C_2  and  N_3 
REMARK       I    between atoms: C_2  and  N_14 
REMARK    1  A    between atoms: N_3  and  C_4 
REMARK    2  A    between atoms: C_7  and  O_8 
REMARK    3  A    between atoms: O_8  and  C_9 
REMARK    4  A    between atoms: N_14  and  C_15 
ROOT
ATOM      1  O   UNL d   1      26.901 -16.246   0.267  0.00  0.00    -0.247 OA
ATOM      2  C   UNL d   1      26.768 -16.226  -0.963  0.00  0.00     0.325 C 
ATOM      3  N   UNL d   1      25.713 -16.779  -1.644  0.00  0.00    -0.309 N 
ATOM      4  N   UNL d   1      27.815 -15.761  -1.717  0.00  0.00    -0.306 N 
ATOM      5  H   UNL d   1      25.771 -16.813  -2.651  0.00  0.00     0.170 HD
ATOM      6  H   UNL d   1      28.650 -15.588  -1.170  0.00  0.00     0.171 HD
ENDROOT
BRANCH   3   7
ATOM      7  C   UNL d   1      24.520 -17.265  -1.086  0.00  0.00     0.036 A 
ATOM      8  C   UNL d   1      24.471 -18.578  -0.608  0.00  0.00     0.032 A 
ATOM      9  C   UNL d   1      23.261 -19.114  -0.145  0.00  0.00     0.039 A 
ATOM     10  C   UNL d   1      22.100 -18.334  -0.131  0.00  0.00     0.075 A 
ATOM     11  C   UNL d   1      22.155 -17.033  -0.627  0.00  0.00     0.039 A 
ATOM     12  C   UNL d   1      23.359 -16.499  -1.088  0.00  0.00     0.032 A 
BRANCH  10  13
ATOM     13  O   UNL d   1      20.982 -18.936   0.383  0.00  0.00    -0.290 OA
BRANCH  13  14
ATOM     14  C   UNL d   1      19.991 -19.311  -0.565  0.00  0.00     0.505 C 
ATOM     15  F   UNL d   1      20.601 -19.700  -1.713  0.00  0.00    -0.184 F 
ATOM     16  F   UNL d   1      19.348 -20.404  -0.081  0.00  0.00    -0.184 F 
ENDBRANCH  13  14
ENDBRANCH  10  13
ENDBRANCH   3   7
BRANCH   4  17
ATOM     17  C   UNL d   1      27.853 -15.438  -3.085  0.00  0.00     0.075 A 
ATOM     18  C   UNL d   1      26.800 -14.701  -3.640  0.00  0.00     0.033 A 
ATOM     19  C   UNL d   1      26.818 -14.378  -5.003  0.00  0.00     0.002 A 
ATOM     20  C   UNL d   1      27.892 -14.768  -5.807  0.00  0.00     0.003 A 
ATOM     21  C   UNL d   1      28.924 -15.526  -5.264  0.00  0.00     0.044 A 
ATOM     22  C   UNL d   1      28.888 -15.867  -3.921  0.00  0.00     0.143 A 
ATOM     23  F   UNL d   1      29.866 -16.651  -3.447  0.00  0.00    -0.204 F 
ENDBRANCH   4  17
TORSDOF 4
ENDMDL
MODEL 9
REMARK VINA RESULT:    -5.224      2.744      3.568
REMARK INTER + INTRA:          -7.082
REMARK INTER:                  -6.417
REMARK INTRA:                  -0.665
REMARK CONF_INDEPENDENT:        1.193
REMARK UNBOUND:                -0.665
REMARK  4 active torsions:
REMARK  status: ('A' for Active; 'I' for Inactive)
REMARK       I    between atoms: C_2  and  N_3 
REMARK       I    between atoms: C_2  and  N_14 
REMARK    1  A    between atoms: N_3  and  C_4 
REMARK    2  A    between atoms: C_7  and  O_8 
REMARK    3  A    between atoms: O_8  and  C_9 
REMARK    4  A    between atoms: N_14  and  C_15 
ROOT
ATOM      1  O   UNL d   1      25.155 -15.158  -3.153  0.00  0.00    -0.247 OA
ATOM      2  C   UNL d   1      25.961 -15.775  -2.446  0.00  0.00     0.325 C 
ATOM      3  N   UNL d   1      25.616 -16.670  -1.464  0.00  0.00    -0.309 N 
ATOM      4  N   UNL d   1      27.287 -15.434  -2.532  0.00  0.00    -0.306 N 
ATOM      5  H   UNL d   1      26.351 -17.018  -0.867  0.00  0.00     0.170 HD
ATOM      6  H   UNL d   1      27.447 -14.610  -3.099  0.00  0.00     0.171 HD
ENDROOT
BRANCH   3   7
ATOM      7  C   UNL d   1      24.337 -17.199  -1.228  0.00  0.00     0.036 A 
ATOM      8  C   UNL d   1      23.230 -16.346  -1.232  0.00  0.00     0.032 A 
ATOM      9  C   UNL d   1      21.961 -16.838  -0.895  0.00  0.00     0.039 A 
ATOM     10  C   UNL d   1      21.785 -18.189  -0.578  0.00  0.00     0.075 A 
ATOM     11  C   UNL d   1      22.899 -19.027  -0.559  0.00  0.00     0.039 A 
ATOM     12  C   UNL d   1      24.162 -18.538  -0.895  0.00  0.00     0.032 A 
BRANCH  10  13
ATOM     13  O   UNL d   1      20.500 -18.578  -0.309  0.00  0.00    -0.290 OA
BRANCH  13  14
ATOM     14  C   UNL d   1      20.279 -19.982  -0.249  0.00  0.00     0.505 C 
ATOM     15  F   UNL d   1      20.620 -20.432   0.985  0.00  0.00    -0.184 F 
ATOM     16  F   UNL d   1      18.945 -20.196  -0.381  0.00  0.00    -0.184 F 
ENDBRANCH  13  14
ENDBRANCH  10  13
ENDBRANCH   3   7
BRANCH   4  17
ATOM     17  C   UNL d   1      28.413 -16.098  -2.014  0.00  0.00     0.075 A 
ATOM     18  C   UNL d   1      29.281 -16.754  -2.895  0.00  0.00     0.033 A 
ATOM     19  C   UNL d   1      30.403 -17.428  -2.395  0.00  0.00     0.002 A 
ATOM     20  C   UNL d   1      30.671 -17.430  -1.023  0.00  0.00     0.003 A 
ATOM     21  C   UNL d   1      29.794 -16.806  -0.145  0.00  0.00     0.044 A 
ATOM     22  C   UNL d   1      28.670 -16.163  -0.642  0.00  0.00     0.143 A 
ATOM     23  F   UNL d   1      27.814 -15.628   0.239  0.00  0.00    -0.204 F 
ENDBRANCH   4  17
TORSDOF 4
ENDMDL
