MODEL 1
REMARK VINA RESULT:   -24.354      0.000      0.000
REMARK INTER + INTRA:         -26.924
REMARK INTER:                 -26.144
REMARK INTRA:                  -0.780
REMARK CONF_INDEPENDENT:        1.790
REMARK UNBOUND:                -0.780
REMARK  6 active torsions:
REMARK  status: ('A' for Active; 'I' for Inactive)
REMARK    1  A    between atoms: C_4  and  C_5 
REMARK       I    between atoms: C_5  and  N_7 
REMARK    2  A    between atoms: N_7  and  C_8 
REMARK    3  A    between atoms: C_12  and  S_13 
REMARK    4  A    between atoms: S_13  and  N_16 
REMARK    5  A    between atoms: N_16  and  C_17 
REMARK    6  A    between atoms: C_25  and  N_26 
ROOT
ATOM      1  C   UNL d   1      24.162 -16.371  -1.817  0.00  0.00     0.036 A 
ATOM      2  C   UNL d   1      23.416 -15.196  -1.975  0.00  0.00     0.029 A 
ATOM      3  C   UNL d   1      22.054 -15.177  -1.645  0.00  0.00     0.004 A 
ATOM      4  C   UNL d   1      21.430 -16.336  -1.172  0.00  0.00     0.025 A 
ATOM      5  C   UNL d   1      22.184 -17.504  -1.002  0.00  0.00     0.083 A 
ATOM      6  C   UNL d   1      23.540 -17.524  -1.331  0.00  0.00     0.054 A 
ENDROOT
BRANCH   1   7
ATOM      7  N   UNL d   1      25.552 -16.360  -2.081  0.00  0.00    -0.323 N 
ATOM      8  C   UNL d   1      26.113 -15.666  -3.150  0.00  0.00     0.256 C 
ATOM      9  O   UNL d   1      25.469 -14.925  -3.893  0.00  0.00    -0.267 OA
ATOM     10  H   UNL d   1      26.139 -16.790  -1.381  0.00  0.00     0.169 HD
BRANCH   8  11
ATOM     11  C   UNL d   1      27.594 -15.772  -3.388  0.00  0.00     0.033 A 
ATOM     12  C   UNL d   1      28.070 -15.572  -4.704  0.00  0.00     0.026 A 
ATOM     13  C   UNL d   1      29.444 -15.662  -5.036  0.00  0.00    -0.028 A 
ATOM     14  C   UNL d   1      29.857 -15.416  -6.462  0.00  0.00     0.050 C 
ATOM     15  C   UNL d   1      30.357 -15.970  -4.009  0.00  0.00     0.108 A 
ATOM     16  C   UNL d   1      29.887 -16.169  -2.696  0.00  0.00     0.037 A 
ATOM     17  C   UNL d   1      28.522 -16.068  -2.388  0.00  0.00     0.019 A 
BRANCH  15  18
ATOM     18  N   UNL d   1      31.818 -16.091  -4.243  0.00  0.00    -0.115 N 
ATOM     19  O   UNL d   1      32.436 -15.054  -4.525  0.00  0.00    -0.532 OA
ATOM     20  O   UNL d   1      32.355 -17.201  -4.150  0.00  0.00    -0.532 OA
ENDBRANCH  15  18
ENDBRANCH   8  11
ENDBRANCH   1   7
BRANCH   5  21
ATOM     21  S   UNL d   1      21.418 -18.952  -0.285  0.00  0.00     0.284 S 
ATOM     22  O   UNL d   1      22.178 -20.075  -0.792  0.00  0.00    -0.198 OA
ATOM     23  O   UNL d   1      21.375 -18.694   1.149  0.00  0.00    -0.198 OA
BRANCH  21  24
ATOM     24  N   UNL d   1      19.905 -19.030  -0.895  0.00  0.00    -0.147 NA
BRANCH  24  25
ATOM     25  C   UNL d   1      19.013 -19.776  -0.346  0.00  0.00     0.113 C 
ATOM     26  C   UNL d   1      18.857 -19.849   1.169  0.00  0.00     0.080 C 
ATOM     27  C   UNL d   1      18.082 -21.163   1.346  0.00  0.00     0.027 C 
ATOM     28  C   UNL d   1      17.262 -21.296   0.063  0.00  0.00     0.121 C 
ATOM     29  N   UNL d   1      18.069 -20.594  -0.897  0.00  0.00    -0.378 N 
ATOM     30  H   UNL d   1      18.040 -20.789  -1.896  0.00  0.00     0.160 HD
ENDBRANCH  24  25
ENDBRANCH  21  24
ENDBRANCH   5  21
TORSDOF 6
ENDMDL
MODEL 2
REMARK VINA RESULT:   -23.974      1.531      1.915
REMARK INTER + INTRA:         -26.735
REMARK INTER:                 -25.764
REMARK INTRA:                  -0.971
REMARK CONF_INDEPENDENT:        1.790
REMARK UNBOUND:                -0.971
REMARK  6 active torsions:
REMARK  status: ('A' for Active; 'I' for Inactive)
REMARK    1  A    between atoms: C_4  and  C_5 
REMARK       I    between atoms: C_5  and  N_7 
REMARK    2  A    between atoms: N_7  and  C_8 
REMARK    3  A    between atoms: C_12  and  S_13 
REMARK    4  A    between atoms: S_13  and  N_16 
REMARK    5  A    between atoms: N_16  and  C_17 
REMARK    6  A    between atoms: C_25  and  N_26 
ROOT
ATOM      1  C   UNL d   1      24.411 -16.930  -1.539  0.00  0.00     0.036 A 
ATOM      2  C   UNL d   1      23.911 -15.703  -1.087  0.00  0.00     0.029 A 
ATOM      3  C   UNL d   1      22.556 -15.575  -0.749  0.00  0.00     0.004 A 
ATOM      4  C   UNL d   1      21.695 -16.669  -0.880  0.00  0.00     0.025 A 
ATOM      5  C   UNL d   1      22.204 -17.898  -1.320  0.00  0.00     0.083 A 
ATOM      6  C   UNL d   1      23.551 -18.025  -1.655  0.00  0.00     0.054 A 
ENDROOT
BRANCH   1   7
ATOM      7  N   UNL d   1      25.794 -17.069  -1.805  0.00  0.00    -0.323 N 
ATOM      8  C   UNL d   1      26.780 -16.719  -0.887  0.00  0.00     0.256 C 
ATOM      9  O   UNL d   1      26.539 -16.357   0.265  0.00  0.00    -0.267 OA
ATOM     10  H   UNL d   1      26.034 -17.548  -2.661  0.00  0.00     0.169 HD
BRANCH   8  11
ATOM     11  C   UNL d   1      28.224 -16.839  -1.289  0.00  0.00     0.033 A 
ATOM     12  C   UNL d   1      28.581 -16.454  -2.601  0.00  0.00     0.026 A 
ATOM     13  C   UNL d   1      29.910 -16.540  -3.083  0.00  0.00    -0.028 A 
ATOM     14  C   UNL d   1      30.197 -16.091  -4.490  0.00  0.00     0.050 C 
ATOM     15  C   UNL d   1      30.901 -17.036  -2.213  0.00  0.00     0.108 A 
ATOM     16  C   UNL d   1      30.550 -17.419  -0.904  0.00  0.00     0.037 A 
ATOM     17  C   UNL d   1      29.227 -17.319  -0.445  0.00  0.00     0.019 A 
BRANCH  15  18
ATOM     18  N   UNL d   1      32.325 -17.171  -2.612  0.00  0.00    -0.115 N 
ATOM     19  O   UNL d   1      32.786 -18.320  -2.688  0.00  0.00    -0.532 OA
ATOM     20  O   UNL d   1      32.987 -16.154  -2.848  0.00  0.00    -0.532 OA
ENDBRANCH  15  18
ENDBRANCH   8  11
ENDBRANCH   1   7
BRANCH   5  21
ATOM     21  S   UNL d   1      21.131 -19.328  -1.372  0.00  0.00     0.284 S 
ATOM     22  O   UNL d   1      21.062 -19.700  -2.770  0.00  0.00    -0.198 OA
ATOM     23  O   UNL d   1      21.687 -20.263  -0.401  0.00  0.00    -0.198 OA
BRANCH  21  24
ATOM     24  N   UNL d   1      19.654 -18.822  -0.895  0.00  0.00    -0.147 NA
BRANCH  24  25
ATOM     25  C   UNL d   1      18.917 -19.561  -0.143  0.00  0.00     0.113 C 
ATOM     26  C   UNL d   1      18.919 -19.408   1.374  0.00  0.00     0.080 C 
ATOM     27  C   UNL d   1      18.331 -20.751   1.829  0.00  0.00     0.027 C 
ATOM     28  C   UNL d   1      17.412 -21.173   0.683  0.00  0.00     0.121 C 
ATOM     29  N   UNL d   1      18.031 -20.551  -0.457  0.00  0.00    -0.378 N 
ATOM     30  H   UNL d   1      17.930 -20.905  -1.406  0.00  0.00     0.160 HD
ENDBRANCH  24  25
ENDBRANCH  21  24
ENDBRANCH   5  21
TORSDOF 6
ENDMDL
