MODEL 1
REMARK VINA RESULT:    -8.436      0.000      0.000
REMARK INTER + INTRA:         -12.080
REMARK INTER:                 -10.226
REMARK INTRA:                  -1.854
REMARK CONF_INDEPENDENT:        1.790
REMARK UNBOUND:                -1.854
REMARK  6 active torsions:
REMARK  status: ('A' for Active; 'I' for Inactive)
REMARK    1  A    between atoms: O_2  and  C_3 
REMARK       I    between atoms: C_3  and  N_5 
REMARK    2  A    between atoms: N_5  and  C_6 
REMARK    3  A    between atoms: C_8  and  N_9 
REMARK       I    between atoms: N_9  and  C_10 
REMARK    4  A    between atoms: C_10  and  C_12 
REMARK       I    between atoms: C_12  and  N_14 
REMARK    5  A    between atoms: N_14  and  C_15 
REMARK    6  A    between atoms: C_15  and  C_16 
ROOT
ATOM      1  N   UNL d   1      26.035 -14.644  -2.484  0.00  0.00    -0.319 N 
ATOM      2  C   UNL d   1      25.487 -14.031  -3.633  0.00  0.00     0.313 C 
ATOM      3  O   UNL d   1      24.457 -14.334  -4.228  0.00  0.00    -0.262 OA
ATOM      4  H   UNL d   1      26.908 -14.253  -2.140  0.00  0.00     0.169 HD
ENDROOT
BRANCH   1   5
ATOM      5  C   UNL d   1      25.462 -15.770  -1.791  0.00  0.00     0.037 A 
ATOM      6  C   UNL d   1      24.054 -15.952  -1.645  0.00  0.00     0.062 A 
ATOM      7  C   UNL d   1      23.535 -17.041  -0.882  0.00  0.00     0.077 A 
ATOM      8  C   UNL d   1      24.435 -17.980  -0.361  0.00  0.00     0.143 A 
ATOM      9  C   UNL d   1      25.796 -17.831  -0.522  0.00  0.00     0.047 A 
ATOM     10  F   UNL d   1      24.002 -19.103   0.232  0.00  0.00    -0.204 F 
ATOM     11  C   UNL d   1      26.297 -16.732  -1.211  0.00  0.00     0.032 A 
BRANCH   7  12
ATOM     12  N   UNL d   1      22.140 -17.217  -0.635  0.00  0.00    -0.300 N 
ATOM     13  C   UNL d   1      21.443 -18.328  -1.097  0.00  0.00     0.364 C 
ATOM     14  O   UNL d   1      21.948 -19.308  -1.645  0.00  0.00    -0.238 OA
ATOM     15  H   UNL d   1      21.649 -16.596  -0.006  0.00  0.00     0.171 HD
BRANCH  13  16
ATOM     16  O   UNL d   1      20.111 -18.268  -0.796  0.00  0.00    -0.309 OA
ATOM     17  C   UNL d   1      19.565 -19.534  -0.369  0.00  0.00     0.215 C 
ENDBRANCH  13  16
ENDBRANCH   7  12
ENDBRANCH   1   5
BRANCH   2  18
ATOM     18  C   UNL d   1      26.256 -12.824  -4.234  0.00  0.00     0.309 C 
ATOM     19  O   UNL d   1      27.393 -12.566  -3.867  0.00  0.00    -0.262 OA
ATOM     20  N   UNL d   1      25.533 -12.111  -5.187  0.00  0.00    -0.349 N 
ATOM     21  H   UNL d   1      24.588 -12.433  -5.394  0.00  0.00     0.163 HD
BRANCH  20  22
ATOM     22  C   UNL d   1      26.059 -10.946  -5.869  0.00  0.00     0.161 C 
BRANCH  22  23
ATOM     23  C   UNL d   1      25.617  -9.637  -5.254  0.00  0.00    -0.039 A 
ATOM     24  C   UNL d   1      26.237  -9.124  -4.100  0.00  0.00     0.009 A 
ATOM     25  C   UNL d   1      25.824  -7.908  -3.541  0.00  0.00     0.002 A 
ATOM     26  C   UNL d   1      24.780  -7.189  -4.121  0.00  0.00     0.024 A 
ATOM     27  C   UNL d   1      24.162  -7.684  -5.266  0.00  0.00     0.034 A 
ATOM     28 CL   UNL d   1      22.862  -6.808  -5.978  0.00  0.00    -0.084 Cl
ATOM     29  C   UNL d   1      24.580  -8.890  -5.837  0.00  0.00     0.032 A 
ENDBRANCH  22  23
ENDBRANCH  20  22
ENDBRANCH   2  18
TORSDOF 6
ENDMDL
MODEL 2
REMARK VINA RESULT:    -8.256      1.032      1.384
REMARK INTER + INTRA:         -11.953
REMARK INTER:                 -10.046
REMARK INTRA:                  -1.907
REMARK CONF_INDEPENDENT:        1.790
REMARK UNBOUND:                -1.907
REMARK  6 active torsions:
REMARK  status: ('A' for Active; 'I' for Inactive)
REMARK    1  A    between atoms: O_2  and  C_3 
REMARK       I    between atoms: C_3  and  N_5 
REMARK    2  A    between atoms: N_5  and  C_6 
REMARK    3  A    between atoms: C_8  and  N_9 
REMARK       I    between atoms: N_9  and  C_10 
REMARK    4  A    between atoms: C_10  and  C_12 
REMARK       I    between atoms: C_12  and  N_14 
REMARK    5  A    between atoms: N_14  and  C_15 
REMARK    6  A    between atoms: C_15  and  C_16 
ROOT
ATOM      1  N   UNL d   1      26.063 -14.657  -2.464  0.00  0.00    -0.319 N 
ATOM      2  C   UNL d   1      25.474 -13.978  -3.553  0.00  0.00     0.313 C 
ATOM      3  O   UNL d   1      24.396 -14.213  -4.093  0.00  0.00    -0.262 OA
ATOM      4  H   UNL d   1      26.972 -14.316  -2.162  0.00  0.00     0.169 HD
ENDROOT
BRANCH   1   5
ATOM      5  C   UNL d   1      25.484 -15.783  -1.777  0.00  0.00     0.037 A 
ATOM      6  C   UNL d   1      24.074 -15.967  -1.647  0.00  0.00     0.062 A 
ATOM      7  C   UNL d   1      23.548 -17.057  -0.889  0.00  0.00     0.077 A 
ATOM      8  C   UNL d   1      24.444 -17.994  -0.357  0.00  0.00     0.143 A 
ATOM      9  C   UNL d   1      25.806 -17.843  -0.503  0.00  0.00     0.047 A 
ATOM     10  F   UNL d   1      24.005 -19.118   0.232  0.00  0.00    -0.204 F 
ATOM     11  C   UNL d   1      26.314 -16.744  -1.186  0.00  0.00     0.032 A 
BRANCH   7  12
ATOM     12  N   UNL d   1      22.151 -17.235  -0.657  0.00  0.00    -0.300 N 
ATOM     13  C   UNL d   1      21.461 -18.346  -1.130  0.00  0.00     0.364 C 
ATOM     14  O   UNL d   1      21.972 -19.325  -1.673  0.00  0.00    -0.238 OA
ATOM     15  H   UNL d   1      21.652 -16.616  -0.034  0.00  0.00     0.171 HD
BRANCH  13  16
ATOM     16  O   UNL d   1      20.125 -18.288  -0.843  0.00  0.00    -0.309 OA
ATOM     17  C   UNL d   1      19.556 -19.573  -0.515  0.00  0.00     0.215 C 
ENDBRANCH  13  16
ENDBRANCH   7  12
ENDBRANCH   1   5
BRANCH   2  18
ATOM     18  C   UNL d   1      26.257 -12.782  -4.158  0.00  0.00     0.309 C 
ATOM     19  O   UNL d   1      27.365 -12.488  -3.736  0.00  0.00    -0.262 OA
ATOM     20  N   UNL d   1      25.580 -12.122  -5.181  0.00  0.00    -0.349 N 
ATOM     21  H   UNL d   1      24.655 -12.470  -5.430  0.00  0.00     0.163 HD
BRANCH  20  22
ATOM     22  C   UNL d   1      26.128 -10.977  -5.880  0.00  0.00     0.161 C 
BRANCH  22  23
ATOM     23  C   UNL d   1      25.654  -9.651  -5.325  0.00  0.00    -0.039 A 
ATOM     24  C   UNL d   1      24.886  -8.766  -6.103  0.00  0.00     0.009 A 
ATOM     25  C   UNL d   1      24.446  -7.543  -5.579  0.00  0.00     0.002 A 
ATOM     26  C   UNL d   1      24.774  -7.183  -4.273  0.00  0.00     0.024 A 
ATOM     27  C   UNL d   1      25.529  -8.054  -3.492  0.00  0.00     0.034 A 
ATOM     28 CL   UNL d   1      25.948  -7.608  -1.883  0.00  0.00    -0.084 Cl
ATOM     29  C   UNL d   1      25.957  -9.282  -4.005  0.00  0.00     0.032 A 
ENDBRANCH  22  23
ENDBRANCH  20  22
ENDBRANCH   2  18
TORSDOF 6
ENDMDL
MODEL 3
REMARK VINA RESULT:    -8.105      2.547      3.549
REMARK INTER + INTRA:         -11.806
REMARK INTER:                  -9.894
REMARK INTRA:                  -1.912
REMARK CONF_INDEPENDENT:        1.790
REMARK UNBOUND:                -1.912
REMARK  6 active torsions:
REMARK  status: ('A' for Active; 'I' for Inactive)
REMARK    1  A    between atoms: O_2  and  C_3 
REMARK       I    between atoms: C_3  and  N_5 
REMARK    2  A    between atoms: N_5  and  C_6 
REMARK    3  A    between atoms: C_8  and  N_9 
REMARK       I    between atoms: N_9  and  C_10 
REMARK    4  A    between atoms: C_10  and  C_12 
REMARK       I    between atoms: C_12  and  N_14 
REMARK    5  A    between atoms: N_14  and  C_15 
REMARK    6  A    between atoms: C_15  and  C_16 
ROOT
ATOM      1  N   UNL d   1      26.120 -14.671  -2.481  0.00  0.00    -0.319 N 
ATOM      2  C   UNL d   1      25.477 -13.952  -3.513  0.00  0.00     0.313 C 
ATOM      3  O   UNL d   1      24.338 -14.110  -3.943  0.00  0.00    -0.262 OA
ATOM      4  H   UNL d   1      27.076 -14.396  -2.271  0.00  0.00     0.169 HD
ENDROOT
BRANCH   1   5
ATOM      5  C   UNL d   1      25.532 -15.752  -1.731  0.00  0.00     0.037 A 
ATOM      6  C   UNL d   1      24.122 -15.955  -1.645  0.00  0.00     0.062 A 
ATOM      7  C   UNL d   1      23.584 -16.993  -0.827  0.00  0.00     0.077 A 
ATOM      8  C   UNL d   1      24.472 -17.867  -0.186  0.00  0.00     0.143 A 
ATOM      9  C   UNL d   1      25.837 -17.700  -0.288  0.00  0.00     0.047 A 
ATOM     10  F   UNL d   1      24.029 -18.950   0.470  0.00  0.00    -0.204 F 
ATOM     11  C   UNL d   1      26.353 -16.647  -1.035  0.00  0.00     0.032 A 
BRANCH   7  12
ATOM     12  N   UNL d   1      22.181 -17.181  -0.638  0.00  0.00    -0.300 N 
ATOM     13  C   UNL d   1      21.515 -18.301  -1.125  0.00  0.00     0.364 C 
ATOM     14  O   UNL d   1      22.052 -19.279  -1.644  0.00  0.00    -0.238 OA
ATOM     15  H   UNL d   1      21.657 -16.561  -0.036  0.00  0.00     0.171 HD
BRANCH  13  16
ATOM     16  O   UNL d   1      20.171 -18.253  -0.882  0.00  0.00    -0.309 OA
ATOM     17  C   UNL d   1      19.661 -19.447  -0.252  0.00  0.00     0.215 C 
ENDBRANCH  13  16
ENDBRANCH   7  12
ENDBRANCH   1   5
BRANCH   2  18
ATOM     18  C   UNL d   1      26.281 -12.816  -4.201  0.00  0.00     0.309 C 
ATOM     19  O   UNL d   1      27.455 -12.628  -3.919  0.00  0.00    -0.262 OA
ATOM     20  N   UNL d   1      25.543 -12.080  -5.125  0.00  0.00    -0.349 N 
ATOM     21  H   UNL d   1      24.567 -12.343  -5.258  0.00  0.00     0.163 HD
BRANCH  20  22
ATOM     22  C   UNL d   1      26.097 -10.972  -5.876  0.00  0.00     0.161 C 
BRANCH  22  23
ATOM     23  C   UNL d   1      26.971 -11.407  -7.033  0.00  0.00    -0.039 A 
ATOM     24  C   UNL d   1      26.655 -11.061  -8.358  0.00  0.00     0.009 A 
ATOM     25  C   UNL d   1      27.473 -11.463  -9.422  0.00  0.00     0.002 A 
ATOM     26  C   UNL d   1      28.615 -12.224  -9.178  0.00  0.00     0.024 A 
ATOM     27  C   UNL d   1      28.940 -12.569  -7.869  0.00  0.00     0.034 A 
ATOM     28 CL   UNL d   1      30.341 -13.522  -7.563  0.00  0.00    -0.084 Cl
ATOM     29  C   UNL d   1      28.136 -12.157  -6.802  0.00  0.00     0.032 A 
ENDBRANCH  22  23
ENDBRANCH  20  22
ENDBRANCH   2  18
TORSDOF 6
ENDMDL
MODEL 4
REMARK VINA RESULT:    -7.578      1.229      1.419
REMARK INTER + INTRA:         -11.074
REMARK INTER:                  -9.368
REMARK INTRA:                  -1.706
REMARK CONF_INDEPENDENT:        1.790
REMARK UNBOUND:                -1.706
REMARK  6 active torsions:
REMARK  status: ('A' for Active; 'I' for Inactive)
REMARK    1  A    between atoms: O_2  and  C_3 
REMARK       I    between atoms: C_3  and  N_5 
REMARK    2  A    between atoms: N_5  and  C_6 
REMARK    3  A    between atoms: C_8  and  N_9 
REMARK       I    between atoms: N_9  and  C_10 
REMARK    4  A    between atoms: C_10  and  C_12 
REMARK       I    between atoms: C_12  and  N_14 
REMARK    5  A    between atoms: N_14  and  C_15 
REMARK    6  A    between atoms: C_15  and  C_16 
ROOT
ATOM      1  N   UNL d   1      26.485 -15.699  -3.027  0.00  0.00    -0.319 N 
ATOM      2  C   UNL d   1      25.874 -14.744  -3.869  0.00  0.00     0.313 C 
ATOM      3  O   UNL d   1      24.705 -14.367  -3.857  0.00  0.00    -0.262 OA
ATOM      4  H   UNL d   1      27.470 -15.884  -3.199  0.00  0.00     0.169 HD
ENDROOT
BRANCH   1   5
ATOM      5  C   UNL d   1      25.820 -16.423  -1.974  0.00  0.00     0.037 A 
ATOM      6  C   UNL d   1      24.399 -16.534  -1.891  0.00  0.00     0.062 A 
ATOM      7  C   UNL d   1      23.783 -17.196  -0.786  0.00  0.00     0.077 A 
ATOM      8  C   UNL d   1      24.605 -17.816   0.164  0.00  0.00     0.143 A 
ATOM      9  C   UNL d   1      25.979 -17.742   0.077  0.00  0.00     0.047 A 
ATOM     10  F   UNL d   1      24.087 -18.580   1.138  0.00  0.00    -0.204 F 
ATOM     11  C   UNL d   1      26.572 -17.040  -0.967  0.00  0.00     0.032 A 
BRANCH   7  12
ATOM     12  N   UNL d   1      22.367 -17.257  -0.613  0.00  0.00    -0.300 N 
ATOM     13  C   UNL d   1      21.604 -18.294  -1.140  0.00  0.00     0.364 C 
ATOM     14  O   UNL d   1      22.052 -19.300  -1.688  0.00  0.00    -0.238 OA
ATOM     15  H   UNL d   1      21.898 -16.611   0.007  0.00  0.00     0.171 HD
BRANCH  13  16
ATOM     16  O   UNL d   1      20.268 -18.127  -0.903  0.00  0.00    -0.309 OA
ATOM     17  C   UNL d   1      19.585 -19.359  -0.591  0.00  0.00     0.215 C 
ENDBRANCH  13  16
ENDBRANCH   7  12
ENDBRANCH   1   5
BRANCH   2  18
ATOM     18  C   UNL d   1      26.764 -14.068  -4.947  0.00  0.00     0.309 C 
ATOM     19  O   UNL d   1      27.797 -14.601  -5.323  0.00  0.00    -0.262 OA
ATOM     20  N   UNL d   1      26.270 -12.849  -5.405  0.00  0.00    -0.349 N 
ATOM     21  H   UNL d   1      25.397 -12.517  -4.999  0.00  0.00     0.163 HD
BRANCH  20  22
ATOM     22  C   UNL d   1      26.947 -12.049  -6.406  0.00  0.00     0.161 C 
BRANCH  22  23
ATOM     23  C   UNL d   1      26.825 -10.559  -6.169  0.00  0.00    -0.039 A 
ATOM     24  C   UNL d   1      27.958  -9.728  -6.147  0.00  0.00     0.009 A 
ATOM     25  C   UNL d   1      27.836  -8.349  -5.933  0.00  0.00     0.002 A 
ATOM     26  C   UNL d   1      26.579  -7.781  -5.729  0.00  0.00     0.024 A 
ATOM     27  C   UNL d   1      25.449  -8.594  -5.755  0.00  0.00     0.034 A 
ATOM     28 CL   UNL d   1      23.895  -7.901  -5.489  0.00  0.00    -0.084 Cl
ATOM     29  C   UNL d   1      25.565  -9.969  -5.983  0.00  0.00     0.032 A 
ENDBRANCH  22  23
ENDBRANCH  20  22
ENDBRANCH   2  18
TORSDOF 6
ENDMDL
MODEL 5
REMARK VINA RESULT:    -7.460      8.363     10.376
REMARK INTER + INTRA:         -11.017
REMARK INTER:                  -9.250
REMARK INTRA:                  -1.767
REMARK CONF_INDEPENDENT:        1.790
REMARK UNBOUND:                -1.767
REMARK  6 active torsions:
REMARK  status: ('A' for Active; 'I' for Inactive)
REMARK    1  A    between atoms: O_2  and  C_3 
REMARK       I    between atoms: C_3  and  N_5 
REMARK    2  A    between atoms: N_5  and  C_6 
REMARK    3  A    between atoms: C_8  and  N_9 
REMARK       I    between atoms: N_9  and  C_10 
REMARK    4  A    between atoms: C_10  and  C_12 
REMARK       I    between atoms: C_12  and  N_14 
REMARK    5  A    between atoms: N_14  and  C_15 
REMARK    6  A    between atoms: C_15  and  C_16 
ROOT
ATOM      1  N   UNL d   1      28.411 -14.347   3.761  0.00  0.00    -0.319 N 
ATOM      2  C   UNL d   1      27.591 -13.825   2.736  0.00  0.00     0.313 C 
ATOM      3  O   UNL d   1      26.971 -12.764   2.736  0.00  0.00    -0.262 OA
ATOM      4  H   UNL d   1      28.836 -15.253   3.577  0.00  0.00     0.169 HD
ENDROOT
BRANCH   1   5
ATOM      5  C   UNL d   1      28.668 -13.707   5.025  0.00  0.00     0.037 A 
ATOM      6  C   UNL d   1      28.921 -14.439   6.224  0.00  0.00     0.062 A 
ATOM      7  C   UNL d   1      29.093 -13.761   7.469  0.00  0.00     0.077 A 
ATOM      8  C   UNL d   1      29.104 -12.360   7.471  0.00  0.00     0.143 A 
ATOM      9  C   UNL d   1      28.892 -11.642   6.313  0.00  0.00     0.047 A 
ATOM     10  F   UNL d   1      29.413 -11.669   8.579  0.00  0.00    -0.204 F 
ATOM     11  C   UNL d   1      28.660 -12.310   5.116  0.00  0.00     0.032 A 
BRANCH   7  12
ATOM     12  N   UNL d   1      29.261 -14.450   8.708  0.00  0.00    -0.300 N 
ATOM     13  C   UNL d   1      28.620 -14.041   9.873  0.00  0.00     0.364 C 
ATOM     14  O   UNL d   1      27.773 -13.151   9.944  0.00  0.00    -0.238 OA
ATOM     15  H   UNL d   1      29.756 -15.331   8.742  0.00  0.00     0.171 HD
BRANCH  13  16
ATOM     16  O   UNL d   1      28.964 -14.807  10.951  0.00  0.00    -0.309 OA
ATOM     17  C   UNL d   1      28.580 -14.220  12.213  0.00  0.00     0.215 C 
ENDBRANCH  13  16
ENDBRANCH   7  12
ENDBRANCH   1   5
BRANCH   2  18
ATOM     18  C   UNL d   1      27.440 -14.668   1.441  0.00  0.00     0.309 C 
ATOM     19  O   UNL d   1      28.132 -15.658   1.261  0.00  0.00    -0.262 OA
ATOM     20  N   UNL d   1      26.476 -14.183   0.560  0.00  0.00    -0.349 N 
ATOM     21  H   UNL d   1      25.974 -13.340   0.835  0.00  0.00     0.163 HD
BRANCH  20  22
ATOM     22  C   UNL d   1      26.177 -14.815  -0.709  0.00  0.00     0.161 C 
BRANCH  22  23
ATOM     23  C   UNL d   1      25.554 -16.187  -0.566  0.00  0.00    -0.039 A 
ATOM     24  C   UNL d   1      26.329 -17.311  -0.230  0.00  0.00     0.009 A 
ATOM     25  C   UNL d   1      25.743 -18.576  -0.094  0.00  0.00     0.002 A 
ATOM     26  C   UNL d   1      24.374 -18.738  -0.299  0.00  0.00     0.024 A 
ATOM     27  C   UNL d   1      23.595 -17.631  -0.626  0.00  0.00     0.034 A 
ATOM     28 CL   UNL d   1      21.906 -17.829  -0.895  0.00  0.00    -0.084 Cl
ATOM     29  C   UNL d   1      24.173 -16.364  -0.748  0.00  0.00     0.032 A 
ENDBRANCH  22  23
ENDBRANCH  20  22
ENDBRANCH   2  18
TORSDOF 6
ENDMDL
MODEL 6
REMARK VINA RESULT:    -7.141      4.082      5.141
REMARK INTER + INTRA:         -10.831
REMARK INTER:                  -8.931
REMARK INTRA:                  -1.901
REMARK CONF_INDEPENDENT:        1.790
REMARK UNBOUND:                -1.901
REMARK  6 active torsions:
REMARK  status: ('A' for Active; 'I' for Inactive)
REMARK    1  A    between atoms: O_2  and  C_3 
REMARK       I    between atoms: C_3  and  N_5 
REMARK    2  A    between atoms: N_5  and  C_6 
REMARK    3  A    between atoms: C_8  and  N_9 
REMARK       I    between atoms: N_9  and  C_10 
REMARK    4  A    between atoms: C_10  and  C_12 
REMARK       I    between atoms: C_12  and  N_14 
REMARK    5  A    between atoms: N_14  and  C_15 
REMARK    6  A    between atoms: C_15  and  C_16 
ROOT
ATOM      1  N   UNL d   1      26.443 -15.104  -2.541  0.00  0.00    -0.319 N 
ATOM      2  C   UNL d   1      26.450 -15.083  -3.953  0.00  0.00     0.313 C 
ATOM      3  O   UNL d   1      25.883 -15.856  -4.721  0.00  0.00    -0.262 OA
ATOM      4  H   UNL d   1      26.984 -14.379  -2.079  0.00  0.00     0.169 HD
ENDROOT
BRANCH   1   5
ATOM      5  C   UNL d   1      25.747 -16.070  -1.730  0.00  0.00     0.037 A 
ATOM      6  C   UNL d   1      24.323 -16.150  -1.673  0.00  0.00     0.062 A 
ATOM      7  C   UNL d   1      23.679 -17.072  -0.795  0.00  0.00     0.077 A 
ATOM      8  C   UNL d   1      24.474 -17.962  -0.061  0.00  0.00     0.143 A 
ATOM      9  C   UNL d   1      25.850 -17.916  -0.132  0.00  0.00     0.047 A 
ATOM     10  F   UNL d   1      23.924 -18.950   0.662  0.00  0.00    -0.204 F 
ATOM     11  C   UNL d   1      26.472 -16.971  -0.940  0.00  0.00     0.032 A 
BRANCH   7  12
ATOM     12  N   UNL d   1      22.261 -17.130  -0.638  0.00  0.00    -0.300 N 
ATOM     13  C   UNL d   1      21.510 -18.206  -1.100  0.00  0.00     0.364 C 
ATOM     14  O   UNL d   1      21.971 -19.246  -1.568  0.00  0.00    -0.238 OA
ATOM     15  H   UNL d   1      21.779 -16.443  -0.073  0.00  0.00     0.171 HD
BRANCH  13  16
ATOM     16  O   UNL d   1      20.170 -18.030  -0.896  0.00  0.00    -0.309 OA
ATOM     17  C   UNL d   1      19.500 -19.227  -0.448  0.00  0.00     0.215 C 
ENDBRANCH  13  16
ENDBRANCH   7  12
ENDBRANCH   1   5
BRANCH   2  18
ATOM     18  C   UNL d   1      27.261 -13.955  -4.647  0.00  0.00     0.309 C 
ATOM     19  O   UNL d   1      27.690 -13.011  -4.000  0.00  0.00    -0.262 OA
ATOM     20  N   UNL d   1      27.428 -14.139  -6.017  0.00  0.00    -0.349 N 
ATOM     21  H   UNL d   1      27.010 -14.971  -6.431  0.00  0.00     0.163 HD
BRANCH  20  22
ATOM     22  C   UNL d   1      28.148 -13.203  -6.858  0.00  0.00     0.161 C 
BRANCH  22  23
ATOM     23  C   UNL d   1      29.523 -13.691  -7.260  0.00  0.00    -0.039 A 
ATOM     24  C   UNL d   1      30.403 -12.874  -7.991  0.00  0.00     0.009 A 
ATOM     25  C   UNL d   1      31.677 -13.332  -8.353  0.00  0.00     0.002 A 
ATOM     26  C   UNL d   1      32.086 -14.616  -7.998  0.00  0.00     0.024 A 
ATOM     27  C   UNL d   1      31.225 -15.431  -7.269  0.00  0.00     0.034 A 
ATOM     28 CL   UNL d   1      31.720 -17.024  -6.839  0.00  0.00    -0.084 Cl
ATOM     29  C   UNL d   1      29.959 -14.974  -6.891  0.00  0.00     0.032 A 
ENDBRANCH  22  23
ENDBRANCH  20  22
ENDBRANCH   2  18
TORSDOF 6
ENDMDL
MODEL 7
REMARK VINA RESULT:    -7.098      2.568      3.143
REMARK INTER + INTRA:         -10.700
REMARK INTER:                  -8.888
REMARK INTRA:                  -1.812
REMARK CONF_INDEPENDENT:        1.790
REMARK UNBOUND:                -1.812
REMARK  6 active torsions:
REMARK  status: ('A' for Active; 'I' for Inactive)
REMARK    1  A    between atoms: O_2  and  C_3 
REMARK       I    between atoms: C_3  and  N_5 
REMARK    2  A    between atoms: N_5  and  C_6 
REMARK    3  A    between atoms: C_8  and  N_9 
REMARK       I    between atoms: N_9  and  C_10 
REMARK    4  A    between atoms: C_10  and  C_12 
REMARK       I    between atoms: C_12  and  N_14 
REMARK    5  A    between atoms: N_14  and  C_15 
REMARK    6  A    between atoms: C_15  and  C_16 
ROOT
ATOM      1  N   UNL d   1      25.963 -16.002  -3.267  0.00  0.00    -0.319 N 
ATOM      2  C   UNL d   1      27.276 -15.525  -3.477  0.00  0.00     0.313 C 
ATOM      3  O   UNL d   1      28.229 -15.580  -2.704  0.00  0.00    -0.262 OA
ATOM      4  H   UNL d   1      25.306 -15.854  -4.028  0.00  0.00     0.169 HD
ENDROOT
BRANCH   1   5
ATOM      5  C   UNL d   1      25.499 -16.655  -2.070  0.00  0.00     0.037 A 
ATOM      6  C   UNL d   1      24.119 -16.917  -1.818  0.00  0.00     0.062 A 
ATOM      7  C   UNL d   1      23.700 -17.496  -0.582  0.00  0.00     0.077 A 
ATOM      8  C   UNL d   1      24.681 -17.889   0.337  0.00  0.00     0.143 A 
ATOM      9  C   UNL d   1      26.020 -17.670   0.091  0.00  0.00     0.047 A 
ATOM     10  F   UNL d   1      24.360 -18.575   1.445  0.00  0.00    -0.204 F 
ATOM     11  C   UNL d   1      26.416 -17.046  -1.086  0.00  0.00     0.032 A 
BRANCH   7  12
ATOM     12  N   UNL d   1      22.327 -17.697  -0.248  0.00  0.00    -0.300 N 
ATOM     13  C   UNL d   1      21.512 -18.567  -0.966  0.00  0.00     0.364 C 
ATOM     14  O   UNL d   1      21.892 -19.325  -1.858  0.00  0.00    -0.238 OA
ATOM     15  H   UNL d   1      21.943 -17.305   0.601  0.00  0.00     0.171 HD
BRANCH  13  16
ATOM     16  O   UNL d   1      20.223 -18.565  -0.511  0.00  0.00    -0.309 OA
ATOM     17  C   UNL d   1      19.837 -19.807   0.114  0.00  0.00     0.215 C 
ENDBRANCH  13  16
ENDBRANCH   7  12
ENDBRANCH   1   5
BRANCH   2  18
ATOM     18  C   UNL d   1      27.581 -14.849  -4.840  0.00  0.00     0.309 C 
ATOM     19  O   UNL d   1      26.855 -15.039  -5.804  0.00  0.00    -0.262 OA
ATOM     20  N   UNL d   1      28.721 -14.048  -4.832  0.00  0.00    -0.349 N 
ATOM     21  H   UNL d   1      29.240 -13.983  -3.957  0.00  0.00     0.163 HD
BRANCH  20  22
ATOM     22  C   UNL d   1      29.190 -13.329  -5.999  0.00  0.00     0.161 C 
BRANCH  22  23
ATOM     23  C   UNL d   1      28.171 -12.359  -6.558  0.00  0.00    -0.039 A 
ATOM     24  C   UNL d   1      27.370 -11.572  -5.712  0.00  0.00     0.009 A 
ATOM     25  C   UNL d   1      26.435 -10.672  -6.238  0.00  0.00     0.002 A 
ATOM     26  C   UNL d   1      26.279 -10.551  -7.618  0.00  0.00     0.024 A 
ATOM     27  C   UNL d   1      27.071 -11.322  -8.466  0.00  0.00     0.034 A 
ATOM     28 CL   UNL d   1      26.873 -11.187 -10.171  0.00  0.00    -0.084 Cl
ATOM     29  C   UNL d   1      28.017 -12.210  -7.946  0.00  0.00     0.032 A 
ENDBRANCH  22  23
ENDBRANCH  20  22
ENDBRANCH   2  18
TORSDOF 6
ENDMDL
MODEL 8
REMARK VINA RESULT:    -7.066      4.815      9.563
REMARK INTER + INTRA:         -10.730
REMARK INTER:                  -8.856
REMARK INTRA:                  -1.874
REMARK CONF_INDEPENDENT:        1.790
REMARK UNBOUND:                -1.874
REMARK  6 active torsions:
REMARK  status: ('A' for Active; 'I' for Inactive)
REMARK    1  A    between atoms: O_2  and  C_3 
REMARK       I    between atoms: C_3  and  N_5 
REMARK    2  A    between atoms: N_5  and  C_6 
REMARK    3  A    between atoms: C_8  and  N_9 
REMARK       I    between atoms: N_9  and  C_10 
REMARK    4  A    between atoms: C_10  and  C_12 
REMARK       I    between atoms: C_12  and  N_14 
REMARK    5  A    between atoms: N_14  and  C_15 
REMARK    6  A    between atoms: C_15  and  C_16 
ROOT
ATOM      1  N   UNL d   1      25.306 -11.006  -3.623  0.00  0.00    -0.319 N 
ATOM      2  C   UNL d   1      25.911 -12.093  -2.954  0.00  0.00     0.313 C 
ATOM      3  O   UNL d   1      26.716 -12.052  -2.026  0.00  0.00    -0.262 OA
ATOM      4  H   UNL d   1      24.667 -11.244  -4.377  0.00  0.00     0.169 HD
ENDROOT
BRANCH   1   5
ATOM      5  C   UNL d   1      25.537  -9.616  -3.326  0.00  0.00     0.037 A 
ATOM      6  C   UNL d   1      25.906  -9.154  -2.027  0.00  0.00     0.062 A 
ATOM      7  C   UNL d   1      26.048  -7.758  -1.762  0.00  0.00     0.077 A 
ATOM      8  C   UNL d   1      25.911  -6.859  -2.828  0.00  0.00     0.143 A 
ATOM      9  C   UNL d   1      25.586  -7.296  -4.095  0.00  0.00     0.047 A 
ATOM     10  F   UNL d   1      26.182  -5.554  -2.675  0.00  0.00    -0.204 F 
ATOM     11  C   UNL d   1      25.385  -8.652  -4.331  0.00  0.00     0.032 A 
BRANCH   7  12
ATOM     12  N   UNL d   1      26.329  -7.242  -0.461  0.00  0.00    -0.300 N 
ATOM     13  C   UNL d   1      25.472  -7.448   0.615  0.00  0.00     0.364 C 
ATOM     14  O   UNL d   1      24.477  -8.171   0.604  0.00  0.00    -0.238 OA
ATOM     15  H   UNL d   1      27.224  -6.817  -0.261  0.00  0.00     0.171 HD
BRANCH  13  16
ATOM     16  O   UNL d   1      25.905  -6.822   1.750  0.00  0.00    -0.309 OA
ATOM     17  C   UNL d   1      25.995  -5.388   1.612  0.00  0.00     0.215 C 
ENDBRANCH  13  16
ENDBRANCH   7  12
ENDBRANCH   1   5
BRANCH   2  18
ATOM     18  C   UNL d   1      25.529 -13.523  -3.421  0.00  0.00     0.309 C 
ATOM     19  O   UNL d   1      24.717 -13.686  -4.319  0.00  0.00    -0.262 OA
ATOM     20  N   UNL d   1      26.186 -14.538  -2.730  0.00  0.00    -0.349 N 
ATOM     21  H   UNL d   1      26.837 -14.259  -1.997  0.00  0.00     0.163 HD
BRANCH  20  22
ATOM     22  C   UNL d   1      25.973 -15.945  -3.003  0.00  0.00     0.161 C 
BRANCH  22  23
ATOM     23  C   UNL d   1      25.531 -16.733  -1.789  0.00  0.00    -0.039 A 
ATOM     24  C   UNL d   1      26.436 -17.075  -0.769  0.00  0.00     0.009 A 
ATOM     25  C   UNL d   1      26.016 -17.799   0.354  0.00  0.00     0.002 A 
ATOM     26  C   UNL d   1      24.687 -18.200   0.471  0.00  0.00     0.024 A 
ATOM     27  C   UNL d   1      23.780 -17.863  -0.530  0.00  0.00     0.034 A 
ATOM     28 CL   UNL d   1      22.139 -18.369  -0.398  0.00  0.00    -0.084 Cl
ATOM     29  C   UNL d   1      24.190 -17.127  -1.645  0.00  0.00     0.032 A 
ENDBRANCH  22  23
ENDBRANCH  20  22
ENDBRANCH   2  18
TORSDOF 6
ENDMDL
MODEL 9
REMARK VINA RESULT:    -6.834      4.866      6.118
REMARK INTER + INTRA:         -10.466
REMARK INTER:                  -8.624
REMARK INTRA:                  -1.843
REMARK CONF_INDEPENDENT:        1.790
REMARK UNBOUND:                -1.843
REMARK  6 active torsions:
REMARK  status: ('A' for Active; 'I' for Inactive)
REMARK    1  A    between atoms: O_2  and  C_3 
REMARK       I    between atoms: C_3  and  N_5 
REMARK    2  A    between atoms: N_5  and  C_6 
REMARK    3  A    between atoms: C_8  and  N_9 
REMARK       I    between atoms: N_9  and  C_10 
REMARK    4  A    between atoms: C_10  and  C_12 
REMARK       I    between atoms: C_12  and  N_14 
REMARK    5  A    between atoms: N_14  and  C_15 
REMARK    6  A    between atoms: C_15  and  C_16 
ROOT
ATOM      1  N   UNL d   1      26.329 -15.847  -3.408  0.00  0.00    -0.319 N 
ATOM      2  C   UNL d   1      27.688 -15.575  -3.678  0.00  0.00     0.313 C 
ATOM      3  O   UNL d   1      28.658 -15.798  -2.958  0.00  0.00    -0.262 OA
ATOM      4  H   UNL d   1      25.666 -15.579  -4.131  0.00  0.00     0.169 HD
ENDROOT
BRANCH   1   5
ATOM      5  C   UNL d   1      25.828 -16.452  -2.201  0.00  0.00     0.037 A 
ATOM      6  C   UNL d   1      24.446 -16.744  -1.999  0.00  0.00     0.062 A 
ATOM      7  C   UNL d   1      23.986 -17.271  -0.755  0.00  0.00     0.077 A 
ATOM      8  C   UNL d   1      24.933 -17.585   0.229  0.00  0.00     0.143 A 
ATOM      9  C   UNL d   1      26.275 -17.337   0.033  0.00  0.00     0.047 A 
ATOM     10  F   UNL d   1      24.580 -18.222   1.355  0.00  0.00    -0.204 F 
ATOM     11  C   UNL d   1      26.708 -16.762  -1.157  0.00  0.00     0.032 A 
BRANCH   7  12
ATOM     12  N   UNL d   1      22.604 -17.498  -0.473  0.00  0.00    -0.300 N 
ATOM     13  C   UNL d   1      21.872 -18.485  -1.123  0.00  0.00     0.364 C 
ATOM     14  O   UNL d   1      22.335 -19.325  -1.893  0.00  0.00    -0.238 OA
ATOM     15  H   UNL d   1      22.155 -17.025   0.299  0.00  0.00     0.171 HD
BRANCH  13  16
ATOM     16  O   UNL d   1      20.559 -18.492  -0.742  0.00  0.00    -0.309 OA
ATOM     17  C   UNL d   1      20.208 -19.627   0.078  0.00  0.00     0.215 C 
ENDBRANCH  13  16
ENDBRANCH   7  12
ENDBRANCH   1   5
BRANCH   2  18
ATOM     18  C   UNL d   1      28.029 -14.919  -5.043  0.00  0.00     0.309 C 
ATOM     19  O   UNL d   1      27.178 -14.823  -5.915  0.00  0.00    -0.262 OA
ATOM     20  N   UNL d   1      29.347 -14.480  -5.147  0.00  0.00    -0.349 N 
ATOM     21  H   UNL d   1      29.954 -14.630  -4.342  0.00  0.00     0.163 HD
BRANCH  20  22
ATOM     22  C   UNL d   1      29.876 -13.844  -6.337  0.00  0.00     0.161 C 
BRANCH  22  23
ATOM     23  C   UNL d   1      30.840 -14.719  -7.109  0.00  0.00    -0.039 A 
ATOM     24  C   UNL d   1      31.851 -14.162  -7.911  0.00  0.00     0.009 A 
ATOM     25  C   UNL d   1      32.743 -14.980  -8.617  0.00  0.00     0.002 A 
ATOM     26  C   UNL d   1      32.632 -16.368  -8.538  0.00  0.00     0.024 A 
ATOM     27  C   UNL d   1      31.638 -16.930  -7.743  0.00  0.00     0.034 A 
ATOM     28 CL   UNL d   1      31.487 -18.643  -7.653  0.00  0.00    -0.084 Cl
ATOM     29  C   UNL d   1      30.755 -16.119  -7.024  0.00  0.00     0.032 A 
ENDBRANCH  22  23
ENDBRANCH  20  22
ENDBRANCH   2  18
TORSDOF 6
ENDMDL
