MODEL 1
REMARK VINA RESULT:   -22.863      0.000      0.000
REMARK INTER + INTRA:         -27.145
REMARK INTER:                 -26.442
REMARK INTRA:                  -0.703
REMARK CONF_INDEPENDENT:        3.580
REMARK UNBOUND:                -0.703
REMARK  12 active torsions:
REMARK  status: ('A' for Active; 'I' for Inactive)
REMARK    1  A    between atoms: C_2  and  C_3 
REMARK    2  A    between atoms: C_3  and  C_4 
REMARK    3  A    between atoms: C_4  and  O_5 
REMARK    4  A    between atoms: O_5  and  C_6 
REMARK    5  A    between atoms: C_11  and  C_12 
REMARK    6  A    between atoms: C_12  and  N_13 
REMARK       I    between atoms: N_13  and  C_14 
REMARK       I    between atoms: C_14  and  N_16 
REMARK    7  A    between atoms: N_16  and  C_17 
REMARK    8  A    between atoms: C_17  and  C_18 
REMARK    9  A    between atoms: C_18  and  O_19 
REMARK   10  A    between atoms: C_18  and  C_20 
REMARK   11  A    between atoms: C_20  and  O_21 
REMARK   12  A    between atoms: O_21  and  C_22 
ROOT
ATOM      1  N   UNL d   1      24.625 -18.671   0.376  0.00  0.00    -0.339 N 
ATOM      2  C   UNL d   1      25.259 -17.784  -0.455  0.00  0.00     0.316 C 
ATOM      3  O   UNL d   1      24.861 -17.506  -1.584  0.00  0.00    -0.247 OA
ATOM      4  N   UNL d   1      26.364 -17.213   0.114  0.00  0.00    -0.341 N 
ATOM      5  H   UNL d   1      25.134 -18.990   1.179  0.00  0.00     0.164 HD
ATOM      6  H   UNL d   1      26.731 -17.572   0.984  0.00  0.00     0.164 HD
ENDROOT
BRANCH   1   7
ATOM      7  C   UNL d   1      23.517 -19.447  -0.140  0.00  0.00     0.167 C 
BRANCH   7   8
ATOM      8  C   UNL d   1      22.243 -18.732  -0.516  0.00  0.00     0.013 A 
ATOM      9  C   UNL d   1      22.261 -17.379  -0.892  0.00  0.00     0.014 A 
ATOM     10  C   UNL d   1      21.099 -16.725  -1.270  0.00  0.00     0.020 A 
ATOM     11  C   UNL d   1      19.925 -17.445  -1.270  0.00  0.00     0.119 A 
ATOM     12  N   UNL d   1      19.847 -18.743  -0.901  0.00  0.00    -0.237 NA
ATOM     13  C   UNL d   1      20.988 -19.371  -0.512  0.00  0.00     0.172 A 
BRANCH  13  14
ATOM     14  O   UNL d   1      20.782 -20.704  -0.243  0.00  0.00    -0.334 OA
BRANCH  14  15
ATOM     15  C   UNL d   1      19.579 -21.015   0.454  0.00  0.00     0.177 C 
BRANCH  15  16
ATOM     16  C   UNL d   1      19.108 -19.847   1.304  0.00  0.00     0.026 C 
BRANCH  16  17
ATOM     17  C   UNL d   1      18.929 -20.302   2.755  0.00  0.00    -0.002 C 
ATOM     18  C   UNL d   1      20.273 -20.471   3.432  0.00  0.00     0.005 C 
ENDBRANCH  16  17
ENDBRANCH  15  16
ENDBRANCH  14  15
ENDBRANCH  13  14
ENDBRANCH   7   8
ENDBRANCH   1   7
BRANCH   4  19
ATOM     19  C   UNL d   1      27.135 -16.203  -0.600  0.00  0.00     0.158 C 
BRANCH  19  20
ATOM     20  C   UNL d   1      28.647 -16.289  -0.331  0.00  0.00     0.160 C 
BRANCH  20  21
ATOM     21  O   UNL d   1      28.978 -17.650  -0.010  0.00  0.00    -0.392 OA
ATOM     22  H   UNL d   1      29.730 -17.636   0.606  0.00  0.00     0.210 HD
ENDBRANCH  20  21
BRANCH  20  23
ATOM     23  C   UNL d   1      29.462 -15.787  -1.546  0.00  0.00     0.209 C 
BRANCH  23  24
ATOM     24  O   UNL d   1      28.566 -15.252  -2.535  0.00  0.00    -0.349 OA
BRANCH  24  25
ATOM     25  C   UNL d   1      28.950 -15.405  -3.841  0.00  0.00     0.069 A 
ATOM     26  C   UNL d   1      28.542 -14.568  -4.883  0.00  0.00     0.040 A 
ATOM     27  C   UNL d   1      29.049 -14.753  -6.173  0.00  0.00     0.045 A 
ATOM     28  C   UNL d   1      29.971 -15.765  -6.415  0.00  0.00     0.116 A 
ATOM     29  F   UNL d   1      30.462 -15.930  -7.651  0.00  0.00    -0.206 F 
ATOM     30  C   UNL d   1      30.397 -16.598  -5.389  0.00  0.00     0.045 A 
ATOM     31  C   UNL d   1      29.889 -16.412  -4.098  0.00  0.00     0.040 A 
ENDBRANCH  24  25
ENDBRANCH  23  24
ENDBRANCH  20  23
ENDBRANCH  19  20
ENDBRANCH   4  19
TORSDOF 12
ENDMDL
MODEL 2
REMARK VINA RESULT:   -22.785      3.966      5.669
REMARK INTER + INTRA:         -27.628
REMARK INTER:                 -26.364
REMARK INTRA:                  -1.263
REMARK CONF_INDEPENDENT:        3.580
REMARK UNBOUND:                -1.263
REMARK  12 active torsions:
REMARK  status: ('A' for Active; 'I' for Inactive)
REMARK    1  A    between atoms: C_2  and  C_3 
REMARK    2  A    between atoms: C_3  and  C_4 
REMARK    3  A    between atoms: C_4  and  O_5 
REMARK    4  A    between atoms: O_5  and  C_6 
REMARK    5  A    between atoms: C_11  and  C_12 
REMARK    6  A    between atoms: C_12  and  N_13 
REMARK       I    between atoms: N_13  and  C_14 
REMARK       I    between atoms: C_14  and  N_16 
REMARK    7  A    between atoms: N_16  and  C_17 
REMARK    8  A    between atoms: C_17  and  C_18 
REMARK    9  A    between atoms: C_18  and  O_19 
REMARK   10  A    between atoms: C_18  and  C_20 
REMARK   11  A    between atoms: C_20  and  O_21 
REMARK   12  A    between atoms: O_21  and  C_22 
ROOT
ATOM      1  N   UNL d   1      24.695 -18.535   0.225  0.00  0.00    -0.339 N 
ATOM      2  C   UNL d   1      25.312 -17.783  -0.740  0.00  0.00     0.316 C 
ATOM      3  O   UNL d   1      24.869 -17.641  -1.878  0.00  0.00    -0.247 OA
ATOM      4  N   UNL d   1      26.457 -17.178  -0.298  0.00  0.00    -0.341 N 
ATOM      5  H   UNL d   1      25.233 -18.764   1.041  0.00  0.00     0.164 HD
ATOM      6  H   UNL d   1      26.855 -17.434   0.595  0.00  0.00     0.164 HD
ENDROOT
BRANCH   1   7
ATOM      7  C   UNL d   1      23.545 -19.336  -0.137  0.00  0.00     0.167 C 
BRANCH   7   8
ATOM      8  C   UNL d   1      22.263 -18.636  -0.514  0.00  0.00     0.013 A 
ATOM      9  C   UNL d   1      22.265 -17.284  -0.891  0.00  0.00     0.014 A 
ATOM     10  C   UNL d   1      21.095 -16.643  -1.271  0.00  0.00     0.020 A 
ATOM     11  C   UNL d   1      19.930 -17.377  -1.269  0.00  0.00     0.119 A 
ATOM     12  N   UNL d   1      19.866 -18.674  -0.898  0.00  0.00    -0.237 NA
ATOM     13  C   UNL d   1      21.014 -19.289  -0.508  0.00  0.00     0.172 A 
BRANCH  13  14
ATOM     14  O   UNL d   1      20.824 -20.624  -0.237  0.00  0.00    -0.334 OA
BRANCH  14  15
ATOM     15  C   UNL d   1      20.327 -20.926   1.063  0.00  0.00     0.177 C 
BRANCH  15  16
ATOM     16  C   UNL d   1      19.574 -19.748   1.660  0.00  0.00     0.026 C 
BRANCH  16  17
ATOM     17  C   UNL d   1      18.154 -20.181   2.040  0.00  0.00    -0.002 C 
ATOM     18  C   UNL d   1      17.702 -21.344   1.181  0.00  0.00     0.005 C 
ENDBRANCH  16  17
ENDBRANCH  15  16
ENDBRANCH  14  15
ENDBRANCH  13  14
ENDBRANCH   7   8
ENDBRANCH   1   7
BRANCH   4  19
ATOM     19  C   UNL d   1      27.219 -16.294  -1.171  0.00  0.00     0.158 C 
BRANCH  19  20
ATOM     20  C   UNL d   1      27.794 -15.068  -0.441  0.00  0.00     0.160 C 
BRANCH  20  21
ATOM     21  O   UNL d   1      26.918 -13.951  -0.663  0.00  0.00    -0.392 OA
ATOM     22  H   UNL d   1      26.277 -13.925   0.067  0.00  0.00     0.210 HD
ENDBRANCH  20  21
BRANCH  20  23
ATOM     23  C   UNL d   1      27.971 -15.347   1.070  0.00  0.00     0.209 C 
BRANCH  23  24
ATOM     24  O   UNL d   1      27.764 -14.132   1.809  0.00  0.00    -0.349 OA
BRANCH  24  25
ATOM     25  C   UNL d   1      28.198 -14.136   3.109  0.00  0.00     0.069 A 
ATOM     26  C   UNL d   1      29.544 -14.155   3.486  0.00  0.00     0.040 A 
ATOM     27  C   UNL d   1      29.895 -14.077   4.838  0.00  0.00     0.045 A 
ATOM     28  C   UNL d   1      28.902 -13.968   5.806  0.00  0.00     0.116 A 
ATOM     29  F   UNL d   1      29.246 -13.882   7.098  0.00  0.00    -0.206 F 
ATOM     30  C   UNL d   1      27.562 -13.936   5.446  0.00  0.00     0.045 A 
ATOM     31  C   UNL d   1      27.210 -14.014   4.094  0.00  0.00     0.040 A 
ENDBRANCH  24  25
ENDBRANCH  23  24
ENDBRANCH  20  23
ENDBRANCH  19  20
ENDBRANCH   4  19
TORSDOF 12
ENDMDL
MODEL 3
REMARK VINA RESULT:   -22.561      1.994      2.405
REMARK INTER + INTRA:         -27.546
REMARK INTER:                 -26.141
REMARK INTRA:                  -1.405
REMARK CONF_INDEPENDENT:        3.580
REMARK UNBOUND:                -1.405
REMARK  12 active torsions:
REMARK  status: ('A' for Active; 'I' for Inactive)
REMARK    1  A    between atoms: C_2  and  C_3 
REMARK    2  A    between atoms: C_3  and  C_4 
REMARK    3  A    between atoms: C_4  and  O_5 
REMARK    4  A    between atoms: O_5  and  C_6 
REMARK    5  A    between atoms: C_11  and  C_12 
REMARK    6  A    between atoms: C_12  and  N_13 
REMARK       I    between atoms: N_13  and  C_14 
REMARK       I    between atoms: C_14  and  N_16 
REMARK    7  A    between atoms: N_16  and  C_17 
REMARK    8  A    between atoms: C_17  and  C_18 
REMARK    9  A    between atoms: C_18  and  O_19 
REMARK   10  A    between atoms: C_18  and  C_20 
REMARK   11  A    between atoms: C_20  and  O_21 
REMARK   12  A    between atoms: O_21  and  C_22 
ROOT
ATOM      1  N   UNL d   1      24.692 -18.563   0.345  0.00  0.00    -0.339 N 
ATOM      2  C   UNL d   1      25.498 -17.925  -0.561  0.00  0.00     0.316 C 
ATOM      3  O   UNL d   1      25.245 -17.851  -1.761  0.00  0.00    -0.247 OA
ATOM      4  N   UNL d   1      26.597 -17.348   0.013  0.00  0.00    -0.341 N 
ATOM      5  H   UNL d   1      25.083 -18.754   1.250  0.00  0.00     0.164 HD
ATOM      6  H   UNL d   1      26.836 -17.552   0.973  0.00  0.00     0.164 HD
ENDROOT
BRANCH   1   7
ATOM      7  C   UNL d   1      23.562 -19.329  -0.136  0.00  0.00     0.167 C 
BRANCH   7   8
ATOM      8  C   UNL d   1      22.298 -18.597  -0.514  0.00  0.00     0.013 A 
ATOM      9  C   UNL d   1      22.334 -17.245  -0.891  0.00  0.00     0.014 A 
ATOM     10  C   UNL d   1      21.181 -16.576  -1.271  0.00  0.00     0.020 A 
ATOM     11  C   UNL d   1      19.997 -17.280  -1.269  0.00  0.00     0.119 A 
ATOM     12  N   UNL d   1      19.902 -18.575  -0.898  0.00  0.00    -0.237 NA
ATOM     13  C   UNL d   1      21.034 -19.218  -0.508  0.00  0.00     0.172 A 
BRANCH  13  14
ATOM     14  O   UNL d   1      20.809 -20.548  -0.237  0.00  0.00    -0.334 OA
BRANCH  14  15
ATOM     15  C   UNL d   1      20.320 -20.839   1.069  0.00  0.00     0.177 C 
BRANCH  15  16
ATOM     16  C   UNL d   1      19.467 -19.703   1.610  0.00  0.00     0.026 C 
BRANCH  16  17
ATOM     17  C   UNL d   1      18.059 -20.220   1.924  0.00  0.00    -0.002 C 
ATOM     18  C   UNL d   1      17.782 -21.507   1.176  0.00  0.00     0.005 C 
ENDBRANCH  16  17
ENDBRANCH  15  16
ENDBRANCH  14  15
ENDBRANCH  13  14
ENDBRANCH   7   8
ENDBRANCH   1   7
BRANCH   4  19
ATOM     19  C   UNL d   1      27.540 -16.577  -0.788  0.00  0.00     0.158 C 
BRANCH  19  20
ATOM     20  C   UNL d   1      27.661 -15.110  -0.342  0.00  0.00     0.160 C 
BRANCH  20  21
ATOM     21  O   UNL d   1      28.464 -14.404  -1.301  0.00  0.00    -0.392 OA
ATOM     22  H   UNL d   1      28.346 -14.836  -2.164  0.00  0.00     0.210 HD
ENDBRANCH  20  21
BRANCH  20  23
ATOM     23  C   UNL d   1      26.269 -14.455  -0.188  0.00  0.00     0.209 C 
BRANCH  23  24
ATOM     24  O   UNL d   1      25.432 -14.846  -1.289  0.00  0.00    -0.349 OA
BRANCH  24  25
ATOM     25  C   UNL d   1      25.837 -14.431  -2.531  0.00  0.00     0.069 A 
ATOM     26  C   UNL d   1      26.159 -13.109  -2.850  0.00  0.00     0.040 A 
ATOM     27  C   UNL d   1      26.641 -12.791  -4.124  0.00  0.00     0.045 A 
ATOM     28  C   UNL d   1      26.811 -13.796  -5.070  0.00  0.00     0.116 A 
ATOM     29  F   UNL d   1      27.285 -13.487  -6.284  0.00  0.00    -0.206 F 
ATOM     30  C   UNL d   1      26.508 -15.116  -4.764  0.00  0.00     0.045 A 
ATOM     31  C   UNL d   1      26.026 -15.434  -3.490  0.00  0.00     0.040 A 
ENDBRANCH  24  25
ENDBRANCH  23  24
ENDBRANCH  20  23
ENDBRANCH  19  20
ENDBRANCH   4  19
TORSDOF 12
ENDMDL
MODEL 4
REMARK VINA RESULT:   -21.611      2.657      3.394
REMARK INTER + INTRA:         -27.368
REMARK INTER:                 -25.191
REMARK INTRA:                  -2.178
REMARK CONF_INDEPENDENT:        3.580
REMARK UNBOUND:                -2.178
REMARK  12 active torsions:
REMARK  status: ('A' for Active; 'I' for Inactive)
REMARK    1  A    between atoms: C_2  and  C_3 
REMARK    2  A    between atoms: C_3  and  C_4 
REMARK    3  A    between atoms: C_4  and  O_5 
REMARK    4  A    between atoms: O_5  and  C_6 
REMARK    5  A    between atoms: C_11  and  C_12 
REMARK    6  A    between atoms: C_12  and  N_13 
REMARK       I    between atoms: N_13  and  C_14 
REMARK       I    between atoms: C_14  and  N_16 
REMARK    7  A    between atoms: N_16  and  C_17 
REMARK    8  A    between atoms: C_17  and  C_18 
REMARK    9  A    between atoms: C_18  and  O_19 
REMARK   10  A    between atoms: C_18  and  C_20 
REMARK   11  A    between atoms: C_20  and  O_21 
REMARK   12  A    between atoms: O_21  and  C_22 
ROOT
ATOM      1  N   UNL d   1      24.737 -18.460   0.176  0.00  0.00    -0.339 N 
ATOM      2  C   UNL d   1      25.342 -17.724  -0.809  0.00  0.00     0.316 C 
ATOM      3  O   UNL d   1      24.899 -17.624  -1.951  0.00  0.00    -0.247 OA
ATOM      4  N   UNL d   1      26.472 -17.082  -0.382  0.00  0.00    -0.341 N 
ATOM      5  H   UNL d   1      25.277 -18.653   0.999  0.00  0.00     0.164 HD
ATOM      6  H   UNL d   1      26.872 -17.303   0.519  0.00  0.00     0.164 HD
ENDROOT
BRANCH   1   7
ATOM      7  C   UNL d   1      23.605 -19.294  -0.165  0.00  0.00     0.167 C 
BRANCH   7   8
ATOM      8  C   UNL d   1      22.300 -18.633  -0.533  0.00  0.00     0.013 A 
ATOM      9  C   UNL d   1      22.258 -17.278  -0.899  0.00  0.00     0.014 A 
ATOM     10  C   UNL d   1      21.067 -16.673  -1.270  0.00  0.00     0.020 A 
ATOM     11  C   UNL d   1      19.925 -17.443  -1.270  0.00  0.00     0.119 A 
ATOM     12  N   UNL d   1      19.905 -18.745  -0.908  0.00  0.00    -0.237 NA
ATOM     13  C   UNL d   1      21.073 -19.325  -0.528  0.00  0.00     0.172 A 
BRANCH  13  14
ATOM     14  O   UNL d   1      20.926 -20.668  -0.266  0.00  0.00    -0.334 OA
BRANCH  14  15
ATOM     15  C   UNL d   1      20.236 -20.991   0.937  0.00  0.00     0.177 C 
BRANCH  15  16
ATOM     16  C   UNL d   1      19.664 -19.750   1.603  0.00  0.00     0.026 C 
BRANCH  16  17
ATOM     17  C   UNL d   1      18.244 -20.038   2.101  0.00  0.00    -0.002 C 
ATOM     18  C   UNL d   1      17.611 -21.154   1.296  0.00  0.00     0.005 C 
ENDBRANCH  16  17
ENDBRANCH  15  16
ENDBRANCH  14  15
ENDBRANCH  13  14
ENDBRANCH   7   8
ENDBRANCH   1   7
BRANCH   4  19
ATOM     19  C   UNL d   1      27.219 -16.208  -1.278  0.00  0.00     0.158 C 
BRANCH  19  20
ATOM     20  C   UNL d   1      28.489 -15.623  -0.638  0.00  0.00     0.160 C 
BRANCH  20  21
ATOM     21  O   UNL d   1      28.437 -15.856   0.779  0.00  0.00    -0.392 OA
ATOM     22  H   UNL d   1      29.222 -16.375   1.024  0.00  0.00     0.210 HD
ENDBRANCH  20  21
BRANCH  20  23
ATOM     23  C   UNL d   1      29.764 -16.240  -1.259  0.00  0.00     0.209 C 
BRANCH  23  24
ATOM     24  O   UNL d   1      30.471 -16.989  -0.257  0.00  0.00    -0.349 OA
BRANCH  24  25
ATOM     25  C   UNL d   1      31.292 -17.986  -0.717  0.00  0.00     0.069 A 
ATOM     26  C   UNL d   1      31.305 -18.443  -2.037  0.00  0.00     0.040 A 
ATOM     27  C   UNL d   1      32.235 -19.410  -2.436  0.00  0.00     0.045 A 
ATOM     28  C   UNL d   1      33.154 -19.906  -1.518  0.00  0.00     0.116 A 
ATOM     29  F   UNL d   1      34.049 -20.823  -1.909  0.00  0.00    -0.206 F 
ATOM     30  C   UNL d   1      33.162 -19.452  -0.207  0.00  0.00     0.045 A 
ATOM     31  C   UNL d   1      32.233 -18.485   0.192  0.00  0.00     0.040 A 
ENDBRANCH  24  25
ENDBRANCH  23  24
ENDBRANCH  20  23
ENDBRANCH  19  20
ENDBRANCH   4  19
TORSDOF 12
ENDMDL
