MODEL 1
REMARK VINA RESULT:    -8.847      0.000      0.000
REMARK INTER + INTRA:         -14.945
REMARK INTER:                 -11.532
REMARK INTRA:                  -3.413
REMARK CONF_INDEPENDENT:        2.685
REMARK UNBOUND:                -3.413
REMARK  9 active torsions:
REMARK  status: ('A' for Active; 'I' for Inactive)
REMARK    1  A    between atoms: C_7  and  N_8 
REMARK       I    between atoms: N_8  and  C_9 
REMARK    2  A    between atoms: C_9  and  C_11 
REMARK    3  A    between atoms: C_11  and  S_12 
REMARK    4  A    between atoms: S_12  and  C_13 
REMARK    5  A    between atoms: C_16  and  C_17 
REMARK    6  A    between atoms: N_20  and  C_21 
REMARK    7  A    between atoms: C_21  and  C_22 
REMARK       I    between atoms: C_22  and  N_24 
REMARK    8  A    between atoms: N_24  and  C_25 
REMARK    9  A    between atoms: N_35  and  N_36 
ROOT
ATOM      1  C   UNL d   1      27.726 -13.150  -5.422  0.00  0.00     0.206 A 
ATOM      2  N   UNL d   1      28.890 -12.542  -5.313  0.00  0.00    -0.121 NA
ATOM      3  N   UNL d   1      29.881 -13.491  -5.369  0.00  0.00    -0.127 NA
ATOM      4  C   UNL d   1      29.304 -14.658  -5.556  0.00  0.00     0.179 A 
ATOM      5  N   UNL d   1      27.933 -14.500  -5.537  0.00  0.00    -0.235 N 
ENDROOT
BRANCH   4   6
ATOM      6  C   UNL d   1      29.974 -15.938  -5.628  0.00  0.00     0.016 C 
ATOM      7  C   UNL d   1      30.681 -16.354  -6.756  0.00  0.00     0.032 C 
ATOM      8  C   UNL d   1      31.139 -17.671  -6.843  0.00  0.00     0.092 C 
ATOM      9  N   UNL d   1      31.023 -18.509  -5.781  0.00  0.00    -0.358 N 
ATOM     10  C   UNL d   1      30.522 -18.004  -4.623  0.00  0.00     0.092 C 
ATOM     11  C   UNL d   1      29.903 -16.782  -4.545  0.00  0.00     0.032 C 
BRANCH   9  12
ATOM     12  C   UNL d   1      31.421 -19.968  -5.942  0.00  0.00     0.230 C 
BRANCH  12  13
ATOM     13  C   UNL d   1      30.862 -20.933  -4.905  0.00  0.00     0.240 C 
ATOM     14  O   UNL d   1      29.655 -20.931  -4.645  0.00  0.00    -0.271 OA
ATOM     15  N   UNL d   1      31.690 -21.797  -4.222  0.00  0.00    -0.325 N 
ATOM     16  H   UNL d   1      32.685 -21.618  -4.149  0.00  0.00     0.169 HD
BRANCH  15  17
ATOM     17  C   UNL d   1      31.096 -22.585  -3.183  0.00  0.00     0.041 A 
ATOM     18  C   UNL d   1      30.184 -23.609  -3.518  0.00  0.00     0.037 A 
ATOM     19  C   UNL d   1      29.488 -24.328  -2.545  0.00  0.00    -0.060 A 
ATOM     20  C   UNL d   1      28.518 -25.406  -2.930  0.00  0.00     0.048 C 
ATOM     21  C   UNL d   1      29.717 -24.025  -1.207  0.00  0.00     0.007 A 
ATOM     22  C   UNL d   1      30.624 -23.018  -0.857  0.00  0.00     0.009 A 
ATOM     23  C   UNL d   1      31.330 -22.292  -1.835  0.00  0.00    -0.035 A 
ATOM     24  C   UNL d   1      32.229 -21.172  -1.407  0.00  0.00     0.050 C 
ENDBRANCH  15  17
ENDBRANCH  12  13
ENDBRANCH   9  12
ENDBRANCH   4   6
BRANCH   5  25
ATOM     25  N   UNL d   1      26.974 -15.575  -5.467  0.00  0.00    -0.239 NA
ATOM     26  H   UNL d   1      26.086 -15.365  -5.907  0.00  0.00     0.143 HD
ATOM     27  H   UNL d   1      26.756 -15.837  -4.516  0.00  0.00     0.143 HD
ENDBRANCH   5  25
BRANCH   1  28
ATOM     28  S   UNL d   1      26.227 -12.315  -5.391  0.00  0.00    -0.080 SA
BRANCH  28  29
ATOM     29  C   UNL d   1      25.468 -12.429  -3.732  0.00  0.00     0.185 C 
BRANCH  29  30
ATOM     30  C   UNL d   1      25.303 -13.895  -3.359  0.00  0.00     0.231 C 
ATOM     31  N   UNL d   1      25.615 -14.239  -2.039  0.00  0.00    -0.326 N 
ATOM     32  H   UNL d   1      25.919 -13.524  -1.390  0.00  0.00     0.169 HD
ATOM     33  O   UNL d   1      24.924 -14.684  -4.222  0.00  0.00    -0.272 OA
BRANCH  31  34
ATOM     34  C   UNL d   1      25.522 -15.571  -1.518  0.00  0.00     0.041 A 
ATOM     35  C   UNL d   1      26.662 -16.314  -1.149  0.00  0.00    -0.035 A 
ATOM     36  C   UNL d   1      26.492 -17.625  -0.641  0.00  0.00     0.009 A 
ATOM     37  C   UNL d   1      28.068 -15.795  -1.265  0.00  0.00     0.050 C 
ATOM     38  C   UNL d   1      25.226 -18.199  -0.498  0.00  0.00     0.007 A 
ATOM     39  C   UNL d   1      24.104 -17.475  -0.857  0.00  0.00    -0.060 A 
ATOM     40  C   UNL d   1      22.709 -18.011  -0.737  0.00  0.00     0.048 C 
ATOM     41  C   UNL d   1      24.272 -16.186  -1.357  0.00  0.00     0.037 A 
ENDBRANCH  31  34
ENDBRANCH  29  30
ENDBRANCH  28  29
ENDBRANCH   1  28
TORSDOF 9
ENDMDL
MODEL 2
REMARK VINA RESULT:    -8.777      1.770      2.900
REMARK INTER + INTRA:         -14.205
REMARK INTER:                 -11.462
REMARK INTRA:                  -2.743
REMARK CONF_INDEPENDENT:        2.685
REMARK UNBOUND:                -2.743
REMARK  9 active torsions:
REMARK  status: ('A' for Active; 'I' for Inactive)
REMARK    1  A    between atoms: C_7  and  N_8 
REMARK       I    between atoms: N_8  and  C_9 
REMARK    2  A    between atoms: C_9  and  C_11 
REMARK    3  A    between atoms: C_11  and  S_12 
REMARK    4  A    between atoms: S_12  and  C_13 
REMARK    5  A    between atoms: C_16  and  C_17 
REMARK    6  A    between atoms: N_20  and  C_21 
REMARK    7  A    between atoms: C_21  and  C_22 
REMARK       I    between atoms: C_22  and  N_24 
REMARK    8  A    between atoms: N_24  and  C_25 
REMARK    9  A    between atoms: N_35  and  N_36 
ROOT
ATOM      1  C   UNL d   1      29.193 -15.283  -5.235  0.00  0.00     0.206 A 
ATOM      2  N   UNL d   1      29.672 -15.292  -6.462  0.00  0.00    -0.121 NA
ATOM      3  N   UNL d   1      30.200 -16.534  -6.712  0.00  0.00    -0.127 NA
ATOM      4  C   UNL d   1      29.993 -17.276  -5.645  0.00  0.00     0.179 A 
ATOM      5  N   UNL d   1      29.409 -16.507  -4.659  0.00  0.00    -0.235 N 
ENDROOT
BRANCH   4   6
ATOM      6  C   UNL d   1      30.430 -18.643  -5.460  0.00  0.00     0.016 C 
ATOM      7  C   UNL d   1      30.884 -19.126  -4.233  0.00  0.00     0.032 C 
ATOM      8  C   UNL d   1      31.474 -20.390  -4.159  0.00  0.00     0.092 C 
ATOM      9  N   UNL d   1      31.484 -21.207  -5.245  0.00  0.00    -0.358 N 
ATOM     10  C   UNL d   1      30.840 -20.785  -6.365  0.00  0.00     0.092 C 
ATOM     11  C   UNL d   1      30.406 -19.495  -6.538  0.00  0.00     0.032 C 
BRANCH   9  12
ATOM     12  C   UNL d   1      32.236 -22.527  -5.172  0.00  0.00     0.230 C 
BRANCH  12  13
ATOM     13  C   UNL d   1      31.665 -23.571  -4.222  0.00  0.00     0.240 C 
ATOM     14  O   UNL d   1      32.390 -24.465  -3.776  0.00  0.00    -0.271 OA
ATOM     15  N   UNL d   1      30.333 -23.556  -3.871  0.00  0.00    -0.325 N 
ATOM     16  H   UNL d   1      29.647 -23.076  -4.443  0.00  0.00     0.169 HD
BRANCH  15  17
ATOM     17  C   UNL d   1      29.857 -24.643  -3.067  0.00  0.00     0.041 A 
ATOM     18  C   UNL d   1      30.096 -24.639  -1.676  0.00  0.00     0.037 A 
ATOM     19  C   UNL d   1      29.760 -25.724  -0.864  0.00  0.00    -0.060 A 
ATOM     20  C   UNL d   1      30.033 -25.697   0.611  0.00  0.00     0.048 C 
ATOM     21  C   UNL d   1      29.162 -26.833  -1.455  0.00  0.00     0.007 A 
ATOM     22  C   UNL d   1      28.912 -26.850  -2.832  0.00  0.00     0.009 A 
ATOM     23  C   UNL d   1      29.246 -25.757  -3.653  0.00  0.00    -0.035 A 
ATOM     24  C   UNL d   1      29.027 -25.860  -5.132  0.00  0.00     0.050 C 
ENDBRANCH  15  17
ENDBRANCH  12  13
ENDBRANCH   9  12
ENDBRANCH   4   6
BRANCH   5  25
ATOM     25  N   UNL d   1      29.256 -16.902  -3.281  0.00  0.00    -0.239 NA
ATOM     26  H   UNL d   1      28.379 -17.368  -3.080  0.00  0.00     0.143 HD
ATOM     27  H   UNL d   1      29.302 -16.116  -2.646  0.00  0.00     0.143 HD
ENDBRANCH   5  25
BRANCH   1  28
ATOM     28  S   UNL d   1      28.450 -13.905  -4.530  0.00  0.00    -0.080 SA
BRANCH  28  29
ATOM     29  C   UNL d   1      26.656 -13.897  -4.883  0.00  0.00     0.185 C 
BRANCH  29  30
ATOM     30  C   UNL d   1      25.929 -14.647  -3.777  0.00  0.00     0.231 C 
ATOM     31  N   UNL d   1      26.700 -15.534  -3.017  0.00  0.00    -0.326 N 
ATOM     32  H   UNL d   1      27.688 -15.637  -3.211  0.00  0.00     0.169 HD
ATOM     33  O   UNL d   1      24.726 -14.449  -3.621  0.00  0.00    -0.272 OA
BRANCH  31  34
ATOM     34  C   UNL d   1      26.179 -16.325  -1.941  0.00  0.00     0.041 A 
ATOM     35  C   UNL d   1      26.907 -16.554  -0.756  0.00  0.00    -0.035 A 
ATOM     36  C   UNL d   1      26.326 -17.346   0.265  0.00  0.00     0.009 A 
ATOM     37  C   UNL d   1      28.283 -16.002  -0.504  0.00  0.00     0.050 C 
ATOM     38  C   UNL d   1      25.055 -17.906   0.126  0.00  0.00     0.007 A 
ATOM     39  C   UNL d   1      24.334 -17.685  -1.034  0.00  0.00    -0.060 A 
ATOM     40  C   UNL d   1      22.964 -18.246  -1.269  0.00  0.00     0.048 C 
ATOM     41  C   UNL d   1      24.906 -16.906  -2.037  0.00  0.00     0.037 A 
ENDBRANCH  31  34
ENDBRANCH  29  30
ENDBRANCH  28  29
ENDBRANCH   1  28
TORSDOF 9
ENDMDL
MODEL 3
REMARK VINA RESULT:    -8.588      1.113      1.824
REMARK INTER + INTRA:         -14.845
REMARK INTER:                 -11.272
REMARK INTRA:                  -3.573
REMARK CONF_INDEPENDENT:        2.685
REMARK UNBOUND:                -3.573
REMARK  9 active torsions:
REMARK  status: ('A' for Active; 'I' for Inactive)
REMARK    1  A    between atoms: C_7  and  N_8 
REMARK       I    between atoms: N_8  and  C_9 
REMARK    2  A    between atoms: C_9  and  C_11 
REMARK    3  A    between atoms: C_11  and  S_12 
REMARK    4  A    between atoms: S_12  and  C_13 
REMARK    5  A    between atoms: C_16  and  C_17 
REMARK    6  A    between atoms: N_20  and  C_21 
REMARK    7  A    between atoms: C_21  and  C_22 
REMARK       I    between atoms: C_22  and  N_24 
REMARK    8  A    between atoms: N_24  and  C_25 
REMARK    9  A    between atoms: N_35  and  N_36 
ROOT
ATOM      1  C   UNL d   1      27.910 -13.485  -4.556  0.00  0.00     0.206 A 
ATOM      2  N   UNL d   1      28.923 -13.207  -3.760  0.00  0.00    -0.121 NA
ATOM      3  N   UNL d   1      29.758 -14.296  -3.726  0.00  0.00    -0.127 NA
ATOM      4  C   UNL d   1      29.262 -15.203  -4.540  0.00  0.00     0.179 A 
ATOM      5  N   UNL d   1      28.057 -14.757  -5.044  0.00  0.00    -0.235 N 
ENDROOT
BRANCH   4   6
ATOM      6  C   UNL d   1      29.801 -16.526  -4.772  0.00  0.00     0.016 C 
ATOM      7  C   UNL d   1      30.088 -17.006  -6.049  0.00  0.00     0.032 C 
ATOM      8  C   UNL d   1      30.419 -18.352  -6.228  0.00  0.00     0.092 C 
ATOM      9  N   UNL d   1      30.599 -19.162  -5.153  0.00  0.00    -0.358 N 
ATOM     10  C   UNL d   1      30.522 -18.605  -3.916  0.00  0.00     0.092 C 
ATOM     11  C   UNL d   1      30.030 -17.344  -3.692  0.00  0.00     0.032 C 
BRANCH   9  12
ATOM     12  C   UNL d   1      30.842 -20.646  -5.377  0.00  0.00     0.230 C 
BRANCH  12  13
ATOM     13  C   UNL d   1      30.907 -21.511  -4.126  0.00  0.00     0.240 C 
ATOM     14  O   UNL d   1      31.880 -21.432  -3.369  0.00  0.00    -0.271 OA
ATOM     15  N   UNL d   1      29.906 -22.411  -3.833  0.00  0.00    -0.325 N 
ATOM     16  H   UNL d   1      29.280 -22.748  -4.556  0.00  0.00     0.169 HD
BRANCH  15  17
ATOM     17  C   UNL d   1      30.106 -23.264  -2.700  0.00  0.00     0.041 A 
ATOM     18  C   UNL d   1      30.460 -22.700  -1.455  0.00  0.00     0.037 A 
ATOM     19  C   UNL d   1      30.782 -23.489  -0.350  0.00  0.00    -0.060 A 
ATOM     20  C   UNL d   1      31.163 -22.863   0.960  0.00  0.00     0.048 C 
ATOM     21  C   UNL d   1      30.736 -24.873  -0.488  0.00  0.00     0.007 A 
ATOM     22  C   UNL d   1      30.379 -25.448  -1.713  0.00  0.00     0.009 A 
ATOM     23  C   UNL d   1      30.051 -24.657  -2.829  0.00  0.00    -0.035 A 
ATOM     24  C   UNL d   1      29.753 -25.324  -4.137  0.00  0.00     0.050 C 
ENDBRANCH  15  17
ENDBRANCH  12  13
ENDBRANCH   9  12
ENDBRANCH   4   6
BRANCH   5  25
ATOM     25  N   UNL d   1      27.110 -15.566  -5.770  0.00  0.00    -0.239 NA
ATOM     26  H   UNL d   1      26.303 -15.055  -6.107  0.00  0.00     0.143 HD
ATOM     27  H   UNL d   1      26.743 -16.325  -5.213  0.00  0.00     0.143 HD
ENDBRANCH   5  25
BRANCH   1  28
ATOM     28  S   UNL d   1      26.631 -12.382  -4.864  0.00  0.00    -0.080 SA
BRANCH  28  29
ATOM     29  C   UNL d   1      25.155 -12.827  -3.882  0.00  0.00     0.185 C 
BRANCH  29  30
ATOM     30  C   UNL d   1      25.297 -14.261  -3.392  0.00  0.00     0.231 C 
ATOM     31  N   UNL d   1      25.531 -14.428  -2.022  0.00  0.00    -0.326 N 
ATOM     32  H   UNL d   1      25.585 -13.619  -1.417  0.00  0.00     0.169 HD
ATOM     33  O   UNL d   1      25.213 -15.175  -4.208  0.00  0.00    -0.272 OA
BRANCH  31  34
ATOM     34  C   UNL d   1      25.695 -15.704  -1.391  0.00  0.00     0.041 A 
ATOM     35  C   UNL d   1      26.955 -16.178  -0.970  0.00  0.00    -0.035 A 
ATOM     36  C   UNL d   1      27.039 -17.450  -0.352  0.00  0.00     0.009 A 
ATOM     37  C   UNL d   1      28.234 -15.406  -1.141  0.00  0.00     0.050 C 
ATOM     38  C   UNL d   1      25.909 -18.245  -0.151  0.00  0.00     0.007 A 
ATOM     39  C   UNL d   1      24.670 -17.786  -0.559  0.00  0.00    -0.060 A 
ATOM     40  C   UNL d   1      23.405 -18.571  -0.383  0.00  0.00     0.048 C 
ATOM     41  C   UNL d   1      24.587 -16.535  -1.167  0.00  0.00     0.037 A 
ENDBRANCH  31  34
ENDBRANCH  29  30
ENDBRANCH  28  29
ENDBRANCH   1  28
TORSDOF 9
ENDMDL
MODEL 4
REMARK VINA RESULT:    -8.417      0.922      1.335
REMARK INTER + INTRA:         -14.824
REMARK INTER:                 -11.102
REMARK INTRA:                  -3.721
REMARK CONF_INDEPENDENT:        2.685
REMARK UNBOUND:                -3.721
REMARK  9 active torsions:
REMARK  status: ('A' for Active; 'I' for Inactive)
REMARK    1  A    between atoms: C_7  and  N_8 
REMARK       I    between atoms: N_8  and  C_9 
REMARK    2  A    between atoms: C_9  and  C_11 
REMARK    3  A    between atoms: C_11  and  S_12 
REMARK    4  A    between atoms: S_12  and  C_13 
REMARK    5  A    between atoms: C_16  and  C_17 
REMARK    6  A    between atoms: N_20  and  C_21 
REMARK    7  A    between atoms: C_21  and  C_22 
REMARK       I    between atoms: C_22  and  N_24 
REMARK    8  A    between atoms: N_24  and  C_25 
REMARK    9  A    between atoms: N_35  and  N_36 
ROOT
ATOM      1  C   UNL d   1      28.078 -13.307  -4.989  0.00  0.00     0.206 A 
ATOM      2  N   UNL d   1      29.249 -12.898  -4.544  0.00  0.00    -0.121 NA
ATOM      3  N   UNL d   1      30.047 -13.997  -4.349  0.00  0.00    -0.127 NA
ATOM      4  C   UNL d   1      29.362 -15.056  -4.721  0.00  0.00     0.179 A 
ATOM      5  N   UNL d   1      28.085 -14.674  -5.079  0.00  0.00    -0.235 N 
ENDROOT
BRANCH   4   6
ATOM      6  C   UNL d   1      29.807 -16.431  -4.639  0.00  0.00     0.016 C 
ATOM      7  C   UNL d   1      30.029 -17.077  -3.424  0.00  0.00     0.032 C 
ATOM      8  C   UNL d   1      30.643 -18.333  -3.406  0.00  0.00     0.092 C 
ATOM      9  N   UNL d   1      30.899 -18.988  -4.568  0.00  0.00    -0.358 N 
ATOM     10  C   UNL d   1      30.472 -18.420  -5.726  0.00  0.00     0.092 C 
ATOM     11  C   UNL d   1      30.030 -17.123  -5.806  0.00  0.00     0.032 C 
BRANCH   9  12
ATOM     12  C   UNL d   1      31.672 -20.296  -4.526  0.00  0.00     0.230 C 
BRANCH  12  13
ATOM     13  C   UNL d   1      30.887 -21.525  -4.088  0.00  0.00     0.240 C 
ATOM     14  O   UNL d   1      29.667 -21.577  -4.270  0.00  0.00    -0.271 OA
ATOM     15  N   UNL d   1      31.513 -22.579  -3.458  0.00  0.00    -0.325 N 
ATOM     16  H   UNL d   1      32.408 -22.454  -2.997  0.00  0.00     0.169 HD
BRANCH  15  17
ATOM     17  C   UNL d   1      30.679 -23.639  -2.977  0.00  0.00     0.041 A 
ATOM     18  C   UNL d   1      30.081 -24.529  -3.895  0.00  0.00     0.037 A 
ATOM     19  C   UNL d   1      29.168 -25.506  -3.493  0.00  0.00    -0.060 A 
ATOM     20  C   UNL d   1      28.541 -26.433  -4.492  0.00  0.00     0.048 C 
ATOM     21  C   UNL d   1      28.855 -25.603  -2.140  0.00  0.00     0.007 A 
ATOM     22  C   UNL d   1      29.445 -24.734  -1.216  0.00  0.00     0.009 A 
ATOM     23  C   UNL d   1      30.368 -23.750  -1.616  0.00  0.00    -0.035 A 
ATOM     24  C   UNL d   1      30.909 -22.795  -0.596  0.00  0.00     0.050 C 
ENDBRANCH  15  17
ENDBRANCH  12  13
ENDBRANCH   9  12
ENDBRANCH   4   6
BRANCH   5  25
ATOM     25  N   UNL d   1      26.983 -15.575  -5.308  0.00  0.00    -0.239 NA
ATOM     26  H   UNL d   1      26.237 -15.181  -5.869  0.00  0.00     0.143 HD
ATOM     27  H   UNL d   1      26.548 -15.881  -4.448  0.00  0.00     0.143 HD
ENDBRANCH   5  25
BRANCH   1  28
ATOM     28  S   UNL d   1      26.787 -12.236  -5.352  0.00  0.00    -0.080 SA
BRANCH  28  29
ATOM     29  C   UNL d   1      25.530 -12.280  -4.025  0.00  0.00     0.185 C 
BRANCH  29  30
ATOM     30  C   UNL d   1      25.351 -13.716  -3.557  0.00  0.00     0.231 C 
ATOM     31  N   UNL d   1      25.791 -14.005  -2.260  0.00  0.00    -0.326 N 
ATOM     32  H   UNL d   1      26.190 -13.272  -1.687  0.00  0.00     0.169 HD
ATOM     33  O   UNL d   1      24.853 -14.532  -4.329  0.00  0.00    -0.272 OA
BRANCH  31  34
ATOM     34  C   UNL d   1      25.705 -15.304  -1.659  0.00  0.00     0.041 A 
ATOM     35  C   UNL d   1      26.841 -15.982  -1.171  0.00  0.00    -0.035 A 
ATOM     36  C   UNL d   1      26.678 -17.263  -0.588  0.00  0.00     0.009 A 
ATOM     37  C   UNL d   1      28.235 -15.423  -1.232  0.00  0.00     0.050 C 
ATOM     38  C   UNL d   1      25.424 -17.870  -0.487  0.00  0.00     0.007 A 
ATOM     39  C   UNL d   1      24.306 -17.210  -0.962  0.00  0.00    -0.060 A 
ATOM     40  C   UNL d   1      22.923 -17.785  -0.895  0.00  0.00     0.048 C 
ATOM     41  C   UNL d   1      24.466 -15.950  -1.535  0.00  0.00     0.037 A 
ENDBRANCH  31  34
ENDBRANCH  29  30
ENDBRANCH  28  29
ENDBRANCH   1  28
TORSDOF 9
ENDMDL
MODEL 5
REMARK VINA RESULT:    -8.264      3.719      7.541
REMARK INTER + INTRA:         -14.506
REMARK INTER:                 -10.949
REMARK INTRA:                  -3.558
REMARK CONF_INDEPENDENT:        2.685
REMARK UNBOUND:                -3.558
REMARK  9 active torsions:
REMARK  status: ('A' for Active; 'I' for Inactive)
REMARK    1  A    between atoms: C_7  and  N_8 
REMARK       I    between atoms: N_8  and  C_9 
REMARK    2  A    between atoms: C_9  and  C_11 
REMARK    3  A    between atoms: C_11  and  S_12 
REMARK    4  A    between atoms: S_12  and  C_13 
REMARK    5  A    between atoms: C_16  and  C_17 
REMARK    6  A    between atoms: N_20  and  C_21 
REMARK    7  A    between atoms: C_21  and  C_22 
REMARK       I    between atoms: C_22  and  N_24 
REMARK    8  A    between atoms: N_24  and  C_25 
REMARK    9  A    between atoms: N_35  and  N_36 
ROOT
ATOM      1  C   UNL d   1      32.822 -12.999  -7.455  0.00  0.00     0.206 A 
ATOM      2  N   UNL d   1      33.171 -12.739  -6.211  0.00  0.00    -0.121 NA
ATOM      3  N   UNL d   1      32.037 -12.719  -5.438  0.00  0.00    -0.127 NA
ATOM      4  C   UNL d   1      31.020 -13.012  -6.218  0.00  0.00     0.179 A 
ATOM      5  N   UNL d   1      31.461 -13.140  -7.520  0.00  0.00    -0.235 N 
ENDROOT
BRANCH   4   6
ATOM      6  C   UNL d   1      29.628 -13.056  -5.823  0.00  0.00     0.016 C 
ATOM      7  C   UNL d   1      29.026 -12.042  -5.080  0.00  0.00     0.032 C 
ATOM      8  C   UNL d   1      27.741 -12.228  -4.562  0.00  0.00     0.092 C 
ATOM      9  N   UNL d   1      27.022 -13.331  -4.893  0.00  0.00    -0.358 N 
ATOM     10  C   UNL d   1      27.559 -14.196  -5.793  0.00  0.00     0.092 C 
ATOM     11  C   UNL d   1      28.873 -14.147  -6.186  0.00  0.00     0.032 C 
BRANCH   9  12
ATOM     12  C   UNL d   1      25.677 -13.567  -4.223  0.00  0.00     0.230 C 
BRANCH  12  13
ATOM     13  C   UNL d   1      25.536 -14.865  -3.441  0.00  0.00     0.240 C 
ATOM     14  O   UNL d   1      25.530 -15.948  -4.034  0.00  0.00    -0.271 OA
ATOM     15  N   UNL d   1      25.384 -14.854  -2.072  0.00  0.00    -0.325 N 
ATOM     16  H   UNL d   1      25.056 -14.025  -1.589  0.00  0.00     0.169 HD
BRANCH  15  17
ATOM     17  C   UNL d   1      25.141 -16.113  -1.432  0.00  0.00     0.041 A 
ATOM     18  C   UNL d   1      23.817 -16.580  -1.289  0.00  0.00     0.037 A 
ATOM     19  C   UNL d   1      23.514 -17.739  -0.573  0.00  0.00    -0.060 A 
ATOM     20  C   UNL d   1      22.095 -18.207  -0.429  0.00  0.00     0.048 C 
ATOM     21  C   UNL d   1      24.559 -18.454   0.003  0.00  0.00     0.007 A 
ATOM     22  C   UNL d   1      25.879 -18.010  -0.136  0.00  0.00     0.009 A 
ATOM     23  C   UNL d   1      26.189 -16.844  -0.860  0.00  0.00    -0.035 A 
ATOM     24  C   UNL d   1      27.610 -16.371  -0.911  0.00  0.00     0.050 C 
ENDBRANCH  15  17
ENDBRANCH  12  13
ENDBRANCH   9  12
ENDBRANCH   4   6
BRANCH   5  25
ATOM     25  N   UNL d   1      30.610 -13.217  -8.681  0.00  0.00    -0.239 NA
ATOM     26  H   UNL d   1      29.735 -13.701  -8.520  0.00  0.00     0.143 HD
ATOM     27  H   UNL d   1      31.053 -13.697  -9.453  0.00  0.00     0.143 HD
ENDBRANCH   5  25
BRANCH   1  28
ATOM     28  S   UNL d   1      33.953 -13.103  -8.742  0.00  0.00    -0.080 SA
BRANCH  28  29
ATOM     29  C   UNL d   1      33.765 -14.692  -9.628  0.00  0.00     0.185 C 
BRANCH  29  30
ATOM     30  C   UNL d   1      33.382 -15.775  -8.632  0.00  0.00     0.231 C 
ATOM     31  N   UNL d   1      32.023 -15.870  -8.310  0.00  0.00    -0.326 N 
ATOM     32  H   UNL d   1      31.357 -15.244  -8.745  0.00  0.00     0.169 HD
ATOM     33  O   UNL d   1      34.268 -16.486  -8.162  0.00  0.00    -0.272 OA
BRANCH  31  34
ATOM     34  C   UNL d   1      31.486 -16.827  -7.388  0.00  0.00     0.041 A 
ATOM     35  C   UNL d   1      31.406 -18.201  -7.693  0.00  0.00    -0.035 A 
ATOM     36  C   UNL d   1      30.864 -19.088  -6.730  0.00  0.00     0.009 A 
ATOM     37  C   UNL d   1      31.866 -18.793  -8.996  0.00  0.00     0.050 C 
ATOM     38  C   UNL d   1      30.406 -18.635  -5.491  0.00  0.00     0.007 A 
ATOM     39  C   UNL d   1      30.483 -17.289  -5.185  0.00  0.00    -0.060 A 
ATOM     40  C   UNL d   1      30.016 -16.716  -3.880  0.00  0.00     0.048 C 
ATOM     41  C   UNL d   1      31.016 -16.418  -6.132  0.00  0.00     0.037 A 
ENDBRANCH  31  34
ENDBRANCH  29  30
ENDBRANCH  28  29
ENDBRANCH   1  28
TORSDOF 9
ENDMDL
MODEL 6
REMARK VINA RESULT:    -8.148      6.173      9.365
REMARK INTER + INTRA:         -14.170
REMARK INTER:                 -10.833
REMARK INTRA:                  -3.337
REMARK CONF_INDEPENDENT:        2.685
REMARK UNBOUND:                -3.337
REMARK  9 active torsions:
REMARK  status: ('A' for Active; 'I' for Inactive)
REMARK    1  A    between atoms: C_7  and  N_8 
REMARK       I    between atoms: N_8  and  C_9 
REMARK    2  A    between atoms: C_9  and  C_11 
REMARK    3  A    between atoms: C_11  and  S_12 
REMARK    4  A    between atoms: S_12  and  C_13 
REMARK    5  A    between atoms: C_16  and  C_17 
REMARK    6  A    between atoms: N_20  and  C_21 
REMARK    7  A    between atoms: C_21  and  C_22 
REMARK       I    between atoms: C_22  and  N_24 
REMARK    8  A    between atoms: N_24  and  C_25 
REMARK    9  A    between atoms: N_35  and  N_36 
ROOT
ATOM      1  C   UNL d   1      27.848 -12.394  -2.831  0.00  0.00     0.206 A 
ATOM      2  N   UNL d   1      29.088 -11.989  -2.645  0.00  0.00    -0.121 NA
ATOM      3  N   UNL d   1      29.431 -12.228  -1.338  0.00  0.00    -0.127 NA
ATOM      4  C   UNL d   1      28.406 -12.818  -0.760  0.00  0.00     0.179 A 
ATOM      5  N   UNL d   1      27.356 -12.891  -1.653  0.00  0.00    -0.235 N 
ENDROOT
BRANCH   4   6
ATOM      6  C   UNL d   1      28.320 -13.207   0.631  0.00  0.00     0.016 C 
ATOM      7  C   UNL d   1      29.376 -13.815   1.308  0.00  0.00     0.032 C 
ATOM      8  C   UNL d   1      29.171 -14.344   2.585  0.00  0.00     0.092 C 
ATOM      9  N   UNL d   1      27.991 -14.147   3.228  0.00  0.00    -0.358 N 
ATOM     10  C   UNL d   1      27.060 -13.363   2.623  0.00  0.00     0.092 C 
ATOM     11  C   UNL d   1      27.147 -12.976   1.309  0.00  0.00     0.032 C 
BRANCH   9  12
ATOM     12  C   UNL d   1      27.752 -14.831   4.564  0.00  0.00     0.230 C 
BRANCH  12  13
ATOM     13  C   UNL d   1      28.014 -13.989   5.804  0.00  0.00     0.240 C 
ATOM     14  O   UNL d   1      27.425 -12.915   5.959  0.00  0.00    -0.271 OA
ATOM     15  N   UNL d   1      28.929 -14.390   6.754  0.00  0.00    -0.325 N 
ATOM     16  H   UNL d   1      29.657 -15.059   6.527  0.00  0.00     0.169 HD
BRANCH  15  17
ATOM     17  C   UNL d   1      29.197 -13.480   7.827  0.00  0.00     0.041 A 
ATOM     18  C   UNL d   1      28.610 -13.699   9.092  0.00  0.00     0.037 A 
ATOM     19  C   UNL d   1      28.741 -12.784  10.138  0.00  0.00    -0.060 A 
ATOM     20  C   UNL d   1      28.098 -13.039  11.470  0.00  0.00     0.048 C 
ATOM     21  C   UNL d   1      29.487 -11.630   9.918  0.00  0.00     0.007 A 
ATOM     22  C   UNL d   1      30.083 -11.401   8.673  0.00  0.00     0.009 A 
ATOM     23  C   UNL d   1      29.955 -12.322   7.617  0.00  0.00    -0.035 A 
ATOM     24  C   UNL d   1      30.547 -11.990   6.281  0.00  0.00     0.050 C 
ENDBRANCH  15  17
ENDBRANCH  12  13
ENDBRANCH   9  12
ENDBRANCH   4   6
BRANCH   5  25
ATOM     25  N   UNL d   1      26.001 -13.247  -1.313  0.00  0.00    -0.239 NA
ATOM     26  H   UNL d   1      25.861 -14.239  -1.158  0.00  0.00     0.143 HD
ATOM     27  H   UNL d   1      25.340 -12.985  -2.032  0.00  0.00     0.143 HD
ENDBRANCH   5  25
BRANCH   1  28
ATOM     28  S   UNL d   1      27.036 -12.262  -4.337  0.00  0.00    -0.080 SA
BRANCH  28  29
ATOM     29  C   UNL d   1      26.508 -13.911  -4.924  0.00  0.00     0.185 C 
BRANCH  29  30
ATOM     30  C   UNL d   1      25.839 -14.656  -3.778  0.00  0.00     0.231 C 
ATOM     31  N   UNL d   1      26.653 -15.526  -3.044  0.00  0.00    -0.326 N 
ATOM     32  H   UNL d   1      27.632 -15.621  -3.281  0.00  0.00     0.169 HD
ATOM     33  O   UNL d   1      24.642 -14.468  -3.570  0.00  0.00    -0.272 OA
BRANCH  31  34
ATOM     34  C   UNL d   1      26.189 -16.310  -1.937  0.00  0.00     0.041 A 
ATOM     35  C   UNL d   1      27.052 -16.747  -0.912  0.00  0.00    -0.035 A 
ATOM     36  C   UNL d   1      26.521 -17.518   0.152  0.00  0.00     0.009 A 
ATOM     37  C   UNL d   1      28.524 -16.441  -0.876  0.00  0.00     0.050 C 
ATOM     38  C   UNL d   1      25.167 -17.857   0.208  0.00  0.00     0.007 A 
ATOM     39  C   UNL d   1      24.315 -17.431  -0.794  0.00  0.00    -0.060 A 
ATOM     40  C   UNL d   1      22.850 -17.748  -0.815  0.00  0.00     0.048 C 
ATOM     41  C   UNL d   1      24.837 -16.673  -1.839  0.00  0.00     0.037 A 
ENDBRANCH  31  34
ENDBRANCH  29  30
ENDBRANCH  28  29
ENDBRANCH   1  28
TORSDOF 9
ENDMDL
MODEL 7
REMARK VINA RESULT:    -7.978      5.459      7.967
REMARK INTER + INTRA:         -14.115
REMARK INTER:                 -10.663
REMARK INTRA:                  -3.452
REMARK CONF_INDEPENDENT:        2.685
REMARK UNBOUND:                -3.452
REMARK  9 active torsions:
REMARK  status: ('A' for Active; 'I' for Inactive)
REMARK    1  A    between atoms: C_7  and  N_8 
REMARK       I    between atoms: N_8  and  C_9 
REMARK    2  A    between atoms: C_9  and  C_11 
REMARK    3  A    between atoms: C_11  and  S_12 
REMARK    4  A    between atoms: S_12  and  C_13 
REMARK    5  A    between atoms: C_16  and  C_17 
REMARK    6  A    between atoms: N_20  and  C_21 
REMARK    7  A    between atoms: C_21  and  C_22 
REMARK       I    between atoms: C_22  and  N_24 
REMARK    8  A    between atoms: N_24  and  C_25 
REMARK    9  A    between atoms: N_35  and  N_36 
ROOT
ATOM      1  C   UNL d   1      27.365  -6.899  -1.197  0.00  0.00     0.206 A 
ATOM      2  N   UNL d   1      28.631  -7.260  -1.269  0.00  0.00    -0.121 NA
ATOM      3  N   UNL d   1      28.701  -8.464  -1.924  0.00  0.00    -0.127 NA
ATOM      4  C   UNL d   1      27.479  -8.795  -2.280  0.00  0.00     0.179 A 
ATOM      5  N   UNL d   1      26.589  -7.861  -1.788  0.00  0.00    -0.235 N 
ENDROOT
BRANCH   4   6
ATOM      6  C   UNL d   1      27.088 -10.014  -2.955  0.00  0.00     0.016 C 
ATOM      7  C   UNL d   1      26.620 -10.028  -4.268  0.00  0.00     0.032 C 
ATOM      8  C   UNL d   1      26.075 -11.200  -4.800  0.00  0.00     0.092 C 
ATOM      9  N   UNL d   1      26.125 -12.360  -4.095  0.00  0.00    -0.358 N 
ATOM     10  C   UNL d   1      26.783 -12.355  -2.906  0.00  0.00     0.092 C 
ATOM     11  C   UNL d   1      27.173 -11.203  -2.271  0.00  0.00     0.032 C 
BRANCH   9  12
ATOM     12  C   UNL d   1      25.421 -13.591  -4.644  0.00  0.00     0.230 C 
BRANCH  12  13
ATOM     13  C   UNL d   1      25.443 -14.827  -3.756  0.00  0.00     0.240 C 
ATOM     14  O   UNL d   1      25.531 -15.951  -4.261  0.00  0.00    -0.271 OA
ATOM     15  N   UNL d   1      25.336 -14.718  -2.387  0.00  0.00    -0.325 N 
ATOM     16  H   UNL d   1      24.939 -13.889  -1.959  0.00  0.00     0.169 HD
BRANCH  15  17
ATOM     17  C   UNL d   1      25.248 -15.937  -1.640  0.00  0.00     0.041 A 
ATOM     18  C   UNL d   1      24.033 -16.657  -1.618  0.00  0.00     0.037 A 
ATOM     19  C   UNL d   1      23.855 -17.784  -0.815  0.00  0.00    -0.060 A 
ATOM     20  C   UNL d   1      22.550 -18.525  -0.806  0.00  0.00     0.048 C 
ATOM     21  C   UNL d   1      24.919 -18.210  -0.025  0.00  0.00     0.007 A 
ATOM     22  C   UNL d   1      26.132 -17.513  -0.041  0.00  0.00     0.009 A 
ATOM     23  C   UNL d   1      26.317 -16.377  -0.851  0.00  0.00    -0.035 A 
ATOM     24  C   UNL d   1      27.610 -15.623  -0.770  0.00  0.00     0.050 C 
ENDBRANCH  15  17
ENDBRANCH  12  13
ENDBRANCH   9  12
ENDBRANCH   4   6
BRANCH   5  25
ATOM     25  N   UNL d   1      25.156  -8.011  -1.766  0.00  0.00    -0.239 NA
ATOM     26  H   UNL d   1      24.719  -7.939  -2.678  0.00  0.00     0.143 HD
ATOM     27  H   UNL d   1      24.703  -7.317  -1.188  0.00  0.00     0.143 HD
ENDBRANCH   5  25
BRANCH   1  28
ATOM     28  S   UNL d   1      26.847  -5.448  -0.441  0.00  0.00    -0.080 SA
BRANCH  28  29
ATOM     29  C   UNL d   1      25.579  -5.806   0.827  0.00  0.00     0.185 C 
BRANCH  29  30
ATOM     30  C   UNL d   1      25.660  -7.277   1.210  0.00  0.00     0.231 C 
ATOM     31  N   UNL d   1      26.799  -7.671   1.923  0.00  0.00    -0.326 N 
ATOM     32  H   UNL d   1      27.504  -6.986   2.165  0.00  0.00     0.169 HD
ATOM     33  O   UNL d   1      24.749  -8.027   0.869  0.00  0.00    -0.272 OA
BRANCH  31  34
ATOM     34  C   UNL d   1      27.042  -9.014   2.359  0.00  0.00     0.041 A 
ATOM     35  C   UNL d   1      27.501  -9.310   3.659  0.00  0.00    -0.035 A 
ATOM     36  C   UNL d   1      27.719 -10.663   4.019  0.00  0.00     0.009 A 
ATOM     37  C   UNL d   1      27.780  -8.264   4.702  0.00  0.00     0.050 C 
ATOM     38  C   UNL d   1      27.491 -11.707   3.120  0.00  0.00     0.007 A 
ATOM     39  C   UNL d   1      27.040 -11.424   1.844  0.00  0.00    -0.060 A 
ATOM     40  C   UNL d   1      26.770 -12.481   0.816  0.00  0.00     0.048 C 
ATOM     41  C   UNL d   1      26.826 -10.094   1.490  0.00  0.00     0.037 A 
ENDBRANCH  31  34
ENDBRANCH  29  30
ENDBRANCH  28  29
ENDBRANCH   1  28
TORSDOF 9
ENDMDL
MODEL 8
REMARK VINA RESULT:    -7.826      1.058      1.883
REMARK INTER + INTRA:         -14.560
REMARK INTER:                 -10.511
REMARK INTRA:                  -4.049
REMARK CONF_INDEPENDENT:        2.685
REMARK UNBOUND:                -4.049
REMARK  9 active torsions:
REMARK  status: ('A' for Active; 'I' for Inactive)
REMARK    1  A    between atoms: C_7  and  N_8 
REMARK       I    between atoms: N_8  and  C_9 
REMARK    2  A    between atoms: C_9  and  C_11 
REMARK    3  A    between atoms: C_11  and  S_12 
REMARK    4  A    between atoms: S_12  and  C_13 
REMARK    5  A    between atoms: C_16  and  C_17 
REMARK    6  A    between atoms: N_20  and  C_21 
REMARK    7  A    between atoms: C_21  and  C_22 
REMARK       I    between atoms: C_22  and  N_24 
REMARK    8  A    between atoms: N_24  and  C_25 
REMARK    9  A    between atoms: N_35  and  N_36 
ROOT
ATOM      1  C   UNL d   1      27.948 -13.398  -4.692  0.00  0.00     0.206 A 
ATOM      2  N   UNL d   1      28.974 -13.035  -3.949  0.00  0.00    -0.121 NA
ATOM      3  N   UNL d   1      29.854 -14.087  -3.883  0.00  0.00    -0.127 NA
ATOM      4  C   UNL d   1      29.368 -15.058  -4.625  0.00  0.00     0.179 A 
ATOM      5  N   UNL d   1      28.130 -14.689  -5.111  0.00  0.00    -0.235 N 
ENDROOT
BRANCH   4   6
ATOM      6  C   UNL d   1      29.953 -16.371  -4.801  0.00  0.00     0.016 C 
ATOM      7  C   UNL d   1      30.231 -16.907  -6.058  0.00  0.00     0.032 C 
ATOM      8  C   UNL d   1      30.609 -18.247  -6.174  0.00  0.00     0.092 C 
ATOM      9  N   UNL d   1      30.843 -18.992  -5.063  0.00  0.00    -0.358 N 
ATOM     10  C   UNL d   1      30.771 -18.374  -3.855  0.00  0.00     0.092 C 
ATOM     11  C   UNL d   1      30.235 -17.122  -3.685  0.00  0.00     0.032 C 
BRANCH   9  12
ATOM     12  C   UNL d   1      31.138 -20.476  -5.215  0.00  0.00     0.230 C 
BRANCH  12  13
ATOM     13  C   UNL d   1      30.775 -21.356  -4.028  0.00  0.00     0.240 C 
ATOM     14  O   UNL d   1      29.691 -21.946  -4.003  0.00  0.00    -0.271 OA
ATOM     15  N   UNL d   1      31.629 -21.485  -2.954  0.00  0.00    -0.325 N 
ATOM     16  H   UNL d   1      32.346 -20.792  -2.771  0.00  0.00     0.169 HD
BRANCH  15  17
ATOM     17  C   UNL d   1      31.156 -22.238  -1.831  0.00  0.00     0.041 A 
ATOM     18  C   UNL d   1      30.697 -23.560  -2.019  0.00  0.00     0.037 A 
ATOM     19  C   UNL d   1      30.117 -24.297  -0.986  0.00  0.00    -0.060 A 
ATOM     20  C   UNL d   1      29.630 -25.697  -1.217  0.00  0.00     0.048 C 
ATOM     21  C   UNL d   1      30.004 -23.704   0.268  0.00  0.00     0.007 A 
ATOM     22  C   UNL d   1      30.462 -22.398   0.474  0.00  0.00     0.009 A 
ATOM     23  C   UNL d   1      31.049 -21.652  -0.564  0.00  0.00    -0.035 A 
ATOM     24  C   UNL d   1      31.449 -20.230  -0.308  0.00  0.00     0.050 C 
ENDBRANCH  15  17
ENDBRANCH  12  13
ENDBRANCH   9  12
ENDBRANCH   4   6
BRANCH   5  25
ATOM     25  N   UNL d   1      27.194 -15.575  -5.756  0.00  0.00    -0.239 NA
ATOM     26  H   UNL d   1      26.361 -15.114  -6.104  0.00  0.00     0.143 HD
ATOM     27  H   UNL d   1      26.866 -16.307  -5.140  0.00  0.00     0.143 HD
ENDBRANCH   5  25
BRANCH   1  28
ATOM     28  S   UNL d   1      26.616 -12.365  -5.016  0.00  0.00    -0.080 SA
BRANCH  28  29
ATOM     29  C   UNL d   1      25.156 -12.884  -4.046  0.00  0.00     0.185 C 
BRANCH  29  30
ATOM     30  C   UNL d   1      25.381 -14.294  -3.523  0.00  0.00     0.231 C 
ATOM     31  N   UNL d   1      25.802 -14.403  -2.192  0.00  0.00    -0.326 N 
ATOM     32  H   UNL d   1      25.928 -13.569  -1.634  0.00  0.00     0.169 HD
ATOM     33  O   UNL d   1      25.199 -15.243  -4.283  0.00  0.00    -0.272 OA
BRANCH  31  34
ATOM     34  C   UNL d   1      26.067 -15.650  -1.538  0.00  0.00     0.041 A 
ATOM     35  C   UNL d   1      25.033 -16.499  -1.093  0.00  0.00    -0.035 A 
ATOM     36  C   UNL d   1      25.373 -17.718  -0.455  0.00  0.00     0.009 A 
ATOM     37  C   UNL d   1      23.572 -16.187  -1.254  0.00  0.00     0.050 C 
ATOM     38  C   UNL d   1      26.702 -18.097  -0.255  0.00  0.00     0.007 A 
ATOM     39  C   UNL d   1      27.721 -17.270  -0.691  0.00  0.00    -0.060 A 
ATOM     40  C   UNL d   1      29.174 -17.597  -0.519  0.00  0.00     0.048 C 
ATOM     41  C   UNL d   1      27.387 -16.072  -1.318  0.00  0.00     0.037 A 
ENDBRANCH  31  34
ENDBRANCH  29  30
ENDBRANCH  28  29
ENDBRANCH   1  28
TORSDOF 9
ENDMDL
MODEL 9
REMARK VINA RESULT:    -7.801      6.429      9.238
REMARK INTER + INTRA:         -14.190
REMARK INTER:                 -10.486
REMARK INTRA:                  -3.704
REMARK CONF_INDEPENDENT:        2.685
REMARK UNBOUND:                -3.704
REMARK  9 active torsions:
REMARK  status: ('A' for Active; 'I' for Inactive)
REMARK    1  A    between atoms: C_7  and  N_8 
REMARK       I    between atoms: N_8  and  C_9 
REMARK    2  A    between atoms: C_9  and  C_11 
REMARK    3  A    between atoms: C_11  and  S_12 
REMARK    4  A    between atoms: S_12  and  C_13 
REMARK    5  A    between atoms: C_16  and  C_17 
REMARK    6  A    between atoms: N_20  and  C_21 
REMARK    7  A    between atoms: C_21  and  C_22 
REMARK       I    between atoms: C_22  and  N_24 
REMARK    8  A    between atoms: N_24  and  C_25 
REMARK    9  A    between atoms: N_35  and  N_36 
ROOT
ATOM      1  C   UNL d   1      27.962  -8.065   3.999  0.00  0.00     0.206 A 
ATOM      2  N   UNL d   1      26.814  -7.528   3.635  0.00  0.00    -0.121 NA
ATOM      3  N   UNL d   1      26.340  -8.216   2.546  0.00  0.00    -0.127 NA
ATOM      4  C   UNL d   1      27.186  -9.191   2.293  0.00  0.00     0.179 A 
ATOM      5  N   UNL d   1      28.262  -9.099   3.153  0.00  0.00    -0.235 N 
ENDROOT
BRANCH   4   6
ATOM      6  C   UNL d   1      27.097 -10.135   1.200  0.00  0.00     0.016 C 
ATOM      7  C   UNL d   1      26.670 -11.451   1.377  0.00  0.00     0.032 C 
ATOM      8  C   UNL d   1      26.790 -12.367   0.329  0.00  0.00     0.092 C 
ATOM      9  N   UNL d   1      27.189 -11.954  -0.902  0.00  0.00    -0.358 N 
ATOM     10  C   UNL d   1      27.391 -10.623  -1.092  0.00  0.00     0.092 C 
ATOM     11  C   UNL d   1      27.457  -9.721  -0.060  0.00  0.00     0.032 C 
BRANCH   9  12
ATOM     12  C   UNL d   1      27.425 -12.989  -1.991  0.00  0.00     0.230 C 
BRANCH  12  13
ATOM     13  C   UNL d   1      26.678 -14.306  -1.835  0.00  0.00     0.240 C 
ATOM     14  O   UNL d   1      25.907 -14.689  -2.721  0.00  0.00    -0.271 OA
ATOM     15  N   UNL d   1      26.822 -15.074  -0.700  0.00  0.00    -0.325 N 
ATOM     16  H   UNL d   1      27.160 -14.667   0.166  0.00  0.00     0.169 HD
BRANCH  15  17
ATOM     17  C   UNL d   1      25.993 -16.237  -0.588  0.00  0.00     0.041 A 
ATOM     18  C   UNL d   1      24.589 -16.103  -0.663  0.00  0.00     0.037 A 
ATOM     19  C   UNL d   1      23.731 -17.181  -0.443  0.00  0.00    -0.060 A 
ATOM     20  C   UNL d   1      22.242 -17.009  -0.520  0.00  0.00     0.048 C 
ATOM     21  C   UNL d   1      24.288 -18.424  -0.155  0.00  0.00     0.007 A 
ATOM     22  C   UNL d   1      25.677 -18.575  -0.086  0.00  0.00     0.009 A 
ATOM     23  C   UNL d   1      26.547 -17.491  -0.309  0.00  0.00    -0.035 A 
ATOM     24  C   UNL d   1      28.023 -17.692  -0.145  0.00  0.00     0.050 C 
ENDBRANCH  15  17
ENDBRANCH  12  13
ENDBRANCH   9  12
ENDBRANCH   4   6
BRANCH   5  25
ATOM     25  N   UNL d   1      29.494  -9.837   3.022  0.00  0.00    -0.239 NA
ATOM     26  H   UNL d   1      29.468 -10.762   3.435  0.00  0.00     0.143 HD
ATOM     27  H   UNL d   1      30.276  -9.364   3.455  0.00  0.00     0.143 HD
ENDBRANCH   5  25
BRANCH   1  28
ATOM     28  S   UNL d   1      28.888  -7.486   5.323  0.00  0.00    -0.080 SA
BRANCH  28  29
ATOM     29  C   UNL d   1      28.904  -8.715   6.676  0.00  0.00     0.185 C 
BRANCH  29  30
ATOM     30  C   UNL d   1      29.170 -10.094   6.092  0.00  0.00     0.231 C 
ATOM     31  N   UNL d   1      28.210 -11.077   6.359  0.00  0.00    -0.326 N 
ATOM     32  H   UNL d   1      27.389 -10.845   6.903  0.00  0.00     0.169 HD
ATOM     33  O   UNL d   1      30.198 -10.273   5.443  0.00  0.00    -0.272 OA
BRANCH  31  34
ATOM     34  C   UNL d   1      28.302 -12.429   5.893  0.00  0.00     0.041 A 
ATOM     35  C   UNL d   1      28.664 -13.494   6.744  0.00  0.00    -0.035 A 
ATOM     36  C   UNL d   1      28.733 -14.805   6.213  0.00  0.00     0.009 A 
ATOM     37  C   UNL d   1      28.988 -13.321   8.203  0.00  0.00     0.050 C 
ATOM     38  C   UNL d   1      28.453 -15.069   4.870  0.00  0.00     0.007 A 
ATOM     39  C   UNL d   1      28.096 -14.030   4.030  0.00  0.00    -0.060 A 
ATOM     40  C   UNL d   1      27.780 -14.221   2.577  0.00  0.00     0.048 C 
ATOM     41  C   UNL d   1      28.029 -12.740   4.553  0.00  0.00     0.037 A 
ENDBRANCH  31  34
ENDBRANCH  29  30
ENDBRANCH  28  29
ENDBRANCH   1  28
TORSDOF 9
ENDMDL
