MODEL 1
REMARK VINA RESULT:    -8.591      0.000      0.000
REMARK INTER + INTRA:         -11.375
REMARK INTER:                 -10.679
REMARK INTRA:                  -0.696
REMARK CONF_INDEPENDENT:        2.088
REMARK UNBOUND:                -0.696
REMARK  7 active torsions:
REMARK  status: ('A' for Active; 'I' for Inactive)
REMARK    1  A    between atoms: O_2  and  C_3 
REMARK    2  A    between atoms: C_6  and  C_7 
REMARK    3  A    between atoms: C_11  and  C_12 
REMARK    4  A    between atoms: N_13  and  N_14 
REMARK       I    between atoms: N_14  and  C_15 
REMARK    5  A    between atoms: C_15  and  C_17 
REMARK    6  A    between atoms: C_19  and  O_20 
REMARK    7  A    between atoms: C_22  and  O_23 
ROOT
ATOM      1  C   UNL d   1      26.562 -15.559  -1.252  0.00  0.00     0.154 C 
ATOM      2  N   UNL d   1      27.385 -15.097  -2.139  0.00  0.00    -0.183 NA
ENDROOT
BRANCH   1   3
ATOM      3  C   UNL d   1      26.786 -16.869  -0.662  0.00  0.00     0.031 A 
ATOM      4  C   UNL d   1      27.994 -17.420  -0.281  0.00  0.00     0.124 A 
ATOM      5  N   UNL d   1      27.718 -18.652   0.230  0.00  0.00    -0.288 N 
ATOM      6  N   UNL d   1      26.411 -18.947   0.235  0.00  0.00    -0.174 NA
ATOM      7  H   UNL d   1      28.370 -19.339   0.601  0.00  0.00     0.188 HD
ATOM      8  C   UNL d   1      25.822 -17.872  -0.316  0.00  0.00     0.100 A 
BRANCH   8   9
ATOM      9  C   UNL d   1      24.374 -17.838  -0.506  0.00  0.00    -0.005 A 
ATOM     10  C   UNL d   1      23.660 -19.008  -0.790  0.00  0.00     0.016 A 
ATOM     11  C   UNL d   1      22.278 -18.956  -1.008  0.00  0.00     0.037 A 
ATOM     12  C   UNL d   1      21.586 -17.746  -0.895  0.00  0.00     0.068 A 
ATOM     13  C   UNL d   1      22.294 -16.583  -0.597  0.00  0.00     0.037 A 
ATOM     14  C   UNL d   1      23.681 -16.626  -0.415  0.00  0.00     0.016 A 
BRANCH  12  15
ATOM     15  O   UNL d   1      20.224 -17.826  -0.989  0.00  0.00    -0.356 OA
ATOM     16  C   UNL d   1      19.647 -19.102  -0.730  0.00  0.00     0.210 C 
ENDBRANCH  12  15
ENDBRANCH   8   9
ENDBRANCH   1   3
BRANCH   2  17
ATOM     17  N   UNL d   1      27.128 -13.842  -2.662  0.00  0.00    -0.243 N 
ATOM     18  C   UNL d   1      26.016 -13.675  -3.486  0.00  0.00     0.271 C 
ATOM     19  O   UNL d   1      25.230 -14.576  -3.793  0.00  0.00    -0.266 OA
ATOM     20  H   UNL d   1      27.710 -13.056  -2.392  0.00  0.00     0.192 HD
BRANCH  18  21
ATOM     21  C   UNL d   1      25.743 -12.312  -4.034  0.00  0.00     0.039 A 
ATOM     22  C   UNL d   1      25.804 -12.124  -5.429  0.00  0.00     0.053 A 
ATOM     23  C   UNL d   1      25.740 -10.835  -5.961  0.00  0.00     0.069 A 
ATOM     24  C   UNL d   1      25.547  -9.731  -5.140  0.00  0.00     0.073 A 
ATOM     25  C   UNL d   1      25.483  -9.923  -3.764  0.00  0.00     0.069 A 
ATOM     26  C   UNL d   1      25.586 -11.200  -3.200  0.00  0.00     0.053 A 
BRANCH  23  27
ATOM     27  O   UNL d   1      25.906 -10.597  -7.296  0.00  0.00    -0.361 OA
ATOM     28  H   UNL d   1      26.007  -9.641  -7.439  0.00  0.00     0.217 HD
ENDBRANCH  23  27
BRANCH  25  29
ATOM     29  O   UNL d   1      25.359  -8.865  -2.910  0.00  0.00    -0.361 OA
ATOM     30  H   UNL d   1      24.414  -8.649  -2.811  0.00  0.00     0.217 HD
ENDBRANCH  25  29
ENDBRANCH  18  21
ENDBRANCH   2  17
TORSDOF 7
ENDMDL
MODEL 2
REMARK VINA RESULT:    -8.317      0.784      2.026
REMARK INTER + INTRA:         -11.054
REMARK INTER:                 -10.405
REMARK INTRA:                  -0.649
REMARK CONF_INDEPENDENT:        2.088
REMARK UNBOUND:                -0.649
REMARK  7 active torsions:
REMARK  status: ('A' for Active; 'I' for Inactive)
REMARK    1  A    between atoms: O_2  and  C_3 
REMARK    2  A    between atoms: C_6  and  C_7 
REMARK    3  A    between atoms: C_11  and  C_12 
REMARK    4  A    between atoms: N_13  and  N_14 
REMARK       I    between atoms: N_14  and  C_15 
REMARK    5  A    between atoms: C_15  and  C_17 
REMARK    6  A    between atoms: C_19  and  O_20 
REMARK    7  A    between atoms: C_22  and  O_23 
ROOT
ATOM      1  C   UNL d   1      26.424 -15.481  -1.399  0.00  0.00     0.154 C 
ATOM      2  N   UNL d   1      25.917 -15.464  -2.591  0.00  0.00    -0.183 NA
ENDROOT
BRANCH   1   3
ATOM      3  C   UNL d   1      26.733 -16.746  -0.754  0.00  0.00     0.031 A 
ATOM      4  C   UNL d   1      27.975 -17.202  -0.357  0.00  0.00     0.124 A 
ATOM      5  N   UNL d   1      27.781 -18.426   0.208  0.00  0.00    -0.288 N 
ATOM      6  N   UNL d   1      26.495 -18.804   0.231  0.00  0.00    -0.174 NA
ATOM      7  H   UNL d   1      28.476 -19.053   0.605  0.00  0.00     0.188 HD
ATOM      8  C   UNL d   1      25.836 -17.794  -0.362  0.00  0.00     0.100 A 
BRANCH   8   9
ATOM      9  C   UNL d   1      24.390 -17.862  -0.546  0.00  0.00    -0.005 A 
ATOM     10  C   UNL d   1      23.635 -16.700  -0.742  0.00  0.00     0.016 A 
ATOM     11  C   UNL d   1      22.243 -16.777  -0.879  0.00  0.00     0.037 A 
ATOM     12  C   UNL d   1      21.596 -18.015  -0.874  0.00  0.00     0.068 A 
ATOM     13  C   UNL d   1      22.349 -19.176  -0.694  0.00  0.00     0.037 A 
ATOM     14  C   UNL d   1      23.735 -19.099  -0.520  0.00  0.00     0.016 A 
BRANCH  12  15
ATOM     15  O   UNL d   1      20.258 -17.991  -1.153  0.00  0.00    -0.356 OA
ATOM     16  C   UNL d   1      19.530 -19.179  -0.857  0.00  0.00     0.210 C 
ENDBRANCH  12  15
ENDBRANCH   8   9
ENDBRANCH   1   3
BRANCH   2  17
ATOM     17  N   UNL d   1      25.650 -14.231  -3.159  0.00  0.00    -0.243 N 
ATOM     18  C   UNL d   1      26.719 -13.404  -3.500  0.00  0.00     0.271 C 
ATOM     19  O   UNL d   1      27.908 -13.690  -3.328  0.00  0.00    -0.266 OA
ATOM     20  H   UNL d   1      24.692 -13.976  -3.375  0.00  0.00     0.192 HD
BRANCH  18  21
ATOM     21  C   UNL d   1      26.416 -12.082  -4.124  0.00  0.00     0.039 A 
ATOM     22  C   UNL d   1      26.072 -11.004  -3.285  0.00  0.00     0.053 A 
ATOM     23  C   UNL d   1      25.603  -9.812  -3.839  0.00  0.00     0.069 A 
ATOM     24  C   UNL d   1      25.535  -9.641  -5.215  0.00  0.00     0.073 A 
ATOM     25  C   UNL d   1      25.879 -10.707  -6.040  0.00  0.00     0.069 A 
ATOM     26  C   UNL d   1      26.312 -11.928  -5.511  0.00  0.00     0.053 A 
BRANCH  23  27
ATOM     27  O   UNL d   1      25.155  -8.783  -3.059  0.00  0.00    -0.361 OA
ATOM     28  H   UNL d   1      24.184  -8.822  -3.009  0.00  0.00     0.217 HD
ENDBRANCH  23  27
BRANCH  25  29
ATOM     29  O   UNL d   1      25.767 -10.612  -7.398  0.00  0.00    -0.361 OA
ATOM     30  H   UNL d   1      25.356  -9.758  -7.621  0.00  0.00     0.217 HD
ENDBRANCH  25  29
ENDBRANCH  18  21
ENDBRANCH   2  17
TORSDOF 7
ENDMDL
MODEL 3
REMARK VINA RESULT:    -7.643      4.606      6.967
REMARK INTER + INTRA:         -10.422
REMARK INTER:                  -9.731
REMARK INTRA:                  -0.692
REMARK CONF_INDEPENDENT:        2.088
REMARK UNBOUND:                -0.692
REMARK  7 active torsions:
REMARK  status: ('A' for Active; 'I' for Inactive)
REMARK    1  A    between atoms: O_2  and  C_3 
REMARK    2  A    between atoms: C_6  and  C_7 
REMARK    3  A    between atoms: C_11  and  C_12 
REMARK    4  A    between atoms: N_13  and  N_14 
REMARK       I    between atoms: N_14  and  C_15 
REMARK    5  A    between atoms: C_15  and  C_17 
REMARK    6  A    between atoms: C_19  and  O_20 
REMARK    7  A    between atoms: C_22  and  O_23 
ROOT
ATOM      1  C   UNL d   1      27.069 -13.656  -1.216  0.00  0.00     0.154 C 
ATOM      2  N   UNL d   1      26.879 -14.523  -0.273  0.00  0.00    -0.183 NA
ENDROOT
BRANCH   1   3
ATOM      3  C   UNL d   1      26.144 -13.578  -2.334  0.00  0.00     0.031 A 
ATOM      4  C   UNL d   1      26.117 -12.625  -3.334  0.00  0.00     0.124 A 
ATOM      5  N   UNL d   1      25.092 -12.960  -4.166  0.00  0.00    -0.288 N 
ATOM      6  N   UNL d   1      24.452 -14.079  -3.800  0.00  0.00    -0.174 NA
ATOM      7  H   UNL d   1      24.780 -12.477  -5.005  0.00  0.00     0.188 HD
ATOM      8  C   UNL d   1      25.074 -14.469  -2.674  0.00  0.00     0.100 A 
BRANCH   8   9
ATOM      9  C   UNL d   1      24.626 -15.660  -1.958  0.00  0.00    -0.005 A 
ATOM     10  C   UNL d   1      23.292 -15.798  -1.557  0.00  0.00     0.016 A 
ATOM     11  C   UNL d   1      22.885 -16.928  -0.837  0.00  0.00     0.037 A 
ATOM     12  C   UNL d   1      23.791 -17.954  -0.554  0.00  0.00     0.068 A 
ATOM     13  C   UNL d   1      25.116 -17.825  -0.966  0.00  0.00     0.037 A 
ATOM     14  C   UNL d   1      25.534 -16.680  -1.654  0.00  0.00     0.016 A 
BRANCH  12  15
ATOM     15  O   UNL d   1      23.263 -19.073   0.031  0.00  0.00    -0.356 OA
ATOM     16  C   UNL d   1      21.865 -19.276  -0.145  0.00  0.00     0.210 C 
ENDBRANCH  12  15
ENDBRANCH   8   9
ENDBRANCH   1   3
BRANCH   2  17
ATOM     17  N   UNL d   1      27.788 -14.548   0.771  0.00  0.00    -0.243 N 
ATOM     18  C   UNL d   1      27.478 -13.863   1.945  0.00  0.00     0.271 C 
ATOM     19  O   UNL d   1      26.439 -13.222   2.129  0.00  0.00    -0.266 OA
ATOM     20  H   UNL d   1      28.629 -15.109   0.691  0.00  0.00     0.192 HD
BRANCH  18  21
ATOM     21  C   UNL d   1      28.461 -13.908   3.068  0.00  0.00     0.039 A 
ATOM     22  C   UNL d   1      28.089 -14.559   4.261  0.00  0.00     0.053 A 
ATOM     23  C   UNL d   1      28.903 -14.461   5.391  0.00  0.00     0.069 A 
ATOM     24  C   UNL d   1      30.116 -13.785   5.343  0.00  0.00     0.073 A 
ATOM     25  C   UNL d   1      30.480 -13.147   4.161  0.00  0.00     0.069 A 
ATOM     26  C   UNL d   1      29.664 -13.194   3.025  0.00  0.00     0.053 A 
BRANCH  23  27
ATOM     27  O   UNL d   1      28.528 -14.983   6.597  0.00  0.00    -0.361 OA
ATOM     28  H   UNL d   1      28.504 -15.953   6.530  0.00  0.00     0.217 HD
ENDBRANCH  23  27
BRANCH  25  29
ATOM     29  O   UNL d   1      31.630 -12.415   4.081  0.00  0.00    -0.361 OA
ATOM     30  H   UNL d   1      32.368 -12.949   4.426  0.00  0.00     0.217 HD
ENDBRANCH  25  29
ENDBRANCH  18  21
ENDBRANCH   2  17
TORSDOF 7
ENDMDL
MODEL 4
REMARK VINA RESULT:    -7.591      4.566      6.865
REMARK INTER + INTRA:         -10.407
REMARK INTER:                  -9.679
REMARK INTRA:                  -0.729
REMARK CONF_INDEPENDENT:        2.088
REMARK UNBOUND:                -0.729
REMARK  7 active torsions:
REMARK  status: ('A' for Active; 'I' for Inactive)
REMARK    1  A    between atoms: O_2  and  C_3 
REMARK    2  A    between atoms: C_6  and  C_7 
REMARK    3  A    between atoms: C_11  and  C_12 
REMARK    4  A    between atoms: N_13  and  N_14 
REMARK       I    between atoms: N_14  and  C_15 
REMARK    5  A    between atoms: C_15  and  C_17 
REMARK    6  A    between atoms: C_19  and  O_20 
REMARK    7  A    between atoms: C_22  and  O_23 
ROOT
ATOM      1  C   UNL d   1      26.939 -13.542  -1.215  0.00  0.00     0.154 C 
ATOM      2  N   UNL d   1      26.778 -14.442  -0.298  0.00  0.00    -0.183 NA
ENDROOT
BRANCH   1   3
ATOM      3  C   UNL d   1      26.059 -13.513  -2.372  0.00  0.00     0.031 A 
ATOM      4  C   UNL d   1      26.039 -12.573  -3.384  0.00  0.00     0.124 A 
ATOM      5  N   UNL d   1      25.063 -12.955  -4.254  0.00  0.00    -0.288 N 
ATOM      6  N   UNL d   1      24.450 -14.093  -3.901  0.00  0.00    -0.174 NA
ATOM      7  H   UNL d   1      24.769 -12.493  -5.111  0.00  0.00     0.188 HD
ATOM      8  C   UNL d   1      25.038 -14.447  -2.745  0.00  0.00     0.100 A 
BRANCH   8   9
ATOM      9  C   UNL d   1      24.605 -15.646  -2.033  0.00  0.00    -0.005 A 
ATOM     10  C   UNL d   1      23.279 -15.791  -1.611  0.00  0.00     0.016 A 
ATOM     11  C   UNL d   1      22.886 -16.929  -0.895  0.00  0.00     0.037 A 
ATOM     12  C   UNL d   1      23.799 -17.955  -0.637  0.00  0.00     0.068 A 
ATOM     13  C   UNL d   1      25.117 -17.819  -1.070  0.00  0.00     0.037 A 
ATOM     14  C   UNL d   1      25.521 -16.667  -1.753  0.00  0.00     0.016 A 
BRANCH  12  15
ATOM     15  O   UNL d   1      23.284 -19.081  -0.054  0.00  0.00    -0.356 OA
ATOM     16  C   UNL d   1      21.873 -19.248  -0.145  0.00  0.00     0.210 C 
ENDBRANCH  12  15
ENDBRANCH   8   9
ENDBRANCH   1   3
BRANCH   2  17
ATOM     17  N   UNL d   1      27.639 -14.419   0.785  0.00  0.00    -0.243 N 
ATOM     18  C   UNL d   1      27.226 -13.789   1.957  0.00  0.00     0.271 C 
ATOM     19  O   UNL d   1      26.131 -13.236   2.106  0.00  0.00    -0.266 OA
ATOM     20  H   UNL d   1      28.525 -14.910   0.731  0.00  0.00     0.192 HD
BRANCH  18  21
ATOM     21  C   UNL d   1      28.160 -13.782   3.122  0.00  0.00     0.039 A 
ATOM     22  C   UNL d   1      29.450 -13.243   2.947  0.00  0.00     0.053 A 
ATOM     23  C   UNL d   1      30.408 -13.389   3.951  0.00  0.00     0.069 A 
ATOM     24  C   UNL d   1      30.092 -14.000   5.158  0.00  0.00     0.073 A 
ATOM     25  C   UNL d   1      28.815 -14.528   5.327  0.00  0.00     0.069 A 
ATOM     26  C   UNL d   1      27.848 -14.433   4.321  0.00  0.00     0.053 A 
BRANCH  23  27
ATOM     27  O   UNL d   1      31.700 -12.979   3.780  0.00  0.00    -0.361 OA
ATOM     28  H   UNL d   1      32.292 -13.585   4.258  0.00  0.00     0.217 HD
ENDBRANCH  23  27
BRANCH  25  29
ATOM     29  O   UNL d   1      28.475 -15.195   6.468  0.00  0.00    -0.361 OA
ATOM     30  H   UNL d   1      28.380 -16.143   6.263  0.00  0.00     0.217 HD
ENDBRANCH  25  29
ENDBRANCH  18  21
ENDBRANCH   2  17
TORSDOF 7
ENDMDL
MODEL 5
REMARK VINA RESULT:    -7.555      4.659      6.742
REMARK INTER + INTRA:         -10.430
REMARK INTER:                  -9.643
REMARK INTRA:                  -0.787
REMARK CONF_INDEPENDENT:        2.088
REMARK UNBOUND:                -0.787
REMARK  7 active torsions:
REMARK  status: ('A' for Active; 'I' for Inactive)
REMARK    1  A    between atoms: O_2  and  C_3 
REMARK    2  A    between atoms: C_6  and  C_7 
REMARK    3  A    between atoms: C_11  and  C_12 
REMARK    4  A    between atoms: N_13  and  N_14 
REMARK       I    between atoms: N_14  and  C_15 
REMARK    5  A    between atoms: C_15  and  C_17 
REMARK    6  A    between atoms: C_19  and  O_20 
REMARK    7  A    between atoms: C_22  and  O_23 
ROOT
ATOM      1  C   UNL d   1      27.627 -14.482  -0.807  0.00  0.00     0.154 C 
ATOM      2  N   UNL d   1      27.370 -15.319   0.147  0.00  0.00    -0.183 NA
ENDROOT
BRANCH   1   3
ATOM      3  C   UNL d   1      27.126 -14.730  -2.150  0.00  0.00     0.031 A 
ATOM      4  C   UNL d   1      27.622 -14.222  -3.334  0.00  0.00     0.124 A 
ATOM      5  N   UNL d   1      26.849 -14.732  -4.333  0.00  0.00    -0.288 N 
ATOM      6  N   UNL d   1      25.890 -15.559  -3.895  0.00  0.00    -0.174 NA
ATOM      7  H   UNL d   1      26.925 -14.566  -5.334  0.00  0.00     0.188 HD
ATOM      8  C   UNL d   1      26.036 -15.565  -2.559  0.00  0.00     0.100 A 
BRANCH   8   9
ATOM      9  C   UNL d   1      25.132 -16.348  -1.721  0.00  0.00    -0.005 A 
ATOM     10  C   UNL d   1      23.778 -16.012  -1.615  0.00  0.00     0.016 A 
ATOM     11  C   UNL d   1      22.931 -16.749  -0.778  0.00  0.00     0.037 A 
ATOM     12  C   UNL d   1      23.414 -17.858  -0.077  0.00  0.00     0.068 A 
ATOM     13  C   UNL d   1      24.760 -18.203  -0.194  0.00  0.00     0.037 A 
ATOM     14  C   UNL d   1      25.616 -17.447  -1.001  0.00  0.00     0.016 A 
BRANCH  12  15
ATOM     15  O   UNL d   1      22.478 -18.589   0.601  0.00  0.00    -0.356 OA
ATOM     16  C   UNL d   1      21.317 -18.964  -0.132  0.00  0.00     0.210 C 
ENDBRANCH  12  15
ENDBRANCH   8   9
ENDBRANCH   1   3
BRANCH   2  17
ATOM     17  N   UNL d   1      27.865 -15.029   1.407  0.00  0.00    -0.243 N 
ATOM     18  C   UNL d   1      27.308 -13.968   2.118  0.00  0.00     0.271 C 
ATOM     19  O   UNL d   1      26.391 -13.252   1.704  0.00  0.00    -0.266 OA
ATOM     20  H   UNL d   1      28.577 -15.626   1.815  0.00  0.00     0.192 HD
BRANCH  18  21
ATOM     21  C   UNL d   1      27.842 -13.675   3.482  0.00  0.00     0.039 A 
ATOM     22  C   UNL d   1      27.442 -12.484   4.119  0.00  0.00     0.053 A 
ATOM     23  C   UNL d   1      28.062 -12.087   5.305  0.00  0.00     0.069 A 
ATOM     24  C   UNL d   1      29.026 -12.883   5.910  0.00  0.00     0.073 A 
ATOM     25  C   UNL d   1      29.415 -14.060   5.278  0.00  0.00     0.069 A 
ATOM     26  C   UNL d   1      28.841 -14.462   4.067  0.00  0.00     0.053 A 
BRANCH  23  27
ATOM     27  O   UNL d   1      27.783 -10.887   5.897  0.00  0.00    -0.361 OA
ATOM     28  H   UNL d   1      26.891 -10.603   5.634  0.00  0.00     0.217 HD
ENDBRANCH  23  27
BRANCH  25  29
ATOM     29  O   UNL d   1      30.404 -14.845   5.798  0.00  0.00    -0.361 OA
ATOM     30  H   UNL d   1      31.176 -14.814   5.205  0.00  0.00     0.217 HD
ENDBRANCH  25  29
ENDBRANCH  18  21
ENDBRANCH   2  17
TORSDOF 7
ENDMDL
MODEL 6
REMARK VINA RESULT:    -7.446      1.632      2.429
REMARK INTER + INTRA:         -10.088
REMARK INTER:                  -9.534
REMARK INTRA:                  -0.554
REMARK CONF_INDEPENDENT:        2.088
REMARK UNBOUND:                -0.554
REMARK  7 active torsions:
REMARK  status: ('A' for Active; 'I' for Inactive)
REMARK    1  A    between atoms: O_2  and  C_3 
REMARK    2  A    between atoms: C_6  and  C_7 
REMARK    3  A    between atoms: C_11  and  C_12 
REMARK    4  A    between atoms: N_13  and  N_14 
REMARK       I    between atoms: N_14  and  C_15 
REMARK    5  A    between atoms: C_15  and  C_17 
REMARK    6  A    between atoms: C_19  and  O_20 
REMARK    7  A    between atoms: C_22  and  O_23 
ROOT
ATOM      1  C   UNL d   1      26.440 -16.237  -2.199  0.00  0.00     0.154 C 
ATOM      2  N   UNL d   1      27.166 -15.170  -2.306  0.00  0.00    -0.183 NA
ENDROOT
BRANCH   1   3
ATOM      3  C   UNL d   1      26.631 -17.140  -1.076  0.00  0.00     0.031 A 
ATOM      4  C   UNL d   1      27.826 -17.497  -0.483  0.00  0.00     0.124 A 
ATOM      5  N   UNL d   1      27.520 -18.352   0.532  0.00  0.00    -0.288 N 
ATOM      6  N   UNL d   1      26.204 -18.570   0.667  0.00  0.00    -0.174 NA
ATOM      7  H   UNL d   1      28.155 -18.815   1.177  0.00  0.00     0.188 HD
ATOM      8  C   UNL d   1      25.642 -17.845  -0.315  0.00  0.00     0.100 A 
BRANCH   8   9
ATOM      9  C   UNL d   1      24.194 -17.855  -0.504  0.00  0.00    -0.005 A 
ATOM     10  C   UNL d   1      23.481 -19.060  -0.528  0.00  0.00     0.016 A 
ATOM     11  C   UNL d   1      22.098 -19.057  -0.748  0.00  0.00     0.037 A 
ATOM     12  C   UNL d   1      21.405 -17.853  -0.896  0.00  0.00     0.068 A 
ATOM     13  C   UNL d   1      22.111 -16.651  -0.856  0.00  0.00     0.037 A 
ATOM     14  C   UNL d   1      23.498 -16.653  -0.673  0.00  0.00     0.016 A 
BRANCH  12  15
ATOM     15  O   UNL d   1      20.042 -17.953  -0.967  0.00  0.00    -0.356 OA
ATOM     16  C   UNL d   1      19.466 -19.128  -0.406  0.00  0.00     0.210 C 
ENDBRANCH  12  15
ENDBRANCH   8   9
ENDBRANCH   1   3
BRANCH   2  17
ATOM     17  N   UNL d   1      26.937 -14.342  -3.390  0.00  0.00    -0.243 N 
ATOM     18  C   UNL d   1      28.031 -13.823  -4.080  0.00  0.00     0.271 C 
ATOM     19  O   UNL d   1      29.211 -14.046  -3.792  0.00  0.00    -0.266 OA
ATOM     20  H   UNL d   1      25.986 -14.175  -3.702  0.00  0.00     0.192 HD
BRANCH  18  21
ATOM     21  C   UNL d   1      27.770 -12.941  -5.257  0.00  0.00     0.039 A 
ATOM     22  C   UNL d   1      26.716 -12.009  -5.178  0.00  0.00     0.053 A 
ATOM     23  C   UNL d   1      26.324 -11.303  -6.316  0.00  0.00     0.069 A 
ATOM     24  C   UNL d   1      27.003 -11.452  -7.519  0.00  0.00     0.073 A 
ATOM     25  C   UNL d   1      28.045 -12.371  -7.591  0.00  0.00     0.069 A 
ATOM     26  C   UNL d   1      28.432 -13.123  -6.476  0.00  0.00     0.053 A 
BRANCH  23  27
ATOM     27  O   UNL d   1      25.238 -10.473  -6.311  0.00  0.00    -0.361 OA
ATOM     28  H   UNL d   1      24.428 -11.010  -6.343  0.00  0.00     0.217 HD
ENDBRANCH  23  27
BRANCH  25  29
ATOM     29  O   UNL d   1      28.701 -12.601  -8.766  0.00  0.00    -0.361 OA
ATOM     30  H   UNL d   1      28.823 -13.561  -8.876  0.00  0.00     0.217 HD
ENDBRANCH  25  29
ENDBRANCH  18  21
ENDBRANCH   2  17
TORSDOF 7
ENDMDL
MODEL 7
REMARK VINA RESULT:    -7.267      2.576      3.484
REMARK INTER + INTRA:          -9.819
REMARK INTER:                  -9.355
REMARK INTRA:                  -0.464
REMARK CONF_INDEPENDENT:        2.088
REMARK UNBOUND:                -0.464
REMARK  7 active torsions:
REMARK  status: ('A' for Active; 'I' for Inactive)
REMARK    1  A    between atoms: O_2  and  C_3 
REMARK    2  A    between atoms: C_6  and  C_7 
REMARK    3  A    between atoms: C_11  and  C_12 
REMARK    4  A    between atoms: N_13  and  N_14 
REMARK       I    between atoms: N_14  and  C_15 
REMARK    5  A    between atoms: C_15  and  C_17 
REMARK    6  A    between atoms: C_19  and  O_20 
REMARK    7  A    between atoms: C_22  and  O_23 
ROOT
ATOM      1  C   UNL d   1      26.517 -14.744  -0.045  0.00  0.00     0.154 C 
ATOM      2  N   UNL d   1      27.362 -13.773   0.088  0.00  0.00    -0.183 NA
ENDROOT
BRANCH   1   3
ATOM      3  C   UNL d   1      26.980 -16.122  -0.034  0.00  0.00     0.031 A 
ATOM      4  C   UNL d   1      28.278 -16.567   0.130  0.00  0.00     0.124 A 
ATOM      5  N   UNL d   1      28.234 -17.928   0.083  0.00  0.00    -0.288 N 
ATOM      6  N   UNL d   1      26.996 -18.416  -0.080  0.00  0.00    -0.174 NA
ATOM      7  H   UNL d   1      29.006 -18.585   0.163  0.00  0.00     0.188 HD
ATOM      8  C   UNL d   1      26.214 -17.327  -0.164  0.00  0.00     0.100 A 
BRANCH   8   9
ATOM      9  C   UNL d   1      24.776 -17.465  -0.375  0.00  0.00    -0.005 A 
ATOM     10  C   UNL d   1      24.152 -18.714  -0.277  0.00  0.00     0.016 A 
ATOM     11  C   UNL d   1      22.778 -18.838  -0.519  0.00  0.00     0.037 A 
ATOM     12  C   UNL d   1      22.004 -17.711  -0.812  0.00  0.00     0.068 A 
ATOM     13  C   UNL d   1      22.621 -16.464  -0.895  0.00  0.00     0.037 A 
ATOM     14  C   UNL d   1      24.000 -16.343  -0.689  0.00  0.00     0.016 A 
BRANCH  12  15
ATOM     15  O   UNL d   1      20.655 -17.919  -0.895  0.00  0.00    -0.356 OA
ATOM     16  C   UNL d   1      20.237 -19.257  -1.143  0.00  0.00     0.210 C 
ENDBRANCH  12  15
ENDBRANCH   8   9
ENDBRANCH   1   3
BRANCH   2  17
ATOM     17  N   UNL d   1      26.864 -12.481   0.078  0.00  0.00    -0.243 N 
ATOM     18  C   UNL d   1      27.599 -11.486  -0.565  0.00  0.00     0.271 C 
ATOM     19  O   UNL d   1      28.679 -11.669  -1.134  0.00  0.00    -0.266 OA
ATOM     20  H   UNL d   1      25.952 -12.292   0.479  0.00  0.00     0.192 HD
BRANCH  18  21
ATOM     21  C   UNL d   1      27.044 -10.099  -0.580  0.00  0.00     0.039 A 
ATOM     22  C   UNL d   1      26.766  -9.473   0.650  0.00  0.00     0.053 A 
ATOM     23  C   UNL d   1      26.077  -8.258   0.674  0.00  0.00     0.069 A 
ATOM     24  C   UNL d   1      25.718  -7.617  -0.505  0.00  0.00     0.073 A 
ATOM     25  C   UNL d   1      25.998  -8.239  -1.718  0.00  0.00     0.069 A 
ATOM     26  C   UNL d   1      26.650  -9.476  -1.770  0.00  0.00     0.053 A 
BRANCH  23  27
ATOM     27  O   UNL d   1      25.690  -7.672   1.846  0.00  0.00    -0.361 OA
ATOM     28  H   UNL d   1      26.374  -7.039   2.125  0.00  0.00     0.217 HD
ENDBRANCH  23  27
BRANCH  25  29
ATOM     29  O   UNL d   1      25.608  -7.682  -2.902  0.00  0.00    -0.361 OA
ATOM     30  H   UNL d   1      24.777  -7.193  -2.762  0.00  0.00     0.217 HD
ENDBRANCH  25  29
ENDBRANCH  18  21
ENDBRANCH   2  17
TORSDOF 7
ENDMDL
MODEL 8
REMARK VINA RESULT:    -6.620      5.066      7.388
REMARK INTER + INTRA:          -9.476
REMARK INTER:                  -8.708
REMARK INTRA:                  -0.768
REMARK CONF_INDEPENDENT:        2.088
REMARK UNBOUND:                -0.768
REMARK  7 active torsions:
REMARK  status: ('A' for Active; 'I' for Inactive)
REMARK    1  A    between atoms: O_2  and  C_3 
REMARK    2  A    between atoms: C_6  and  C_7 
REMARK    3  A    between atoms: C_11  and  C_12 
REMARK    4  A    between atoms: N_13  and  N_14 
REMARK       I    between atoms: N_14  and  C_15 
REMARK    5  A    between atoms: C_15  and  C_17 
REMARK    6  A    between atoms: C_19  and  O_20 
REMARK    7  A    between atoms: C_22  and  O_23 
ROOT
ATOM      1  C   UNL d   1      27.363 -15.184  -5.251  0.00  0.00     0.154 C 
ATOM      2  N   UNL d   1      28.516 -14.906  -5.771  0.00  0.00    -0.183 NA
ENDROOT
BRANCH   1   3
ATOM      3  C   UNL d   1      26.547 -14.126  -4.678  0.00  0.00     0.031 A 
ATOM      4  C   UNL d   1      26.315 -12.870  -5.204  0.00  0.00     0.124 A 
ATOM      5  N   UNL d   1      25.486 -12.228  -4.334  0.00  0.00    -0.288 N 
ATOM      6  N   UNL d   1      25.136 -12.978  -3.279  0.00  0.00    -0.174 NA
ATOM      7  H   UNL d   1      25.113 -11.284  -4.401  0.00  0.00     0.188 HD
ATOM      8  C   UNL d   1      25.782 -14.142  -3.465  0.00  0.00     0.100 A 
BRANCH   8   9
ATOM      9  C   UNL d   1      25.663 -15.218  -2.485  0.00  0.00    -0.005 A 
ATOM     10  C   UNL d   1      26.799 -15.882  -2.007  0.00  0.00     0.016 A 
ATOM     11  C   UNL d   1      26.667 -16.938  -1.096  0.00  0.00     0.037 A 
ATOM     12  C   UNL d   1      25.408 -17.308  -0.615  0.00  0.00     0.068 A 
ATOM     13  C   UNL d   1      24.277 -16.637  -1.080  0.00  0.00     0.037 A 
ATOM     14  C   UNL d   1      24.403 -15.606  -2.018  0.00  0.00     0.016 A 
BRANCH  12  15
ATOM     15  O   UNL d   1      25.400 -18.255   0.372  0.00  0.00    -0.356 OA
ATOM     16  C   UNL d   1      26.655 -18.542   0.980  0.00  0.00     0.210 C 
ENDBRANCH  12  15
ENDBRANCH   8   9
ENDBRANCH   1   3
BRANCH   2  17
ATOM     17  N   UNL d   1      29.247 -15.951  -6.309  0.00  0.00    -0.243 N 
ATOM     18  C   UNL d   1      29.702 -16.957  -5.459  0.00  0.00     0.271 C 
ATOM     19  O   UNL d   1      29.502 -16.989  -4.241  0.00  0.00    -0.266 OA
ATOM     20  H   UNL d   1      29.387 -16.001  -7.313  0.00  0.00     0.192 HD
BRANCH  18  21
ATOM     21  C   UNL d   1      30.479 -18.085  -6.054  0.00  0.00     0.039 A 
ATOM     22  C   UNL d   1      30.912 -17.973  -7.390  0.00  0.00     0.053 A 
ATOM     23  C   UNL d   1      31.474 -19.076  -8.035  0.00  0.00     0.069 A 
ATOM     24  C   UNL d   1      31.679 -20.272  -7.359  0.00  0.00     0.073 A 
ATOM     25  C   UNL d   1      31.253 -20.377  -6.039  0.00  0.00     0.069 A 
ATOM     26  C   UNL d   1      30.648 -19.300  -5.380  0.00  0.00     0.053 A 
BRANCH  23  27
ATOM     27  O   UNL d   1      31.806 -19.044  -9.360  0.00  0.00    -0.361 OA
ATOM     28  H   UNL d   1      32.193 -19.900  -9.612  0.00  0.00     0.217 HD
ENDBRANCH  23  27
BRANCH  25  29
ATOM     29  O   UNL d   1      31.372 -21.550  -5.351  0.00  0.00    -0.361 OA
ATOM     30  H   UNL d   1      30.688 -22.170  -5.662  0.00  0.00     0.217 HD
ENDBRANCH  25  29
ENDBRANCH  18  21
ENDBRANCH   2  17
TORSDOF 7
ENDMDL
MODEL 9
REMARK VINA RESULT:    -6.559      2.608      8.175
REMARK INTER + INTRA:          -9.522
REMARK INTER:                  -8.647
REMARK INTRA:                  -0.874
REMARK CONF_INDEPENDENT:        2.088
REMARK UNBOUND:                -0.874
REMARK  7 active torsions:
REMARK  status: ('A' for Active; 'I' for Inactive)
REMARK    1  A    between atoms: O_2  and  C_3 
REMARK    2  A    between atoms: C_6  and  C_7 
REMARK    3  A    between atoms: C_11  and  C_12 
REMARK    4  A    between atoms: N_13  and  N_14 
REMARK       I    between atoms: N_14  and  C_15 
REMARK    5  A    between atoms: C_15  and  C_17 
REMARK    6  A    between atoms: C_19  and  O_20 
REMARK    7  A    between atoms: C_22  and  O_23 
ROOT
ATOM      1  C   UNL d   1      27.342 -14.899  -4.996  0.00  0.00     0.154 C 
ATOM      2  N   UNL d   1      26.079 -15.169  -4.915  0.00  0.00    -0.183 NA
ENDROOT
BRANCH   1   3
ATOM      3  C   UNL d   1      27.846 -14.078  -6.085  0.00  0.00     0.031 A 
ATOM      4  C   UNL d   1      28.574 -14.496  -7.181  0.00  0.00     0.124 A 
ATOM      5  N   UNL d   1      28.814 -13.389  -7.938  0.00  0.00    -0.288 N 
ATOM      6  N   UNL d   1      28.278 -12.270  -7.430  0.00  0.00    -0.174 NA
ATOM      7  H   UNL d   1      29.327 -13.325  -8.813  0.00  0.00     0.188 HD
ATOM      8  C   UNL d   1      27.688 -12.668  -6.290  0.00  0.00     0.100 A 
BRANCH   8   9
ATOM      9  C   UNL d   1      27.009 -11.700  -5.433  0.00  0.00    -0.005 A 
ATOM     10  C   UNL d   1      27.164 -11.740  -4.042  0.00  0.00     0.016 A 
ATOM     11  C   UNL d   1      26.477 -10.829  -3.229  0.00  0.00     0.037 A 
ATOM     12  C   UNL d   1      25.670  -9.839  -3.797  0.00  0.00     0.068 A 
ATOM     13  C   UNL d   1      25.527  -9.789  -5.183  0.00  0.00     0.037 A 
ATOM     14  C   UNL d   1      26.184 -10.720  -5.995  0.00  0.00     0.016 A 
BRANCH  12  15
ATOM     15  O   UNL d   1      25.155  -8.917  -2.927  0.00  0.00    -0.356 OA
ATOM     16  C   UNL d   1      26.033  -8.455  -1.905  0.00  0.00     0.210 C 
ENDBRANCH  12  15
ENDBRANCH   8   9
ENDBRANCH   1   3
BRANCH   2  17
ATOM     17  N   UNL d   1      25.654 -15.950  -3.854  0.00  0.00    -0.243 N 
ATOM     18  C   UNL d   1      25.846 -15.479  -2.557  0.00  0.00     0.271 C 
ATOM     19  O   UNL d   1      26.378 -14.401  -2.274  0.00  0.00    -0.266 OA
ATOM     20  H   UNL d   1      25.158 -16.816  -4.036  0.00  0.00     0.192 HD
BRANCH  18  21
ATOM     21  C   UNL d   1      25.372 -16.325  -1.421  0.00  0.00     0.039 A 
ATOM     22  C   UNL d   1      26.309 -17.132  -0.747  0.00  0.00     0.053 A 
ATOM     23  C   UNL d   1      25.873 -18.071   0.190  0.00  0.00     0.069 A 
ATOM     24  C   UNL d   1      24.529 -18.179   0.523  0.00  0.00     0.073 A 
ATOM     25  C   UNL d   1      23.608 -17.376  -0.144  0.00  0.00     0.069 A 
ATOM     26  C   UNL d   1      24.012 -16.456  -1.117  0.00  0.00     0.053 A 
BRANCH  23  27
ATOM     27  O   UNL d   1      26.735 -18.948   0.786  0.00  0.00    -0.361 OA
ATOM     28  H   UNL d   1      27.648 -18.658   0.622  0.00  0.00     0.217 HD
ENDBRANCH  23  27
BRANCH  25  29
ATOM     29  O   UNL d   1      22.269 -17.489   0.100  0.00  0.00    -0.361 OA
ATOM     30  H   UNL d   1      22.074 -17.103   0.972  0.00  0.00     0.217 HD
ENDBRANCH  25  29
ENDBRANCH  18  21
ENDBRANCH   2  17
TORSDOF 7
ENDMDL
