MODEL 1
REMARK VINA RESULT:   -31.596      0.000      0.000
REMARK INTER + INTRA:         -34.599
REMARK INTER:                 -33.684
REMARK INTRA:                  -0.915
REMARK CONF_INDEPENDENT:        2.088
REMARK UNBOUND:                -0.915
REMARK  7 active torsions:
REMARK  status: ('A' for Active; 'I' for Inactive)
REMARK    1  A    between atoms: C_6  and  N_7 
REMARK    2  A    between atoms: N_7  and  S_8 
REMARK    3  A    between atoms: S_8  and  C_11 
REMARK    4  A    between atoms: C_14  and  N_15 
REMARK       I    between atoms: N_15  and  C_16 
REMARK    5  A    between atoms: C_16  and  C_18 
REMARK    6  A    between atoms: C_21  and  O_22 
REMARK    7  A    between atoms: O_22  and  C_23 
ROOT
ATOM      1  C   UNL d   1      24.415 -16.917  -1.143  0.00  0.00     0.080 A 
ATOM      2  C   UNL d   1      25.701 -17.463  -0.962  0.00  0.00     0.027 A 
ATOM      3  C   UNL d   1      26.810 -16.955  -1.684  0.00  0.00     0.031 A 
ATOM      4  C   UNL d   1      26.630 -15.948  -2.643  0.00  0.00     0.035 A 
ATOM      5  C   UNL d   1      25.338 -15.435  -2.797  0.00  0.00     0.031 A 
ATOM      6  C   UNL d   1      24.241 -15.910  -2.075  0.00  0.00     0.027 A 
ENDROOT
BRANCH   4   7
ATOM      7  N   UNL d   1      27.720 -15.500  -3.451  0.00  0.00    -0.323 N 
ATOM      8  C   UNL d   1      27.664 -15.354  -4.840  0.00  0.00     0.256 C 
ATOM      9  O   UNL d   1      26.692 -15.557  -5.562  0.00  0.00    -0.267 OA
ATOM     10  H   UNL d   1      28.593 -15.298  -2.979  0.00  0.00     0.169 HD
BRANCH   8  11
ATOM     11  C   UNL d   1      28.884 -14.932  -5.562  0.00  0.00     0.032 A 
ATOM     12  C   UNL d   1      28.886 -13.685  -6.211  0.00  0.00     0.020 A 
ATOM     13  C   UNL d   1      29.918 -13.339  -7.095  0.00  0.00     0.038 A 
ATOM     14  C   UNL d   1      31.006 -14.195  -7.263  0.00  0.00     0.069 A 
ATOM     15  C   UNL d   1      31.010 -15.414  -6.573  0.00  0.00     0.038 A 
ATOM     16  C   UNL d   1      29.939 -15.810  -5.767  0.00  0.00     0.020 A 
BRANCH  14  17
ATOM     17  O   UNL d   1      31.987 -13.763  -8.122  0.00  0.00    -0.347 OA
BRANCH  17  18
ATOM     18  C   UNL d   1      32.047 -12.357  -8.415  0.00  0.00     0.120 C 
ATOM     19  C   UNL d   1      32.816 -11.598  -7.329  0.00  0.00     0.040 C 
ATOM     20  C   UNL d   1      32.803 -12.154  -9.733  0.00  0.00     0.040 C 
ENDBRANCH  17  18
ENDBRANCH  14  17
ENDBRANCH   8  11
ENDBRANCH   4   7
BRANCH   1  21
ATOM     21  S   UNL d   1      23.050 -17.465  -0.108  0.00  0.00     0.276 S 
ATOM     22  O   UNL d   1      22.338 -16.255   0.229  0.00  0.00    -0.200 OA
ATOM     23  O   UNL d   1      23.667 -18.305   0.905  0.00  0.00    -0.200 OA
BRANCH  21  24
ATOM     24  N   UNL d   1      22.064 -18.409  -1.064  0.00  0.00    -0.109 N 
ATOM     25  H   UNL d   1      22.170 -18.540  -2.057  0.00  0.00     0.198 HD
BRANCH  24  26
ATOM     26  C   UNL d   1      20.948 -19.036  -0.498  0.00  0.00     0.736 A 
ATOM     27  N   UNL d   1      19.905 -19.325  -1.270  0.00  0.00    -0.074 NA
ATOM     28  C   UNL d   1      18.850 -19.885  -0.656  0.00  0.00     0.138 A 
ATOM     29  C   UNL d   1      18.808 -20.157   0.689  0.00  0.00     0.047 A 
ATOM     30  C   UNL d   1      19.940 -19.828   1.411  0.00  0.00     0.051 A 
ATOM     31  C   UNL d   1      19.973 -20.094   2.893  0.00  0.00     0.071 C 
ATOM     32  N   UNL d   1      21.031 -19.261   0.828  0.00  0.00    -0.067 NA
ENDBRANCH  24  26
ENDBRANCH  21  24
ENDBRANCH   1  21
TORSDOF 7
ENDMDL
MODEL 2
REMARK VINA RESULT:   -30.900      1.859      2.446
REMARK INTER + INTRA:         -33.878
REMARK INTER:                 -32.988
REMARK INTRA:                  -0.890
REMARK CONF_INDEPENDENT:        2.088
REMARK UNBOUND:                -0.890
REMARK  7 active torsions:
REMARK  status: ('A' for Active; 'I' for Inactive)
REMARK    1  A    between atoms: C_6  and  N_7 
REMARK    2  A    between atoms: N_7  and  S_8 
REMARK    3  A    between atoms: S_8  and  C_11 
REMARK    4  A    between atoms: C_14  and  N_15 
REMARK       I    between atoms: N_15  and  C_16 
REMARK    5  A    between atoms: C_16  and  C_18 
REMARK    6  A    between atoms: C_21  and  O_22 
REMARK    7  A    between atoms: O_22  and  C_23 
ROOT
ATOM      1  C   UNL d   1      24.260 -17.154  -1.242  0.00  0.00     0.080 A 
ATOM      2  C   UNL d   1      23.656 -15.946  -1.643  0.00  0.00     0.027 A 
ATOM      3  C   UNL d   1      24.376 -14.998  -2.411  0.00  0.00     0.031 A 
ATOM      4  C   UNL d   1      25.726 -15.215  -2.722  0.00  0.00     0.035 A 
ATOM      5  C   UNL d   1      26.292 -16.424  -2.303  0.00  0.00     0.031 A 
ATOM      6  C   UNL d   1      25.585 -17.378  -1.567  0.00  0.00     0.027 A 
ENDROOT
BRANCH   4   7
ATOM      7  N   UNL d   1      26.492 -14.222  -3.405  0.00  0.00    -0.323 N 
ATOM      8  C   UNL d   1      26.900 -14.319  -4.739  0.00  0.00     0.256 C 
ATOM      9  O   UNL d   1      26.650 -15.234  -5.519  0.00  0.00    -0.267 OA
ATOM     10  H   UNL d   1      26.774 -13.407  -2.872  0.00  0.00     0.169 HD
BRANCH   8  11
ATOM     11  C   UNL d   1      27.739 -13.243  -5.308  0.00  0.00     0.032 A 
ATOM     12  C   UNL d   1      27.396 -11.906  -5.035  0.00  0.00     0.020 A 
ATOM     13  C   UNL d   1      28.010 -10.854  -5.730  0.00  0.00     0.038 A 
ATOM     14  C   UNL d   1      29.039 -11.122  -6.633  0.00  0.00     0.069 A 
ATOM     15  C   UNL d   1      29.397 -12.457  -6.859  0.00  0.00     0.038 A 
ATOM     16  C   UNL d   1      28.725 -13.517  -6.245  0.00  0.00     0.020 A 
BRANCH  14  17
ATOM     17  O   UNL d   1      29.605 -10.031  -7.243  0.00  0.00    -0.347 OA
BRANCH  17  18
ATOM     18  C   UNL d   1      29.134  -9.678  -8.555  0.00  0.00     0.120 C 
ATOM     19  C   UNL d   1      30.041 -10.258  -9.643  0.00  0.00     0.040 C 
ATOM     20  C   UNL d   1      27.737 -10.275  -8.761  0.00  0.00     0.040 C 
ENDBRANCH  17  18
ENDBRANCH  14  17
ENDBRANCH   8  11
ENDBRANCH   4   7
BRANCH   1  21
ATOM     21  S   UNL d   1      23.287 -18.414  -0.405  0.00  0.00     0.276 S 
ATOM     22  O   UNL d   1      23.540 -18.198   1.000  0.00  0.00    -0.200 OA
ATOM     23  O   UNL d   1      23.639 -19.657  -1.071  0.00  0.00    -0.200 OA
BRANCH  21  24
ATOM     24  N   UNL d   1      21.685 -18.074  -0.712  0.00  0.00    -0.109 N 
ATOM     25  H   UNL d   1      21.346 -17.253  -1.189  0.00  0.00     0.198 HD
BRANCH  24  26
ATOM     26  C   UNL d   1      20.691 -18.932  -0.229  0.00  0.00     0.736 A 
ATOM     27  N   UNL d   1      19.718 -19.325  -1.046  0.00  0.00    -0.074 NA
ATOM     28  C   UNL d   1      18.774 -20.112  -0.507  0.00  0.00     0.138 A 
ATOM     29  C   UNL d   1      18.772 -20.510   0.807  0.00  0.00     0.047 A 
ATOM     30  C   UNL d   1      19.826 -20.059   1.579  0.00  0.00     0.051 A 
ATOM     31  C   UNL d   1      19.897 -20.451   3.032  0.00  0.00     0.071 C 
ATOM     32  N   UNL d   1      20.805 -19.262   1.073  0.00  0.00    -0.067 NA
ENDBRANCH  24  26
ENDBRANCH  21  24
ENDBRANCH   1  21
TORSDOF 7
ENDMDL
MODEL 3
REMARK VINA RESULT:   -30.162      5.252      6.315
REMARK INTER + INTRA:         -33.134
REMARK INTER:                 -32.250
REMARK INTRA:                  -0.884
REMARK CONF_INDEPENDENT:        2.088
REMARK UNBOUND:                -0.884
REMARK  7 active torsions:
REMARK  status: ('A' for Active; 'I' for Inactive)
REMARK    1  A    between atoms: C_6  and  N_7 
REMARK    2  A    between atoms: N_7  and  S_8 
REMARK    3  A    between atoms: S_8  and  C_11 
REMARK    4  A    between atoms: C_14  and  N_15 
REMARK       I    between atoms: N_15  and  C_16 
REMARK    5  A    between atoms: C_16  and  C_18 
REMARK    6  A    between atoms: C_21  and  O_22 
REMARK    7  A    between atoms: O_22  and  C_23 
ROOT
ATOM      1  C   UNL d   1      24.574 -17.763  -0.467  0.00  0.00     0.080 A 
ATOM      2  C   UNL d   1      24.581 -16.433  -0.934  0.00  0.00     0.027 A 
ATOM      3  C   UNL d   1      25.685 -15.583  -0.676  0.00  0.00     0.031 A 
ATOM      4  C   UNL d   1      26.756 -16.030   0.110  0.00  0.00     0.035 A 
ATOM      5  C   UNL d   1      26.711 -17.354   0.559  0.00  0.00     0.031 A 
ATOM      6  C   UNL d   1      25.641 -18.210   0.291  0.00  0.00     0.027 A 
ENDROOT
BRANCH   4   7
ATOM      7  N   UNL d   1      27.825 -15.151   0.465  0.00  0.00    -0.323 N 
ATOM      8  C   UNL d   1      27.658 -13.935   1.133  0.00  0.00     0.256 C 
ATOM      9  O   UNL d   1      26.600 -13.455   1.532  0.00  0.00    -0.267 OA
ATOM     10  H   UNL d   1      28.761 -15.426   0.189  0.00  0.00     0.169 HD
BRANCH   8  11
ATOM     11  C   UNL d   1      28.846 -13.093   1.390  0.00  0.00     0.032 A 
ATOM     12  C   UNL d   1      30.074 -13.468   0.817  0.00  0.00     0.020 A 
ATOM     13  C   UNL d   1      31.267 -12.846   1.210  0.00  0.00     0.038 A 
ATOM     14  C   UNL d   1      31.233 -11.779   2.109  0.00  0.00     0.069 A 
ATOM     15  C   UNL d   1      29.996 -11.390   2.636  0.00  0.00     0.038 A 
ATOM     16  C   UNL d   1      28.814 -12.068   2.324  0.00  0.00     0.020 A 
BRANCH  14  17
ATOM     17  O   UNL d   1      32.444 -11.208   2.414  0.00  0.00    -0.347 OA
BRANCH  17  18
ATOM     18  C   UNL d   1      33.189 -11.764   3.510  0.00  0.00     0.120 C 
ATOM     19  C   UNL d   1      33.680 -13.178   3.186  0.00  0.00     0.040 C 
ATOM     20  C   UNL d   1      34.430 -10.899   3.761  0.00  0.00     0.040 C 
ENDBRANCH  17  18
ENDBRANCH  14  17
ENDBRANCH   8  11
ENDBRANCH   4   7
BRANCH   1  21
ATOM     21  S   UNL d   1      23.241 -18.875  -0.935  0.00  0.00     0.276 S 
ATOM     22  O   UNL d   1      23.465 -20.066  -0.150  0.00  0.00    -0.200 OA
ATOM     23  O   UNL d   1      23.266 -18.893  -2.389  0.00  0.00    -0.200 OA
BRANCH  21  24
ATOM     24  N   UNL d   1      21.819 -18.169  -0.429  0.00  0.00    -0.109 N 
ATOM     25  H   UNL d   1      21.669 -17.178  -0.318  0.00  0.00     0.198 HD
BRANCH  24  26
ATOM     26  C   UNL d   1      20.741 -18.978  -0.053  0.00  0.00     0.736 A 
ATOM     27  N   UNL d   1      19.840 -19.325  -0.967  0.00  0.00    -0.074 NA
ATOM     28  C   UNL d   1      18.808 -20.065  -0.531  0.00  0.00     0.138 A 
ATOM     29  C   UNL d   1      18.652 -20.460   0.776  0.00  0.00     0.047 A 
ATOM     30  C   UNL d   1      19.642 -20.059   1.653  0.00  0.00     0.051 A 
ATOM     31  C   UNL d   1      19.544 -20.451   3.104  0.00  0.00     0.071 C 
ATOM     32  N   UNL d   1      20.705 -19.310   1.252  0.00  0.00    -0.067 NA
ENDBRANCH  24  26
ENDBRANCH  21  24
ENDBRANCH   1  21
TORSDOF 7
ENDMDL
