MODEL 1
REMARK VINA RESULT:    -8.284      0.000      0.000
REMARK INTER + INTRA:         -10.581
REMARK INTER:                  -9.179
REMARK INTRA:                  -1.402
REMARK CONF_INDEPENDENT:        0.895
REMARK UNBOUND:                -1.402
REMARK  3 active torsions:
REMARK  status: ('A' for Active; 'I' for Inactive)
REMARK    1  A    between atoms: C_9  and  N_10 
REMARK    2  A    between atoms: C_20  and  C_21 
REMARK    3  A    between atoms: C_26  and  N_27 
ROOT
ATOM      1  N   UNL d   1      30.674 -13.744  -1.865  0.00  0.00    -0.196 NA
ATOM      2  C   UNL d   1      29.832 -14.526  -1.811  0.00  0.00     0.074 C 
ATOM      3  C   UNL d   1      28.828 -15.590  -1.587  0.00  0.00     0.198 C 
ATOM      4  C   UNL d   1      29.523 -16.540  -0.649  0.00  0.00     0.242 C 
ATOM      5  O   UNL d   1      29.727 -17.710  -0.966  0.00  0.00    -0.272 OA
ATOM      6  N   UNL d   1      29.811 -15.978   0.604  0.00  0.00    -0.309 N 
ATOM      7  C   UNL d   1      28.945 -15.054   1.226  0.00  0.00     0.162 A 
ATOM      8  N   UNL d   1      29.113 -14.788   2.580  0.00  0.00    -0.046 NA
ATOM      9  C   UNL d   1      28.158 -14.165   3.231  0.00  0.00     0.707 A 
ATOM     10  N   UNL d   1      27.052 -13.700   2.563  0.00  0.00    -0.154 N 
ATOM     11  C   UNL d   1      26.859 -13.847   1.226  0.00  0.00     0.270 A 
ATOM     12  O   UNL d   1      25.905 -13.359   0.629  0.00  0.00    -0.267 OA
ATOM     13  C   UNL d   1      27.859 -14.663   0.532  0.00  0.00     0.067 A 
ATOM     14  C   UNL d   1      27.555 -15.099  -0.878  0.00  0.00     0.090 C 
ATOM     15  H   UNL d   1      30.402 -16.527   1.219  0.00  0.00     0.170 HD
ATOM     16  H   UNL d   1      26.413 -13.080   3.033  0.00  0.00     0.187 HD
ENDROOT
BRANCH  14  17
ATOM     17  C   UNL d   1      26.397 -16.135  -0.992  0.00  0.00    -0.015 C 
ATOM     18  C   UNL d   1      26.330 -17.135   0.013  0.00  0.00     0.010 C 
ATOM     19  C   UNL d   1      25.175 -17.912   0.191  0.00  0.00     0.001 C 
ATOM     20  C   UNL d   1      24.194 -17.946  -0.788  0.00  0.00     0.002 C 
ATOM     21  C   UNL d   1      24.304 -17.104  -1.873  0.00  0.00     0.037 C 
ATOM     22  C   UNL d   1      25.331 -16.153  -1.940  0.00  0.00     0.110 C 
BRANCH  22  23
ATOM     23  N   UNL d   1      25.195 -15.316  -3.134  0.00  0.00    -0.115 N 
ATOM     24  O   UNL d   1      24.316 -14.444  -3.145  0.00  0.00    -0.532 OA
ATOM     25  O   UNL d   1      25.866 -15.614  -4.113  0.00  0.00    -0.532 OA
ENDBRANCH  22  23
ENDBRANCH  14  17
BRANCH   9  26
ATOM     26  N   UNL d   1      28.201 -13.828   4.586  0.00  0.00    -0.216 N 
ATOM     27  C   UNL d   1      27.781 -12.547   5.188  0.00  0.00     0.141 C 
ATOM     28  C   UNL d   1      28.932 -11.959   6.021  0.00  0.00     0.020 C 
ATOM     29  C   UNL d   1      29.443 -12.954   7.067  0.00  0.00     0.003 C 
ATOM     30  C   UNL d   1      29.728 -14.313   6.424  0.00  0.00     0.020 C 
ATOM     31  C   UNL d   1      28.533 -14.825   5.602  0.00  0.00     0.141 C 
ENDBRANCH   9  26
TORSDOF 3
ENDMDL
MODEL 2
REMARK VINA RESULT:    -7.754      4.071      5.764
REMARK INTER + INTRA:          -9.929
REMARK INTER:                  -8.649
REMARK INTRA:                  -1.281
REMARK CONF_INDEPENDENT:        0.895
REMARK UNBOUND:                -1.281
REMARK  3 active torsions:
REMARK  status: ('A' for Active; 'I' for Inactive)
REMARK    1  A    between atoms: C_9  and  N_10 
REMARK    2  A    between atoms: C_20  and  C_21 
REMARK    3  A    between atoms: C_26  and  N_27 
ROOT
ATOM      1  N   UNL d   1      30.173 -13.022  -3.572  0.00  0.00    -0.196 NA
ATOM      2  C   UNL d   1      29.184 -13.590  -3.414  0.00  0.00     0.074 C 
ATOM      3  C   UNL d   1      27.992 -14.457  -3.302  0.00  0.00     0.198 C 
ATOM      4  C   UNL d   1      28.190 -15.476  -4.392  0.00  0.00     0.242 C 
ATOM      5  O   UNL d   1      27.379 -15.594  -5.307  0.00  0.00    -0.272 OA
ATOM      6  N   UNL d   1      29.313 -16.295  -4.194  0.00  0.00    -0.309 N 
ATOM      7  C   UNL d   1      29.717 -16.712  -2.908  0.00  0.00     0.162 A 
ATOM      8  N   UNL d   1      30.617 -17.765  -2.800  0.00  0.00    -0.046 NA
ATOM      9  C   UNL d   1      30.780 -18.348  -1.634  0.00  0.00     0.707 A 
ATOM     10  N   UNL d   1      30.141 -17.862  -0.520  0.00  0.00    -0.154 N 
ATOM     11  C   UNL d   1      29.313 -16.784  -0.533  0.00  0.00     0.270 A 
ATOM     12  O   UNL d   1      28.811 -16.313   0.482  0.00  0.00    -0.267 OA
ATOM     13  C   UNL d   1      29.027 -16.226  -1.857  0.00  0.00     0.067 A 
ATOM     14  C   UNL d   1      27.908 -15.225  -1.971  0.00  0.00     0.090 C 
ATOM     15  H   UNL d   1      29.572 -16.899  -4.966  0.00  0.00     0.170 HD
ATOM     16  H   UNL d   1      30.402 -18.203   0.391  0.00  0.00     0.187 HD
ENDROOT
BRANCH  14  17
ATOM     17  C   UNL d   1      26.488 -15.821  -1.739  0.00  0.00    -0.015 C 
ATOM     18  C   UNL d   1      26.405 -16.977  -0.920  0.00  0.00     0.010 C 
ATOM     19  C   UNL d   1      25.178 -17.409  -0.392  0.00  0.00     0.001 C 
ATOM     20  C   UNL d   1      23.984 -16.914  -0.895  0.00  0.00     0.002 C 
ATOM     21  C   UNL d   1      24.022 -15.898  -1.824  0.00  0.00     0.037 C 
ATOM     22  C   UNL d   1      25.237 -15.296  -2.179  0.00  0.00     0.110 C 
BRANCH  22  23
ATOM     23  N   UNL d   1      25.021 -14.187  -3.109  0.00  0.00    -0.115 N 
ATOM     24  O   UNL d   1      24.692 -14.450  -4.273  0.00  0.00    -0.532 OA
ATOM     25  O   UNL d   1      25.313 -13.062  -2.726  0.00  0.00    -0.532 OA
ENDBRANCH  22  23
ENDBRANCH  14  17
BRANCH   9  26
ATOM     26  N   UNL d   1      31.656 -19.407  -1.384  0.00  0.00    -0.216 N 
ATOM     27  C   UNL d   1      31.940 -20.544  -2.281  0.00  0.00     0.141 C 
ATOM     28  C   UNL d   1      31.699 -21.869  -1.537  0.00  0.00     0.020 C 
ATOM     29  C   UNL d   1      32.499 -21.941  -0.233  0.00  0.00     0.003 C 
ATOM     30  C   UNL d   1      32.291 -20.675   0.599  0.00  0.00     0.020 C 
ATOM     31  C   UNL d   1      32.540 -19.398  -0.220  0.00  0.00     0.141 C 
ENDBRANCH   9  26
TORSDOF 3
ENDMDL
MODEL 3
REMARK VINA RESULT:    -7.590      3.392      4.610
REMARK INTER + INTRA:          -9.668
REMARK INTER:                  -8.485
REMARK INTRA:                  -1.183
REMARK CONF_INDEPENDENT:        0.895
REMARK UNBOUND:                -1.183
REMARK  3 active torsions:
REMARK  status: ('A' for Active; 'I' for Inactive)
REMARK    1  A    between atoms: C_9  and  N_10 
REMARK    2  A    between atoms: C_20  and  C_21 
REMARK    3  A    between atoms: C_26  and  N_27 
ROOT
ATOM      1  N   UNL d   1      29.806 -12.506  -3.436  0.00  0.00    -0.196 NA
ATOM      2  C   UNL d   1      28.985 -13.301  -3.300  0.00  0.00     0.074 C 
ATOM      3  C   UNL d   1      28.058 -14.446  -3.170  0.00  0.00     0.198 C 
ATOM      4  C   UNL d   1      28.731 -15.538  -3.956  0.00  0.00     0.242 C 
ATOM      5  O   UNL d   1      28.184 -16.051  -4.930  0.00  0.00    -0.272 OA
ATOM      6  N   UNL d   1      29.960 -15.942  -3.412  0.00  0.00    -0.309 N 
ATOM      7  C   UNL d   1      30.183 -15.987  -2.019  0.00  0.00     0.162 A 
ATOM      8  N   UNL d   1      31.281 -16.692  -1.541  0.00  0.00    -0.046 NA
ATOM      9  C   UNL d   1      31.343 -16.983  -0.261  0.00  0.00     0.707 A 
ATOM     10  N   UNL d   1      30.386 -16.516   0.604  0.00  0.00    -0.154 N 
ATOM     11  C   UNL d   1      29.331 -15.749   0.222  0.00  0.00     0.270 A 
ATOM     12  O   UNL d   1      28.526 -15.273   1.016  0.00  0.00    -0.267 OA
ATOM     13  C   UNL d   1      29.191 -15.545  -1.222  0.00  0.00     0.067 A 
ATOM     14  C   UNL d   1      27.901 -14.954  -1.727  0.00  0.00     0.090 C 
ATOM     15  H   UNL d   1      30.519 -16.572  -3.978  0.00  0.00     0.170 HD
ATOM     16  H   UNL d   1      30.532 -16.597   1.597  0.00  0.00     0.187 HD
ENDROOT
BRANCH  14  17
ATOM     17  C   UNL d   1      26.665 -15.890  -1.578  0.00  0.00    -0.015 C 
ATOM     18  C   UNL d   1      26.706 -16.843  -0.526  0.00  0.00     0.010 C 
ATOM     19  C   UNL d   1      25.546 -17.511  -0.103  0.00  0.00     0.001 C 
ATOM     20  C   UNL d   1      24.403 -17.497  -0.887  0.00  0.00     0.002 C 
ATOM     21  C   UNL d   1      24.377 -16.709  -2.017  0.00  0.00     0.037 C 
ATOM     22  C   UNL d   1      25.445 -15.853  -2.316  0.00  0.00     0.110 C 
BRANCH  22  23
ATOM     23  N   UNL d   1      25.158 -15.053  -3.508  0.00  0.00    -0.115 N 
ATOM     24  O   UNL d   1      24.402 -14.078  -3.396  0.00  0.00    -0.532 OA
ATOM     25  O   UNL d   1      25.570 -15.470  -4.583  0.00  0.00    -0.532 OA
ENDBRANCH  22  23
ENDBRANCH  14  17
BRANCH   9  26
ATOM     26  N   UNL d   1      32.391 -17.676   0.351  0.00  0.00    -0.216 N 
ATOM     27  C   UNL d   1      33.250 -18.701  -0.272  0.00  0.00     0.141 C 
ATOM     28  C   UNL d   1      33.222 -19.988   0.571  0.00  0.00     0.020 C 
ATOM     29  C   UNL d   1      33.599 -19.720   2.030  0.00  0.00     0.003 C 
ATOM     30  C   UNL d   1      32.787 -18.552   2.592  0.00  0.00     0.020 C 
ATOM     31  C   UNL d   1      32.859 -17.311   1.687  0.00  0.00     0.141 C 
ENDBRANCH   9  26
TORSDOF 3
ENDMDL
MODEL 4
REMARK VINA RESULT:    -7.580      3.151      4.822
REMARK INTER + INTRA:         -10.645
REMARK INTER:                  -8.475
REMARK INTRA:                  -2.170
REMARK CONF_INDEPENDENT:        0.895
REMARK UNBOUND:                -2.170
REMARK  3 active torsions:
REMARK  status: ('A' for Active; 'I' for Inactive)
REMARK    1  A    between atoms: C_9  and  N_10 
REMARK    2  A    between atoms: C_20  and  C_21 
REMARK    3  A    between atoms: C_26  and  N_27 
ROOT
ATOM      1  N   UNL d   1      26.574 -12.209  -3.033  0.00  0.00    -0.196 NA
ATOM      2  C   UNL d   1      26.015 -13.179  -2.766  0.00  0.00     0.074 C 
ATOM      3  C   UNL d   1      25.436 -14.514  -2.501  0.00  0.00     0.198 C 
ATOM      4  C   UNL d   1      26.148 -15.410  -3.479  0.00  0.00     0.242 C 
ATOM      5  O   UNL d   1      25.528 -16.036  -4.335  0.00  0.00    -0.272 OA
ATOM      6  N   UNL d   1      27.528 -15.507  -3.244  0.00  0.00    -0.309 N 
ATOM      7  C   UNL d   1      28.068 -15.501  -1.941  0.00  0.00     0.162 A 
ATOM      8  N   UNL d   1      29.380 -15.922  -1.759  0.00  0.00    -0.046 NA
ATOM      9  C   UNL d   1      29.800 -16.194  -0.544  0.00  0.00     0.707 A 
ATOM     10  N   UNL d   1      28.984 -15.974   0.538  0.00  0.00    -0.154 N 
ATOM     11  C   UNL d   1      27.720 -15.483   0.444  0.00  0.00     0.270 A 
ATOM     12  O   UNL d   1      27.030 -15.217   1.423  0.00  0.00    -0.267 OA
ATOM     13  C   UNL d   1      27.210 -15.314  -0.919  0.00  0.00     0.067 A 
ATOM     14  C   UNL d   1      25.737 -15.050  -1.090  0.00  0.00     0.090 C 
ATOM     15  H   UNL d   1      28.074 -15.981  -3.956  0.00  0.00     0.170 HD
ATOM     16  H   UNL d   1      29.368 -16.021   1.467  0.00  0.00     0.187 HD
ENDROOT
BRANCH  14  17
ATOM     17  C   UNL d   1      24.822 -16.257  -0.726  0.00  0.00    -0.015 C 
ATOM     18  C   UNL d   1      23.424 -16.072  -0.888  0.00  0.00     0.010 C 
ATOM     19  C   UNL d   1      22.542 -17.165  -0.895  0.00  0.00     0.001 C 
ATOM     20  C   UNL d   1      22.959 -18.406  -0.441  0.00  0.00     0.002 C 
ATOM     21  C   UNL d   1      24.284 -18.586  -0.111  0.00  0.00     0.037 C 
ATOM     22  C   UNL d   1      25.221 -17.567  -0.330  0.00  0.00     0.110 C 
BRANCH  22  23
ATOM     23  N   UNL d   1      26.572 -18.015   0.010  0.00  0.00    -0.115 N 
ATOM     24  O   UNL d   1      27.424 -18.054  -0.888  0.00  0.00    -0.532 OA
ATOM     25  O   UNL d   1      26.756 -18.460   1.136  0.00  0.00    -0.532 OA
ENDBRANCH  22  23
ENDBRANCH  14  17
BRANCH   9  26
ATOM     26  N   UNL d   1      31.092 -16.615  -0.220  0.00  0.00    -0.216 N 
ATOM     27  C   UNL d   1      31.848 -17.708  -0.863  0.00  0.00     0.141 C 
ATOM     28  C   UNL d   1      32.319 -18.714   0.201  0.00  0.00     0.020 C 
ATOM     29  C   UNL d   1      33.117 -18.031   1.315  0.00  0.00     0.003 C 
ATOM     30  C   UNL d   1      32.360 -16.815   1.853  0.00  0.00     0.020 C 
ATOM     31  C   UNL d   1      31.916 -15.867   0.727  0.00  0.00     0.141 C 
ENDBRANCH   9  26
TORSDOF 3
ENDMDL
MODEL 5
REMARK VINA RESULT:    -7.505      4.119      6.683
REMARK INTER + INTRA:         -10.711
REMARK INTER:                  -8.400
REMARK INTRA:                  -2.311
REMARK CONF_INDEPENDENT:        0.895
REMARK UNBOUND:                -2.311
REMARK  3 active torsions:
REMARK  status: ('A' for Active; 'I' for Inactive)
REMARK    1  A    between atoms: C_9  and  N_10 
REMARK    2  A    between atoms: C_20  and  C_21 
REMARK    3  A    between atoms: C_26  and  N_27 
ROOT
ATOM      1  N   UNL d   1      25.155  -9.177  -2.474  0.00  0.00    -0.196 NA
ATOM      2  C   UNL d   1      25.811  -9.700  -3.262  0.00  0.00     0.074 C 
ATOM      3  C   UNL d   1      26.746 -10.442  -4.134  0.00  0.00     0.198 C 
ATOM      4  C   UNL d   1      27.923 -10.720  -3.237  0.00  0.00     0.242 C 
ATOM      5  O   UNL d   1      29.043 -10.293  -3.507  0.00  0.00    -0.272 OA
ATOM      6  N   UNL d   1      27.615 -11.560  -2.157  0.00  0.00    -0.309 N 
ATOM      7  C   UNL d   1      26.691 -12.621  -2.272  0.00  0.00     0.162 A 
ATOM      8  N   UNL d   1      26.672 -13.601  -1.288  0.00  0.00    -0.046 NA
ATOM      9  C   UNL d   1      26.035 -14.726  -1.520  0.00  0.00     0.707 A 
ATOM     10  N   UNL d   1      25.320 -14.892  -2.680  0.00  0.00    -0.154 N 
ATOM     11  C   UNL d   1      25.222 -13.945  -3.650  0.00  0.00     0.270 A 
ATOM     12  O   UNL d   1      24.517 -14.075  -4.645  0.00  0.00    -0.267 OA
ATOM     13  C   UNL d   1      26.046 -12.751  -3.449  0.00  0.00     0.067 A 
ATOM     14  C   UNL d   1      26.204 -11.801  -4.608  0.00  0.00     0.090 C 
ATOM     15  H   UNL d   1      28.332 -11.663  -1.447  0.00  0.00     0.170 HD
ATOM     16  H   UNL d   1      24.700 -15.681  -2.773  0.00  0.00     0.187 HD
ENDROOT
BRANCH  14  17
ATOM     17  C   UNL d   1      27.037 -12.372  -5.795  0.00  0.00    -0.015 C 
ATOM     18  C   UNL d   1      27.187 -11.535  -6.931  0.00  0.00     0.010 C 
ATOM     19  C   UNL d   1      28.157 -11.805  -7.910  0.00  0.00     0.001 C 
ATOM     20  C   UNL d   1      28.778 -13.044  -7.961  0.00  0.00     0.002 C 
ATOM     21  C   UNL d   1      28.530 -13.956  -6.959  0.00  0.00     0.037 C 
ATOM     22  C   UNL d   1      27.749 -13.606  -5.849  0.00  0.00     0.110 C 
BRANCH  22  23
ATOM     23  N   UNL d   1      27.698 -14.700  -4.877  0.00  0.00    -0.115 N 
ATOM     24  O   UNL d   1      28.435 -14.640  -3.884  0.00  0.00    -0.532 OA
ATOM     25  O   UNL d   1      27.030 -15.684  -5.166  0.00  0.00    -0.532 OA
ENDBRANCH  22  23
ENDBRANCH  14  17
BRANCH   9  26
ATOM     26  N   UNL d   1      25.930 -15.787  -0.617  0.00  0.00    -0.216 N 
ATOM     27  C   UNL d   1      26.993 -16.294   0.272  0.00  0.00     0.141 C 
ATOM     28  C   UNL d   1      27.186 -17.804   0.048  0.00  0.00     0.020 C 
ATOM     29  C   UNL d   1      25.873 -18.575   0.211  0.00  0.00     0.003 C 
ATOM     30  C   UNL d   1      24.761 -17.926  -0.616  0.00  0.00     0.020 C 
ATOM     31  C   UNL d   1      24.641 -16.418  -0.340  0.00  0.00     0.141 C 
ENDBRANCH   9  26
TORSDOF 3
ENDMDL
MODEL 6
REMARK VINA RESULT:    -6.638      3.006      7.192
REMARK INTER + INTRA:          -9.849
REMARK INTER:                  -7.533
REMARK INTRA:                  -2.316
REMARK CONF_INDEPENDENT:        0.895
REMARK UNBOUND:                -2.316
REMARK  3 active torsions:
REMARK  status: ('A' for Active; 'I' for Inactive)
REMARK    1  A    between atoms: C_9  and  N_10 
REMARK    2  A    between atoms: C_20  and  C_21 
REMARK    3  A    between atoms: C_26  and  N_27 
ROOT
ATOM      1  N   UNL d   1      29.082  -9.349   0.582  0.00  0.00    -0.196 NA
ATOM      2  C   UNL d   1      28.910  -9.719   1.658  0.00  0.00     0.074 C 
ATOM      3  C   UNL d   1      28.531 -10.261   2.981  0.00  0.00     0.198 C 
ATOM      4  C   UNL d   1      27.040 -10.438   2.877  0.00  0.00     0.242 C 
ATOM      5  O   UNL d   1      26.274  -9.843   3.632  0.00  0.00    -0.272 OA
ATOM      6  N   UNL d   1      26.655 -11.388   1.919  0.00  0.00    -0.309 N 
ATOM      7  C   UNL d   1      27.411 -12.554   1.676  0.00  0.00     0.162 A 
ATOM      8  N   UNL d   1      26.824 -13.597   0.968  0.00  0.00    -0.046 NA
ATOM      9  C   UNL d   1      27.396 -14.779   0.982  0.00  0.00     0.707 A 
ATOM     10  N   UNL d   1      28.605 -14.958   1.608  0.00  0.00    -0.154 N 
ATOM     11  C   UNL d   1      29.280 -13.966   2.247  0.00  0.00     0.270 A 
ATOM     12  O   UNL d   1      30.395 -14.120   2.734  0.00  0.00    -0.267 OA
ATOM     13  C   UNL d   1      28.573 -12.687   2.347  0.00  0.00     0.067 A 
ATOM     14  C   UNL d   1      29.134 -11.644   3.279  0.00  0.00     0.090 C 
ATOM     15  H   UNL d   1      25.664 -11.442   1.709  0.00  0.00     0.170 HD
ATOM     16  H   UNL d   1      29.114 -15.815   1.468  0.00  0.00     0.187 HD
ENDROOT
BRANCH  14  17
ATOM     17  C   UNL d   1      29.022 -12.008   4.789  0.00  0.00    -0.015 C 
ATOM     18  C   UNL d   1      29.727 -11.179   5.701  0.00  0.00     0.010 C 
ATOM     19  C   UNL d   1      29.453 -11.214   7.078  0.00  0.00     0.001 C 
ATOM     20  C   UNL d   1      28.722 -12.258   7.622  0.00  0.00     0.002 C 
ATOM     21  C   UNL d   1      28.155 -13.187   6.777  0.00  0.00     0.037 C 
ATOM     22  C   UNL d   1      28.222 -13.025   5.387  0.00  0.00     0.110 C 
BRANCH  22  23
ATOM     23  N   UNL d   1      27.476 -14.081   4.699  0.00  0.00    -0.115 N 
ATOM     24  O   UNL d   1      26.494 -13.760   4.017  0.00  0.00    -0.532 OA
ATOM     25  O   UNL d   1      27.779 -15.241   4.946  0.00  0.00    -0.532 OA
ENDBRANCH  22  23
ENDBRANCH  14  17
BRANCH   9  26
ATOM     26  N   UNL d   1      26.919 -15.906   0.309  0.00  0.00    -0.216 N 
ATOM     27  C   UNL d   1      25.994 -15.918  -0.841  0.00  0.00     0.141 C 
ATOM     28  C   UNL d   1      24.784 -16.815  -0.528  0.00  0.00     0.020 C 
ATOM     29  C   UNL d   1      25.214 -18.224  -0.113  0.00  0.00     0.003 C 
ATOM     30  C   UNL d   1      26.283 -18.162   0.980  0.00  0.00     0.020 C 
ATOM     31  C   UNL d   1      27.450 -17.238   0.594  0.00  0.00     0.141 C 
ENDBRANCH   9  26
TORSDOF 3
ENDMDL
MODEL 7
REMARK VINA RESULT:    -6.543      2.954      6.606
REMARK INTER + INTRA:          -9.898
REMARK INTER:                  -7.438
REMARK INTRA:                  -2.460
REMARK CONF_INDEPENDENT:        0.895
REMARK UNBOUND:                -2.460
REMARK  3 active torsions:
REMARK  status: ('A' for Active; 'I' for Inactive)
REMARK    1  A    between atoms: C_9  and  N_10 
REMARK    2  A    between atoms: C_20  and  C_21 
REMARK    3  A    between atoms: C_26  and  N_27 
ROOT
ATOM      1  N   UNL d   1      30.038 -14.075   1.377  0.00  0.00    -0.196 NA
ATOM      2  C   UNL d   1      29.021 -14.560   1.139  0.00  0.00     0.074 C 
ATOM      3  C   UNL d   1      27.668 -15.022   0.760  0.00  0.00     0.198 C 
ATOM      4  C   UNL d   1      26.898 -13.744   0.568  0.00  0.00     0.242 C 
ATOM      5  O   UNL d   1      25.906 -13.491   1.248  0.00  0.00    -0.272 OA
ATOM      6  N   UNL d   1      27.375 -12.958  -0.492  0.00  0.00    -0.309 N 
ATOM      7  C   UNL d   1      27.884 -13.530  -1.677  0.00  0.00     0.162 A 
ATOM      8  N   UNL d   1      28.033 -12.723  -2.799  0.00  0.00    -0.046 NA
ATOM      9  C   UNL d   1      28.226 -13.287  -3.969  0.00  0.00     0.707 A 
ATOM     10  N   UNL d   1      28.375 -14.648  -4.068  0.00  0.00    -0.154 N 
ATOM     11  C   UNL d   1      28.328 -15.493  -3.004  0.00  0.00     0.270 A 
ATOM     12  O   UNL d   1      28.540 -16.697  -3.095  0.00  0.00    -0.267 OA
ATOM     13  C   UNL d   1      27.973 -14.874  -1.724  0.00  0.00     0.067 A 
ATOM     14  C   UNL d   1      27.627 -15.784  -0.575  0.00  0.00     0.090 C 
ATOM     15  H   UNL d   1      26.984 -12.026  -0.574  0.00  0.00     0.170 HD
ATOM     16  H   UNL d   1      28.692 -15.052  -4.935  0.00  0.00     0.187 HD
ENDROOT
BRANCH  14  17
ATOM     17  C   UNL d   1      26.288 -16.561  -0.754  0.00  0.00    -0.015 C 
ATOM     18  C   UNL d   1      26.051 -17.641   0.136  0.00  0.00     0.010 C 
ATOM     19  C   UNL d   1      24.771 -18.200   0.277  0.00  0.00     0.001 C 
ATOM     20  C   UNL d   1      23.781 -17.932  -0.656  0.00  0.00     0.002 C 
ATOM     21  C   UNL d   1      24.029 -17.006  -1.645  0.00  0.00     0.037 C 
ATOM     22  C   UNL d   1      25.219 -16.265  -1.650  0.00  0.00     0.110 C 
BRANCH  22  23
ATOM     23  N   UNL d   1      25.222 -15.285  -2.737  0.00  0.00    -0.115 N 
ATOM     24  O   UNL d   1      25.530 -15.666  -3.874  0.00  0.00    -0.532 OA
ATOM     25  O   UNL d   1      25.056 -14.109  -2.440  0.00  0.00    -0.532 OA
ENDBRANCH  22  23
ENDBRANCH  14  17
BRANCH   9  26
ATOM     26  N   UNL d   1      28.400 -12.596  -5.171  0.00  0.00    -0.216 N 
ATOM     27  C   UNL d   1      27.784 -11.307  -5.542  0.00  0.00     0.141 C 
ATOM     28  C   UNL d   1      27.037 -11.450  -6.879  0.00  0.00     0.020 C 
ATOM     29  C   UNL d   1      27.946 -12.000  -7.981  0.00  0.00     0.003 C 
ATOM     30  C   UNL d   1      28.678 -13.255  -7.502  0.00  0.00     0.020 C 
ATOM     31  C   UNL d   1      29.388 -13.031  -6.157  0.00  0.00     0.141 C 
ENDBRANCH   9  26
TORSDOF 3
ENDMDL
MODEL 8
REMARK VINA RESULT:    -6.426      3.725      6.886
REMARK INTER + INTRA:          -9.608
REMARK INTER:                  -7.321
REMARK INTRA:                  -2.288
REMARK CONF_INDEPENDENT:        0.895
REMARK UNBOUND:                -2.288
REMARK  3 active torsions:
REMARK  status: ('A' for Active; 'I' for Inactive)
REMARK    1  A    between atoms: C_9  and  N_10 
REMARK    2  A    between atoms: C_20  and  C_21 
REMARK    3  A    between atoms: C_26  and  N_27 
ROOT
ATOM      1  N   UNL d   1      31.309 -15.841  -2.066  0.00  0.00    -0.196 NA
ATOM      2  C   UNL d   1      30.207 -15.950  -1.748  0.00  0.00     0.074 C 
ATOM      3  C   UNL d   1      28.790 -15.908  -1.327  0.00  0.00     0.198 C 
ATOM      4  C   UNL d   1      28.654 -14.558  -0.676  0.00  0.00     0.242 C 
ATOM      5  O   UNL d   1      28.326 -14.450   0.503  0.00  0.00    -0.272 OA
ATOM      6  N   UNL d   1      28.850 -13.488  -1.563  0.00  0.00    -0.309 N 
ATOM      7  C   UNL d   1      28.431 -13.545  -2.909  0.00  0.00     0.162 A 
ATOM      8  N   UNL d   1      28.355 -12.363  -3.636  0.00  0.00    -0.046 NA
ATOM      9  C   UNL d   1      27.703 -12.357  -4.777  0.00  0.00     0.707 A 
ATOM     10  N   UNL d   1      27.188 -13.523  -5.288  0.00  0.00    -0.154 N 
ATOM     11  C   UNL d   1      27.298 -14.731  -4.676  0.00  0.00     0.270 A 
ATOM     12  O   UNL d   1      26.903 -15.776  -5.180  0.00  0.00    -0.267 OA
ATOM     13  C   UNL d   1      27.902 -14.707  -3.341  0.00  0.00     0.067 A 
ATOM     14  C   UNL d   1      27.795 -15.952  -2.499  0.00  0.00     0.090 C 
ATOM     15  H   UNL d   1      28.910 -12.564  -1.148  0.00  0.00     0.170 HD
ATOM     16  H   UNL d   1      26.845 -13.540  -6.235  0.00  0.00     0.187 HD
ENDROOT
BRANCH  14  17
ATOM     17  C   UNL d   1      26.350 -16.276  -2.015  0.00  0.00    -0.015 C 
ATOM     18  C   UNL d   1      26.186 -17.447  -1.229  0.00  0.00     0.010 C 
ATOM     19  C   UNL d   1      25.015 -17.667  -0.487  0.00  0.00     0.001 C 
ATOM     20  C   UNL d   1      23.875 -16.918  -0.736  0.00  0.00     0.002 C 
ATOM     21  C   UNL d   1      23.947 -15.868  -1.624  0.00  0.00     0.037 C 
ATOM     22  C   UNL d   1      25.173 -15.490  -2.189  0.00  0.00     0.110 C 
BRANCH  22  23
ATOM     23  N   UNL d   1      25.021 -14.300  -3.027  0.00  0.00    -0.115 N 
ATOM     24  O   UNL d   1      24.598 -14.443  -4.182  0.00  0.00    -0.532 OA
ATOM     25  O   UNL d   1      25.451 -13.241  -2.590  0.00  0.00    -0.532 OA
ENDBRANCH  22  23
ENDBRANCH  14  17
BRANCH   9  26
ATOM     26  N   UNL d   1      27.559 -11.245  -5.609  0.00  0.00    -0.216 N 
ATOM     27  C   UNL d   1      26.878  -9.978  -5.275  0.00  0.00     0.141 C 
ATOM     28  C   UNL d   1      25.802  -9.669  -6.330  0.00  0.00     0.020 C 
ATOM     29  C   UNL d   1      26.381  -9.663  -7.747  0.00  0.00     0.003 C 
ATOM     30  C   UNL d   1      27.203 -10.928  -8.000  0.00  0.00     0.020 C 
ATOM     31  C   UNL d   1      28.246 -11.170  -6.897  0.00  0.00     0.141 C 
ENDBRANCH   9  26
TORSDOF 3
ENDMDL
MODEL 9
REMARK VINA RESULT:    -6.335      2.072      4.587
REMARK INTER + INTRA:          -9.704
REMARK INTER:                  -7.230
REMARK INTRA:                  -2.474
REMARK CONF_INDEPENDENT:        0.895
REMARK UNBOUND:                -2.474
REMARK  3 active torsions:
REMARK  status: ('A' for Active; 'I' for Inactive)
REMARK    1  A    between atoms: C_9  and  N_10 
REMARK    2  A    between atoms: C_20  and  C_21 
REMARK    3  A    between atoms: C_26  and  N_27 
ROOT
ATOM      1  N   UNL d   1      24.233 -17.089  -1.646  0.00  0.00    -0.196 NA
ATOM      2  C   UNL d   1      25.069 -16.574  -2.247  0.00  0.00     0.074 C 
ATOM      3  C   UNL d   1      26.119 -15.769  -2.908  0.00  0.00     0.198 C 
ATOM      4  C   UNL d   1      25.788 -14.356  -2.505  0.00  0.00     0.242 C 
ATOM      5  O   UNL d   1      25.524 -13.501  -3.347  0.00  0.00    -0.272 OA
ATOM      6  N   UNL d   1      25.904 -14.127  -1.126  0.00  0.00    -0.309 N 
ATOM      7  C   UNL d   1      26.899 -14.752  -0.344  0.00  0.00     0.162 A 
ATOM      8  N   UNL d   1      27.168 -14.247   0.923  0.00  0.00    -0.046 NA
ATOM      9  C   UNL d   1      28.266 -14.623   1.539  0.00  0.00     0.707 A 
ATOM     10  N   UNL d   1      29.085 -15.573   0.980  0.00  0.00    -0.154 N 
ATOM     11  C   UNL d   1      28.841 -16.173  -0.215  0.00  0.00     0.270 A 
ATOM     12  O   UNL d   1      29.539 -17.075  -0.666  0.00  0.00    -0.267 OA
ATOM     13  C   UNL d   1      27.693 -15.650  -0.960  0.00  0.00     0.067 A 
ATOM     14  C   UNL d   1      27.539 -16.067  -2.399  0.00  0.00     0.090 C 
ATOM     15  H   UNL d   1      25.557 -13.236  -0.786  0.00  0.00     0.170 HD
ATOM     16  H   UNL d   1      29.825 -15.977   1.531  0.00  0.00     0.187 HD
ENDROOT
BRANCH  14  17
ATOM     17  C   UNL d   1      28.626 -15.489  -3.354  0.00  0.00    -0.015 C 
ATOM     18  C   UNL d   1      28.908 -16.234  -4.529  0.00  0.00     0.010 C 
ATOM     19  C   UNL d   1      29.621 -15.667  -5.597  0.00  0.00     0.001 C 
ATOM     20  C   UNL d   1      30.331 -14.489  -5.420  0.00  0.00     0.002 C 
ATOM     21  C   UNL d   1      30.217 -13.814  -4.224  0.00  0.00     0.037 C 
ATOM     22  C   UNL d   1      29.318 -14.247  -3.241  0.00  0.00     0.110 C 
BRANCH  22  23
ATOM     23  N   UNL d   1      29.305 -13.329  -2.101  0.00  0.00    -0.115 N 
ATOM     24  O   UNL d   1      30.069 -13.555  -1.153  0.00  0.00    -0.532 OA
ATOM     25  O   UNL d   1      28.440 -12.463  -2.081  0.00  0.00    -0.532 OA
ENDBRANCH  22  23
ENDBRANCH  14  17
BRANCH   9  26
ATOM     26  N   UNL d   1      28.651 -14.202   2.814  0.00  0.00    -0.216 N 
ATOM     27  C   UNL d   1      30.033 -14.002   3.294  0.00  0.00     0.141 C 
ATOM     28  C   UNL d   1      30.265 -14.822   4.575  0.00  0.00     0.020 C 
ATOM     29  C   UNL d   1      29.223 -14.502   5.650  0.00  0.00     0.003 C 
ATOM     30  C   UNL d   1      27.809 -14.579   5.071  0.00  0.00     0.020 C 
ATOM     31  C   UNL d   1      27.664 -13.742   3.789  0.00  0.00     0.141 C 
ENDBRANCH   9  26
TORSDOF 3
ENDMDL
