MODEL 1
REMARK VINA RESULT:    -9.509      0.000      0.000
REMARK INTER + INTRA:         -12.951
REMARK INTER:                 -12.492
REMARK INTRA:                  -0.459
REMARK CONF_INDEPENDENT:        2.983
REMARK UNBOUND:                -0.459
REMARK  10 active torsions:
REMARK  status: ('A' for Active; 'I' for Inactive)
REMARK    1  A    between atoms: C_2  and  C_3 
REMARK    2  A    between atoms: C_3  and  N_4 
REMARK       I    between atoms: N_4  and  C_5 
REMARK    3  A    between atoms: C_5  and  C_7 
REMARK    4  A    between atoms: C_7  and  C_8 
REMARK    5  A    between atoms: C_8  and  S_9 
REMARK    6  A    between atoms: S_9  and  C_10 
REMARK    7  A    between atoms: C_13  and  N_14 
REMARK    8  A    between atoms: N_14  and  N_15 
REMARK    9  A    between atoms: C_16  and  C_17 
REMARK   10  A    between atoms: C_18  and  C_19 
ROOT
ATOM      1  C   UNL d   1      26.372 -16.800  -0.248  0.00  0.00     0.226 A 
ATOM      2  N   UNL d   1      26.716 -15.971   0.745  0.00  0.00    -0.132 NA
ATOM      3  N   UNL d   1      28.045 -16.207   0.840  0.00  0.00    -0.103 N 
ATOM      4  C   UNL d   1      28.471 -17.136  -0.078  0.00  0.00     0.739 A 
ATOM      5  N   UNL d   1      27.420 -17.501  -0.786  0.00  0.00    -0.034 NA
ATOM      6  H   UNL d   1      28.582 -15.708   1.537  0.00  0.00     0.208 HD
ENDROOT
BRANCH   4   7
ATOM      7  N   UNL d   1      29.774 -17.549  -0.165  0.00  0.00    -0.106 N 
ATOM      8  H   UNL d   1      30.402 -17.472   0.632  0.00  0.00     0.208 HD
BRANCH   7   9
ATOM      9  N   UNL d   1      30.240 -18.124  -1.321  0.00  0.00    -0.172 NA
ATOM     10  C   UNL d   1      30.138 -17.477  -2.440  0.00  0.00     0.139 C 
BRANCH  10  11
ATOM     11  C   UNL d   1      30.644 -18.091  -3.700  0.00  0.00     0.022 C 
ATOM     12  C   UNL d   1      30.315 -17.662  -4.930  0.00  0.00     0.013 C 
BRANCH  12  13
ATOM     13  C   UNL d   1      30.784 -18.332  -6.164  0.00  0.00    -0.036 A 
ATOM     14  C   UNL d   1      31.209 -17.584  -7.273  0.00  0.00     0.011 A 
ATOM     15  C   UNL d   1      31.532 -18.218  -8.482  0.00  0.00     0.001 A 
ATOM     16  C   UNL d   1      31.492 -19.607  -8.579  0.00  0.00     0.000 A 
ATOM     17  C   UNL d   1      31.089 -20.362  -7.482  0.00  0.00     0.001 A 
ATOM     18  C   UNL d   1      30.724 -19.729  -6.290  0.00  0.00     0.011 A 
ENDBRANCH  12  13
ENDBRANCH  10  11
ENDBRANCH   7   9
ENDBRANCH   4   7
BRANCH   1  19
ATOM     19  S   UNL d   1      24.763 -16.823  -0.957  0.00  0.00    -0.087 SA
BRANCH  19  20
ATOM     20  C   UNL d   1      23.958 -18.262  -0.163  0.00  0.00     0.091 C 
BRANCH  20  21
ATOM     21  C   UNL d   1      22.932 -18.944  -1.105  0.00  0.00     0.113 C 
BRANCH  21  22
ATOM     22  C   UNL d   1      21.501 -18.762  -0.596  0.00  0.00     0.218 C 
ATOM     23  N   UNL d   1      21.039 -19.709   0.306  0.00  0.00    -0.358 N 
ATOM     24  H   UNL d   1      21.635 -20.470   0.601  0.00  0.00     0.162 HD
ATOM     25  O   UNL d   1      20.791 -17.825  -0.967  0.00  0.00    -0.274 OA
BRANCH  23  26
ATOM     26  C   UNL d   1      19.686 -19.596   0.830  0.00  0.00     0.149 C 
BRANCH  26  27
ATOM     27  C   UNL d   1      18.756 -20.616   0.241  0.00  0.00    -0.018 C 
ATOM     28  C   UNL d   1      18.115 -21.524   0.996  0.00  0.00     0.008 C 
ENDBRANCH  26  27
ENDBRANCH  23  26
ENDBRANCH  21  22
ENDBRANCH  20  21
ENDBRANCH  19  20
ENDBRANCH   1  19
TORSDOF 10
ENDMDL
MODEL 2
REMARK VINA RESULT:    -9.404      4.785      8.571
REMARK INTER + INTRA:         -12.933
REMARK INTER:                 -12.387
REMARK INTRA:                  -0.546
REMARK CONF_INDEPENDENT:        2.983
REMARK UNBOUND:                -0.546
REMARK  10 active torsions:
REMARK  status: ('A' for Active; 'I' for Inactive)
REMARK    1  A    between atoms: C_2  and  C_3 
REMARK    2  A    between atoms: C_3  and  N_4 
REMARK       I    between atoms: N_4  and  C_5 
REMARK    3  A    between atoms: C_5  and  C_7 
REMARK    4  A    between atoms: C_7  and  C_8 
REMARK    5  A    between atoms: C_8  and  S_9 
REMARK    6  A    between atoms: S_9  and  C_10 
REMARK    7  A    between atoms: C_13  and  N_14 
REMARK    8  A    between atoms: N_14  and  N_15 
REMARK    9  A    between atoms: C_16  and  C_17 
REMARK   10  A    between atoms: C_18  and  C_19 
ROOT
ATOM      1  C   UNL d   1      25.787 -16.771  -0.255  0.00  0.00     0.226 A 
ATOM      2  N   UNL d   1      26.456 -17.875   0.098  0.00  0.00    -0.132 NA
ATOM      3  N   UNL d   1      27.690 -17.373   0.333  0.00  0.00    -0.103 N 
ATOM      4  C   UNL d   1      27.741 -16.014   0.137  0.00  0.00     0.739 A 
ATOM      5  N   UNL d   1      26.533 -15.621  -0.215  0.00  0.00    -0.034 NA
ATOM      6  H   UNL d   1      28.428 -18.004   0.619  0.00  0.00     0.208 HD
ENDROOT
BRANCH   4   7
ATOM      7  N   UNL d   1      28.889 -15.285   0.301  0.00  0.00    -0.106 N 
ATOM      8  H   UNL d   1      29.471 -15.039  -0.497  0.00  0.00     0.208 HD
BRANCH   7   9
ATOM      9  N   UNL d   1      29.244 -14.828   1.545  0.00  0.00    -0.172 NA
ATOM     10  C   UNL d   1      28.344 -14.287   2.306  0.00  0.00     0.139 C 
BRANCH  10  11
ATOM     11  C   UNL d   1      28.719 -13.791   3.661  0.00  0.00     0.022 C 
ATOM     12  C   UNL d   1      28.065 -14.118   4.787  0.00  0.00     0.013 C 
BRANCH  12  13
ATOM     13  C   UNL d   1      28.422 -13.559   6.111  0.00  0.00    -0.036 A 
ATOM     14  C   UNL d   1      27.991 -12.279   6.494  0.00  0.00     0.011 A 
ATOM     15  C   UNL d   1      28.435 -11.703   7.693  0.00  0.00     0.001 A 
ATOM     16  C   UNL d   1      29.265 -12.421   8.551  0.00  0.00     0.000 A 
ATOM     17  C   UNL d   1      29.687 -13.698   8.193  0.00  0.00     0.001 A 
ATOM     18  C   UNL d   1      29.280 -14.255   6.977  0.00  0.00     0.011 A 
ENDBRANCH  12  13
ENDBRANCH  10  11
ENDBRANCH   7   9
ENDBRANCH   4   7
BRANCH   1  19
ATOM     19  S   UNL d   1      24.048 -16.753  -0.526  0.00  0.00    -0.087 SA
BRANCH  19  20
ATOM     20  C   UNL d   1      23.528 -18.459  -0.119  0.00  0.00     0.091 C 
BRANCH  20  21
ATOM     21  C   UNL d   1      22.453 -18.987  -1.104  0.00  0.00     0.113 C 
BRANCH  21  22
ATOM     22  C   UNL d   1      21.051 -18.910  -0.496  0.00  0.00     0.218 C 
ATOM     23  N   UNL d   1      20.806 -19.725   0.598  0.00  0.00    -0.358 N 
ATOM     24  H   UNL d   1      21.531 -20.329   0.961  0.00  0.00     0.162 HD
ATOM     25  O   UNL d   1      20.182 -18.165  -0.953  0.00  0.00    -0.274 OA
BRANCH  23  26
ATOM     26  C   UNL d   1      19.494 -19.702   1.226  0.00  0.00     0.149 C 
BRANCH  26  27
ATOM     27  C   UNL d   1      18.491 -20.543   0.491  0.00  0.00    -0.018 C 
ATOM     28  C   UNL d   1      18.025 -21.703   0.987  0.00  0.00     0.008 C 
ENDBRANCH  26  27
ENDBRANCH  23  26
ENDBRANCH  21  22
ENDBRANCH  20  21
ENDBRANCH  19  20
ENDBRANCH   1  19
TORSDOF 10
ENDMDL
MODEL 3
REMARK VINA RESULT:    -9.211      4.921      8.681
REMARK INTER + INTRA:         -12.752
REMARK INTER:                 -12.194
REMARK INTRA:                  -0.557
REMARK CONF_INDEPENDENT:        2.983
REMARK UNBOUND:                -0.557
REMARK  10 active torsions:
REMARK  status: ('A' for Active; 'I' for Inactive)
REMARK    1  A    between atoms: C_2  and  C_3 
REMARK    2  A    between atoms: C_3  and  N_4 
REMARK       I    between atoms: N_4  and  C_5 
REMARK    3  A    between atoms: C_5  and  C_7 
REMARK    4  A    between atoms: C_7  and  C_8 
REMARK    5  A    between atoms: C_8  and  S_9 
REMARK    6  A    between atoms: S_9  and  C_10 
REMARK    7  A    between atoms: C_13  and  N_14 
REMARK    8  A    between atoms: N_14  and  N_15 
REMARK    9  A    between atoms: C_16  and  C_17 
REMARK   10  A    between atoms: C_18  and  C_19 
ROOT
ATOM      1  C   UNL d   1      25.570 -16.771  -0.254  0.00  0.00     0.226 A 
ATOM      2  N   UNL d   1      26.175 -17.933   0.018  0.00  0.00    -0.132 NA
ATOM      3  N   UNL d   1      27.416 -17.514   0.356  0.00  0.00    -0.103 N 
ATOM      4  C   UNL d   1      27.533 -16.146   0.298  0.00  0.00     0.739 A 
ATOM      5  N   UNL d   1      26.360 -15.666  -0.067  0.00  0.00    -0.034 NA
ATOM      6  H   UNL d   1      28.113 -18.202   0.610  0.00  0.00     0.208 HD
ENDROOT
BRANCH   4   7
ATOM      7  N   UNL d   1      28.700 -15.489   0.583  0.00  0.00    -0.106 N 
ATOM      8  H   UNL d   1      29.459 -15.453  -0.093  0.00  0.00     0.208 HD
BRANCH   7   9
ATOM      9  N   UNL d   1      28.842 -14.822   1.774  0.00  0.00    -0.172 NA
ATOM     10  C   UNL d   1      27.785 -14.431   2.416  0.00  0.00     0.139 C 
BRANCH  10  11
ATOM     11  C   UNL d   1      27.928 -13.709   3.712  0.00  0.00     0.022 C 
ATOM     12  C   UNL d   1      28.626 -14.178   4.759  0.00  0.00     0.013 C 
BRANCH  12  13
ATOM     13  C   UNL d   1      28.698 -13.467   6.056  0.00  0.00    -0.036 A 
ATOM     14  C   UNL d   1      29.211 -14.101   7.198  0.00  0.00     0.011 A 
ATOM     15  C   UNL d   1      29.161 -13.471   8.450  0.00  0.00     0.001 A 
ATOM     16  C   UNL d   1      28.654 -12.178   8.565  0.00  0.00     0.000 A 
ATOM     17  C   UNL d   1      28.158 -11.530   7.438  0.00  0.00     0.001 A 
ATOM     18  C   UNL d   1      28.167 -12.176   6.198  0.00  0.00     0.011 A 
ENDBRANCH  12  13
ENDBRANCH  10  11
ENDBRANCH   7   9
ENDBRANCH   4   7
BRANCH   1  19
ATOM     19  S   UNL d   1      23.849 -16.648  -0.599  0.00  0.00    -0.087 SA
BRANCH  19  20
ATOM     20  C   UNL d   1      23.476 -18.192  -1.507  0.00  0.00     0.091 C 
BRANCH  20  21
ATOM     21  C   UNL d   1      22.949 -19.305  -0.565  0.00  0.00     0.113 C 
BRANCH  21  22
ATOM     22  C   UNL d   1      21.420 -19.348  -0.553  0.00  0.00     0.218 C 
ATOM     23  N   UNL d   1      20.812 -19.413   0.692  0.00  0.00    -0.358 N 
ATOM     24  H   UNL d   1      21.370 -19.427   1.535  0.00  0.00     0.162 HD
ATOM     25  O   UNL d   1      20.758 -19.328  -1.593  0.00  0.00    -0.274 OA
BRANCH  23  26
ATOM     26  C   UNL d   1      19.361 -19.457   0.777  0.00  0.00     0.149 C 
BRANCH  26  27
ATOM     27  C   UNL d   1      18.867 -20.655   1.534  0.00  0.00    -0.018 C 
ATOM     28  C   UNL d   1      18.030 -21.555   0.988  0.00  0.00     0.008 C 
ENDBRANCH  26  27
ENDBRANCH  23  26
ENDBRANCH  21  22
ENDBRANCH  20  21
ENDBRANCH  19  20
ENDBRANCH   1  19
TORSDOF 10
ENDMDL
MODEL 4
REMARK VINA RESULT:    -9.062      4.783      8.160
REMARK INTER + INTRA:         -12.498
REMARK INTER:                 -12.045
REMARK INTRA:                  -0.454
REMARK CONF_INDEPENDENT:        2.983
REMARK UNBOUND:                -0.454
REMARK  10 active torsions:
REMARK  status: ('A' for Active; 'I' for Inactive)
REMARK    1  A    between atoms: C_2  and  C_3 
REMARK    2  A    between atoms: C_3  and  N_4 
REMARK       I    between atoms: N_4  and  C_5 
REMARK    3  A    between atoms: C_5  and  C_7 
REMARK    4  A    between atoms: C_7  and  C_8 
REMARK    5  A    between atoms: C_8  and  S_9 
REMARK    6  A    between atoms: S_9  and  C_10 
REMARK    7  A    between atoms: C_13  and  N_14 
REMARK    8  A    between atoms: N_14  and  N_15 
REMARK    9  A    between atoms: C_16  and  C_17 
REMARK   10  A    between atoms: C_18  and  C_19 
ROOT
ATOM      1  C   UNL d   1      26.104 -16.873  -0.662  0.00  0.00     0.226 A 
ATOM      2  N   UNL d   1      26.852 -17.973  -0.520  0.00  0.00    -0.132 NA
ATOM      3  N   UNL d   1      27.873 -17.505   0.234  0.00  0.00    -0.103 N 
ATOM      4  C   UNL d   1      27.723 -16.174   0.538  0.00  0.00     0.739 A 
ATOM      5  N   UNL d   1      26.592 -15.770  -0.008  0.00  0.00    -0.034 NA
ATOM      6  H   UNL d   1      28.617 -18.138   0.497  0.00  0.00     0.208 HD
ENDROOT
BRANCH   4   7
ATOM      7  N   UNL d   1      28.638 -15.475   1.280  0.00  0.00    -0.106 N 
ATOM      8  H   UNL d   1      29.418 -15.949   1.730  0.00  0.00     0.208 HD
BRANCH   7   9
ATOM      9  N   UNL d   1      28.543 -14.110   1.384  0.00  0.00    -0.172 NA
ATOM     10  C   UNL d   1      28.093 -13.584   2.481  0.00  0.00     0.139 C 
BRANCH  10  11
ATOM     11  C   UNL d   1      27.990 -12.103   2.605  0.00  0.00     0.022 C 
ATOM     12  C   UNL d   1      26.848 -11.414   2.448  0.00  0.00     0.013 C 
BRANCH  12  13
ATOM     13  C   UNL d   1      26.789  -9.936   2.516  0.00  0.00    -0.036 A 
ATOM     14  C   UNL d   1      25.873  -9.215   1.733  0.00  0.00     0.011 A 
ATOM     15  C   UNL d   1      25.905  -7.812   1.704  0.00  0.00     0.001 A 
ATOM     16  C   UNL d   1      26.810  -7.114   2.500  0.00  0.00     0.000 A 
ATOM     17  C   UNL d   1      27.713  -7.816   3.294  0.00  0.00     0.001 A 
ATOM     18  C   UNL d   1      27.710  -9.214   3.290  0.00  0.00     0.011 A 
ENDBRANCH  12  13
ENDBRANCH  10  11
ENDBRANCH   7   9
ENDBRANCH   4   7
BRANCH   1  19
ATOM     19  S   UNL d   1      24.518 -16.887  -1.424  0.00  0.00    -0.087 SA
BRANCH  19  20
ATOM     20  C   UNL d   1      23.546 -18.035  -0.382  0.00  0.00     0.091 C 
BRANCH  20  21
ATOM     21  C   UNL d   1      22.602 -18.927  -1.229  0.00  0.00     0.113 C 
BRANCH  21  22
ATOM     22  C   UNL d   1      21.186 -18.947  -0.651  0.00  0.00     0.218 C 
ATOM     23  N   UNL d   1      20.967 -19.799   0.420  0.00  0.00    -0.358 N 
ATOM     24  H   UNL d   1      21.719 -20.366   0.787  0.00  0.00     0.162 HD
ATOM     25  O   UNL d   1      20.282 -18.246  -1.113  0.00  0.00    -0.274 OA
BRANCH  23  26
ATOM     26  C   UNL d   1      19.643 -19.869   1.019  0.00  0.00     0.149 C 
BRANCH  26  27
ATOM     27  C   UNL d   1      18.942 -21.160   0.712  0.00  0.00    -0.018 C 
ATOM     28  C   UNL d   1      17.682 -21.200   0.245  0.00  0.00     0.008 C 
ENDBRANCH  26  27
ENDBRANCH  23  26
ENDBRANCH  21  22
ENDBRANCH  20  21
ENDBRANCH  19  20
ENDBRANCH   1  19
TORSDOF 10
ENDMDL
MODEL 5
REMARK VINA RESULT:    -9.008      2.787      3.164
REMARK INTER + INTRA:         -12.460
REMARK INTER:                 -11.991
REMARK INTRA:                  -0.469
REMARK CONF_INDEPENDENT:        2.983
REMARK UNBOUND:                -0.469
REMARK  10 active torsions:
REMARK  status: ('A' for Active; 'I' for Inactive)
REMARK    1  A    between atoms: C_2  and  C_3 
REMARK    2  A    between atoms: C_3  and  N_4 
REMARK       I    between atoms: N_4  and  C_5 
REMARK    3  A    between atoms: C_5  and  C_7 
REMARK    4  A    between atoms: C_7  and  C_8 
REMARK    5  A    between atoms: C_8  and  S_9 
REMARK    6  A    between atoms: S_9  and  C_10 
REMARK    7  A    between atoms: C_13  and  N_14 
REMARK    8  A    between atoms: N_14  and  N_15 
REMARK    9  A    between atoms: C_16  and  C_17 
REMARK   10  A    between atoms: C_18  and  C_19 
ROOT
ATOM      1  C   UNL d   1      25.033 -15.090  -2.496  0.00  0.00     0.226 A 
ATOM      2  N   UNL d   1      24.034 -14.451  -3.116  0.00  0.00    -0.132 NA
ATOM      3  N   UNL d   1      24.640 -14.060  -4.261  0.00  0.00    -0.103 N 
ATOM      4  C   UNL d   1      25.950 -14.469  -4.318  0.00  0.00     0.739 A 
ATOM      5  N   UNL d   1      26.201 -15.142  -3.212  0.00  0.00    -0.034 NA
ATOM      6  H   UNL d   1      24.107 -13.532  -4.940  0.00  0.00     0.208 HD
ENDROOT
BRANCH   4   7
ATOM      7  N   UNL d   1      26.771 -14.179  -5.375  0.00  0.00    -0.106 N 
ATOM      8  H   UNL d   1      26.843 -13.231  -5.737  0.00  0.00     0.208 HD
BRANCH   7   9
ATOM      9  N   UNL d   1      27.553 -15.161  -5.930  0.00  0.00    -0.172 NA
ATOM     10  C   UNL d   1      28.793 -15.268  -5.568  0.00  0.00     0.139 C 
BRANCH  10  11
ATOM     11  C   UNL d   1      29.650 -16.333  -6.162  0.00  0.00     0.022 C 
ATOM     12  C   UNL d   1      30.107 -17.397  -5.480  0.00  0.00     0.013 C 
BRANCH  12  13
ATOM     13  C   UNL d   1      31.008 -18.406  -6.081  0.00  0.00    -0.036 A 
ATOM     14  C   UNL d   1      32.302 -18.059  -6.500  0.00  0.00     0.011 A 
ATOM     15  C   UNL d   1      33.106 -18.984  -7.183  0.00  0.00     0.001 A 
ATOM     16  C   UNL d   1      32.651 -20.282  -7.402  0.00  0.00     0.000 A 
ATOM     17  C   UNL d   1      31.376 -20.645  -6.977  0.00  0.00     0.001 A 
ATOM     18  C   UNL d   1      30.558 -19.711  -6.336  0.00  0.00     0.011 A 
ENDBRANCH  12  13
ENDBRANCH  10  11
ENDBRANCH   7   9
ENDBRANCH   4   7
BRANCH   1  19
ATOM     19  S   UNL d   1      24.809 -15.986  -0.998  0.00  0.00    -0.087 SA
BRANCH  19  20
ATOM     20  C   UNL d   1      23.911 -17.491  -1.522  0.00  0.00     0.091 C 
BRANCH  20  21
ATOM     21  C   UNL d   1      23.288 -18.242  -0.317  0.00  0.00     0.113 C 
BRANCH  21  22
ATOM     22  C   UNL d   1      21.784 -18.454  -0.507  0.00  0.00     0.218 C 
ATOM     23  N   UNL d   1      21.282 -19.693  -0.140  0.00  0.00    -0.358 N 
ATOM     24  H   UNL d   1      21.895 -20.404   0.234  0.00  0.00     0.162 HD
ATOM     25  O   UNL d   1      21.054 -17.571  -0.964  0.00  0.00    -0.274 OA
BRANCH  23  26
ATOM     26  C   UNL d   1      19.861 -19.962  -0.295  0.00  0.00     0.149 C 
BRANCH  26  27
ATOM     27  C   UNL d   1      19.225 -20.437   0.979  0.00  0.00    -0.018 C 
ATOM     28  C   UNL d   1      18.244 -21.356   0.993  0.00  0.00     0.008 C 
ENDBRANCH  26  27
ENDBRANCH  23  26
ENDBRANCH  21  22
ENDBRANCH  20  21
ENDBRANCH  19  20
ENDBRANCH   1  19
TORSDOF 10
ENDMDL
MODEL 6
REMARK VINA RESULT:    -8.759      4.189      5.518
REMARK INTER + INTRA:         -12.354
REMARK INTER:                 -11.742
REMARK INTRA:                  -0.612
REMARK CONF_INDEPENDENT:        2.983
REMARK UNBOUND:                -0.612
REMARK  10 active torsions:
REMARK  status: ('A' for Active; 'I' for Inactive)
REMARK    1  A    between atoms: C_2  and  C_3 
REMARK    2  A    between atoms: C_3  and  N_4 
REMARK       I    between atoms: N_4  and  C_5 
REMARK    3  A    between atoms: C_5  and  C_7 
REMARK    4  A    between atoms: C_7  and  C_8 
REMARK    5  A    between atoms: C_8  and  S_9 
REMARK    6  A    between atoms: S_9  and  C_10 
REMARK    7  A    between atoms: C_13  and  N_14 
REMARK    8  A    between atoms: N_14  and  N_15 
REMARK    9  A    between atoms: C_16  and  C_17 
REMARK   10  A    between atoms: C_18  and  C_19 
ROOT
ATOM      1  C   UNL d   1      25.760 -17.927   0.223  0.00  0.00     0.226 A 
ATOM      2  N   UNL d   1      26.726 -18.783   0.576  0.00  0.00    -0.132 NA
ATOM      3  N   UNL d   1      27.835 -18.088   0.230  0.00  0.00    -0.103 N 
ATOM      4  C   UNL d   1      27.530 -16.857  -0.297  0.00  0.00     0.739 A 
ATOM      5  N   UNL d   1      26.217 -16.738  -0.285  0.00  0.00    -0.034 NA
ATOM      6  H   UNL d   1      28.743 -18.509   0.382  0.00  0.00     0.208 HD
ENDROOT
BRANCH   4   7
ATOM      7  N   UNL d   1      28.487 -15.980  -0.732  0.00  0.00    -0.106 N 
ATOM      8  H   UNL d   1      29.465 -16.105  -0.481  0.00  0.00     0.208 HD
BRANCH   7   9
ATOM      9  N   UNL d   1      28.145 -14.942  -1.563  0.00  0.00    -0.172 NA
ATOM     10  C   UNL d   1      27.406 -15.176  -2.603  0.00  0.00     0.139 C 
BRANCH  10  11
ATOM     11  C   UNL d   1      27.025 -14.055  -3.509  0.00  0.00     0.022 C 
ATOM     12  C   UNL d   1      26.752 -12.809  -3.088  0.00  0.00     0.013 C 
BRANCH  12  13
ATOM     13  C   UNL d   1      26.315 -11.733  -4.006  0.00  0.00    -0.036 A 
ATOM     14  C   UNL d   1      25.791 -10.529  -3.508  0.00  0.00     0.011 A 
ATOM     15  C   UNL d   1      25.262  -9.564  -4.378  0.00  0.00     0.001 A 
ATOM     16  C   UNL d   1      25.304  -9.763  -5.756  0.00  0.00     0.000 A 
ATOM     17  C   UNL d   1      25.836 -10.944  -6.265  0.00  0.00     0.001 A 
ATOM     18  C   UNL d   1      26.324 -11.926  -5.396  0.00  0.00     0.011 A 
ENDBRANCH  12  13
ENDBRANCH  10  11
ENDBRANCH   7   9
ENDBRANCH   4   7
BRANCH   1  19
ATOM     19  S   UNL d   1      24.061 -18.201   0.587  0.00  0.00    -0.087 SA
BRANCH  19  20
ATOM     20  C   UNL d   1      23.211 -17.813  -0.986  0.00  0.00     0.091 C 
BRANCH  20  21
ATOM     21  C   UNL d   1      22.251 -18.950  -1.422  0.00  0.00     0.113 C 
BRANCH  21  22
ATOM     22  C   UNL d   1      20.969 -18.950  -0.586  0.00  0.00     0.218 C 
ATOM     23  N   UNL d   1      20.966 -19.757   0.542  0.00  0.00    -0.358 N 
ATOM     24  H   UNL d   1      21.780 -20.305   0.783  0.00  0.00     0.162 HD
ATOM     25  O   UNL d   1      19.988 -18.271  -0.896  0.00  0.00    -0.274 OA
BRANCH  23  26
ATOM     26  C   UNL d   1      19.779 -19.804   1.383  0.00  0.00     0.149 C 
BRANCH  26  27
ATOM     27  C   UNL d   1      18.637 -20.519   0.722  0.00  0.00    -0.018 C 
ATOM     28  C   UNL d   1      18.028 -21.576   1.286  0.00  0.00     0.008 C 
ENDBRANCH  26  27
ENDBRANCH  23  26
ENDBRANCH  21  22
ENDBRANCH  20  21
ENDBRANCH  19  20
ENDBRANCH   1  19
TORSDOF 10
ENDMDL
MODEL 7
REMARK VINA RESULT:    -8.433      6.202      9.952
REMARK INTER + INTRA:         -12.077
REMARK INTER:                 -11.416
REMARK INTRA:                  -0.661
REMARK CONF_INDEPENDENT:        2.983
REMARK UNBOUND:                -0.661
REMARK  10 active torsions:
REMARK  status: ('A' for Active; 'I' for Inactive)
REMARK    1  A    between atoms: C_2  and  C_3 
REMARK    2  A    between atoms: C_3  and  N_4 
REMARK       I    between atoms: N_4  and  C_5 
REMARK    3  A    between atoms: C_5  and  C_7 
REMARK    4  A    between atoms: C_7  and  C_8 
REMARK    5  A    between atoms: C_8  and  S_9 
REMARK    6  A    between atoms: S_9  and  C_10 
REMARK    7  A    between atoms: C_13  and  N_14 
REMARK    8  A    between atoms: N_14  and  N_15 
REMARK    9  A    between atoms: C_16  and  C_17 
REMARK   10  A    between atoms: C_18  and  C_19 
ROOT
ATOM      1  C   UNL d   1      32.941 -18.575   2.428  0.00  0.00     0.226 A 
ATOM      2  N   UNL d   1      33.312 -17.293   2.527  0.00  0.00    -0.132 NA
ATOM      3  N   UNL d   1      32.777 -16.775   1.397  0.00  0.00    -0.103 N 
ATOM      4  C   UNL d   1      32.101 -17.720   0.664  0.00  0.00     0.739 A 
ATOM      5  N   UNL d   1      32.182 -18.860   1.322  0.00  0.00    -0.034 NA
ATOM      6  H   UNL d   1      32.910 -15.791   1.199  0.00  0.00     0.208 HD
ENDROOT
BRANCH   4   7
ATOM      7  N   UNL d   1      31.487 -17.436  -0.526  0.00  0.00    -0.106 N 
ATOM      8  H   UNL d   1      32.031 -17.272  -1.370  0.00  0.00     0.208 HD
BRANCH   7   9
ATOM      9  N   UNL d   1      30.117 -17.419  -0.609  0.00  0.00    -0.172 NA
ATOM     10  C   UNL d   1      29.452 -16.506   0.027  0.00  0.00     0.139 C 
BRANCH  10  11
ATOM     11  C   UNL d   1      27.964 -16.477  -0.059  0.00  0.00     0.022 C 
ATOM     12  C   UNL d   1      27.207 -17.552  -0.334  0.00  0.00     0.013 C 
BRANCH  12  13
ATOM     13  C   UNL d   1      25.735 -17.479  -0.475  0.00  0.00    -0.036 A 
ATOM     14  C   UNL d   1      25.134 -16.469  -1.243  0.00  0.00     0.011 A 
ATOM     15  C   UNL d   1      23.738 -16.327  -1.272  0.00  0.00     0.001 A 
ATOM     16  C   UNL d   1      22.927 -17.227  -0.585  0.00  0.00     0.000 A 
ATOM     17  C   UNL d   1      23.509 -18.244   0.167  0.00  0.00     0.001 A 
ATOM     18  C   UNL d   1      24.900 -18.359   0.232  0.00  0.00     0.011 A 
ENDBRANCH  12  13
ENDBRANCH  10  11
ENDBRANCH   7   9
ENDBRANCH   4   7
BRANCH   1  19
ATOM     19  S   UNL d   1      33.205 -19.747   3.714  0.00  0.00    -0.087 SA
BRANCH  19  20
ATOM     20  C   UNL d   1      32.034 -21.096   3.320  0.00  0.00     0.091 C 
BRANCH  20  21
ATOM     21  C   UNL d   1      30.898 -21.202   4.369  0.00  0.00     0.113 C 
BRANCH  21  22
ATOM     22  C   UNL d   1      31.453 -21.473   5.769  0.00  0.00     0.218 C 
ATOM     23  N   UNL d   1      32.756 -21.942   5.838  0.00  0.00    -0.358 N 
ATOM     24  H   UNL d   1      33.294 -22.087   4.994  0.00  0.00     0.162 HD
ATOM     25  O   UNL d   1      30.780 -21.287   6.785  0.00  0.00    -0.274 OA
BRANCH  23  26
ATOM     26  C   UNL d   1      33.347 -22.221   7.137  0.00  0.00     0.149 C 
BRANCH  26  27
ATOM     27  C   UNL d   1      34.600 -23.041   7.033  0.00  0.00    -0.018 C 
ATOM     28  C   UNL d   1      34.954 -23.933   7.975  0.00  0.00     0.008 C 
ENDBRANCH  26  27
ENDBRANCH  23  26
ENDBRANCH  21  22
ENDBRANCH  20  21
ENDBRANCH  19  20
ENDBRANCH   1  19
TORSDOF 10
ENDMDL
MODEL 8
REMARK VINA RESULT:    -7.710      3.388      8.832
REMARK INTER + INTRA:         -12.395
REMARK INTER:                 -10.693
REMARK INTRA:                  -1.702
REMARK CONF_INDEPENDENT:        2.983
REMARK UNBOUND:                -1.702
REMARK  10 active torsions:
REMARK  status: ('A' for Active; 'I' for Inactive)
REMARK    1  A    between atoms: C_2  and  C_3 
REMARK    2  A    between atoms: C_3  and  N_4 
REMARK       I    between atoms: N_4  and  C_5 
REMARK    3  A    between atoms: C_5  and  C_7 
REMARK    4  A    between atoms: C_7  and  C_8 
REMARK    5  A    between atoms: C_8  and  S_9 
REMARK    6  A    between atoms: S_9  and  C_10 
REMARK    7  A    between atoms: C_13  and  N_14 
REMARK    8  A    between atoms: N_14  and  N_15 
REMARK    9  A    between atoms: C_16  and  C_17 
REMARK   10  A    between atoms: C_18  and  C_19 
ROOT
ATOM      1  C   UNL d   1      29.691 -17.008  -1.975  0.00  0.00     0.226 A 
ATOM      2  N   UNL d   1      30.469 -17.233  -0.910  0.00  0.00    -0.132 NA
ATOM      3  N   UNL d   1      29.607 -16.989   0.104  0.00  0.00    -0.103 N 
ATOM      4  C   UNL d   1      28.358 -16.644  -0.351  0.00  0.00     0.739 A 
ATOM      5  N   UNL d   1      28.396 -16.675  -1.668  0.00  0.00    -0.034 NA
ATOM      6  H   UNL d   1      29.936 -17.078   1.057  0.00  0.00     0.208 HD
ENDROOT
BRANCH   4   7
ATOM      7  N   UNL d   1      27.322 -16.338   0.490  0.00  0.00    -0.106 N 
ATOM      8  H   UNL d   1      27.489 -15.870   1.378  0.00  0.00     0.208 HD
BRANCH   7   9
ATOM      9  N   UNL d   1      26.029 -16.613   0.120  0.00  0.00    -0.172 NA
ATOM     10  C   UNL d   1      25.619 -17.843   0.102  0.00  0.00     0.139 C 
BRANCH  10  11
ATOM     11  C   UNL d   1      24.216 -18.151  -0.294  0.00  0.00     0.022 C 
ATOM     12  C   UNL d   1      23.252 -18.505   0.572  0.00  0.00     0.013 C 
BRANCH  12  13
ATOM     13  C   UNL d   1      21.882 -18.867   0.141  0.00  0.00    -0.036 A 
ATOM     14  C   UNL d   1      20.916 -19.274   1.075  0.00  0.00     0.011 A 
ATOM     15  C   UNL d   1      19.662 -19.737   0.651  0.00  0.00     0.001 A 
ATOM     16  C   UNL d   1      19.336 -19.742  -0.703  0.00  0.00     0.000 A 
ATOM     17  C   UNL d   1      20.278 -19.325  -1.639  0.00  0.00     0.001 A 
ATOM     18  C   UNL d   1      21.544 -18.906  -1.221  0.00  0.00     0.011 A 
ENDBRANCH  12  13
ENDBRANCH  10  11
ENDBRANCH   7   9
ENDBRANCH   4   7
BRANCH   1  19
ATOM     19  S   UNL d   1      30.211 -17.332  -3.624  0.00  0.00    -0.087 SA
BRANCH  19  20
ATOM     20  C   UNL d   1      30.213 -15.680  -4.412  0.00  0.00     0.091 C 
BRANCH  20  21
ATOM     21  C   UNL d   1      29.288 -15.631  -5.656  0.00  0.00     0.113 C 
BRANCH  21  22
ATOM     22  C   UNL d   1      27.848 -15.289  -5.268  0.00  0.00     0.218 C 
ATOM     23  N   UNL d   1      27.602 -15.084  -3.919  0.00  0.00    -0.358 N 
ATOM     24  H   UNL d   1      28.351 -15.158  -3.244  0.00  0.00     0.162 HD
ATOM     25  O   UNL d   1      26.950 -15.202  -6.108  0.00  0.00    -0.274 OA
BRANCH  23  26
ATOM     26  C   UNL d   1      26.254 -14.756  -3.481  0.00  0.00     0.149 C 
BRANCH  26  27
ATOM     27  C   UNL d   1      26.175 -14.518  -2.001  0.00  0.00    -0.018 C 
ATOM     28  C   UNL d   1      26.260 -13.288  -1.466  0.00  0.00     0.008 C 
ENDBRANCH  26  27
ENDBRANCH  23  26
ENDBRANCH  21  22
ENDBRANCH  20  21
ENDBRANCH  19  20
ENDBRANCH   1  19
TORSDOF 10
ENDMDL
MODEL 9
REMARK VINA RESULT:    -7.396      4.962      9.843
REMARK INTER + INTRA:         -12.380
REMARK INTER:                 -10.379
REMARK INTRA:                  -2.000
REMARK CONF_INDEPENDENT:        2.983
REMARK UNBOUND:                -2.000
REMARK  10 active torsions:
REMARK  status: ('A' for Active; 'I' for Inactive)
REMARK    1  A    between atoms: C_2  and  C_3 
REMARK    2  A    between atoms: C_3  and  N_4 
REMARK       I    between atoms: N_4  and  C_5 
REMARK    3  A    between atoms: C_5  and  C_7 
REMARK    4  A    between atoms: C_7  and  C_8 
REMARK    5  A    between atoms: C_8  and  S_9 
REMARK    6  A    between atoms: S_9  and  C_10 
REMARK    7  A    between atoms: C_13  and  N_14 
REMARK    8  A    between atoms: N_14  and  N_15 
REMARK    9  A    between atoms: C_16  and  C_17 
REMARK   10  A    between atoms: C_18  and  C_19 
ROOT
ATOM      1  C   UNL d   1      25.963 -15.020  -4.037  0.00  0.00     0.226 A 
ATOM      2  N   UNL d   1      24.775 -14.461  -3.779  0.00  0.00    -0.132 NA
ATOM      3  N   UNL d   1      24.467 -15.031  -2.590  0.00  0.00    -0.103 N 
ATOM      4  C   UNL d   1      25.451 -15.887  -2.158  0.00  0.00     0.739 A 
ATOM      5  N   UNL d   1      26.413 -15.869  -3.059  0.00  0.00    -0.034 NA
ATOM      6  H   UNL d   1      23.591 -14.791  -2.146  0.00  0.00     0.208 HD
ENDROOT
BRANCH   4   7
ATOM      7  N   UNL d   1      25.358 -16.591  -0.987  0.00  0.00    -0.106 N 
ATOM      8  H   UNL d   1      26.146 -16.648  -0.347  0.00  0.00     0.208 HD
BRANCH   7   9
ATOM      9  N   UNL d   1      24.174 -17.190  -0.635  0.00  0.00    -0.172 NA
ATOM     10  C   UNL d   1      23.649 -18.076  -1.423  0.00  0.00     0.139 C 
BRANCH  10  11
ATOM     11  C   UNL d   1      22.367 -18.736  -1.047  0.00  0.00     0.022 C 
ATOM     12  C   UNL d   1      21.775 -18.600   0.151  0.00  0.00     0.013 C 
BRANCH  12  13
ATOM     13  C   UNL d   1      20.533 -19.318   0.517  0.00  0.00    -0.036 A 
ATOM     14  C   UNL d   1      20.284 -19.696   1.846  0.00  0.00     0.011 A 
ATOM     15  C   UNL d   1      19.170 -20.486   2.168  0.00  0.00     0.001 A 
ATOM     16  C   UNL d   1      18.261 -20.855   1.179  0.00  0.00     0.000 A 
ATOM     17  C   UNL d   1      18.487 -20.472  -0.140  0.00  0.00     0.001 A 
ATOM     18  C   UNL d   1      19.621 -19.723  -0.469  0.00  0.00     0.011 A 
ENDBRANCH  12  13
ENDBRANCH  10  11
ENDBRANCH   7   9
ENDBRANCH   4   7
BRANCH   1  19
ATOM     19  S   UNL d   1      26.970 -14.537  -5.398  0.00  0.00    -0.087 SA
BRANCH  19  20
ATOM     20  C   UNL d   1      27.936 -13.127  -4.745  0.00  0.00     0.091 C 
BRANCH  20  21
ATOM     21  C   UNL d   1      27.026 -11.933  -4.353  0.00  0.00     0.113 C 
BRANCH  21  22
ATOM     22  C   UNL d   1      26.926 -11.782  -2.834  0.00  0.00     0.218 C 
ATOM     23  N   UNL d   1      26.938 -12.954  -2.093  0.00  0.00    -0.358 N 
ATOM     24  H   UNL d   1      27.014 -13.851  -2.553  0.00  0.00     0.162 HD
ATOM     25  O   UNL d   1      26.837 -10.677  -2.293  0.00  0.00    -0.274 OA
BRANCH  23  26
ATOM     26  C   UNL d   1      26.846 -12.883  -0.643  0.00  0.00     0.149 C 
BRANCH  26  27
ATOM     27  C   UNL d   1      27.632 -13.967   0.035  0.00  0.00    -0.018 C 
ATOM     28  C   UNL d   1      27.156 -14.643   1.096  0.00  0.00     0.008 C 
ENDBRANCH  26  27
ENDBRANCH  23  26
ENDBRANCH  21  22
ENDBRANCH  20  21
ENDBRANCH  19  20
ENDBRANCH   1  19
TORSDOF 10
ENDMDL
