MODEL 1
REMARK VINA RESULT:   -10.413      0.000      0.000
REMARK INTER + INTRA:         -16.435
REMARK INTER:                 -14.291
REMARK INTRA:                  -2.144
REMARK CONF_INDEPENDENT:        3.878
REMARK UNBOUND:                -2.144
REMARK  13 active torsions:
REMARK  status: ('A' for Active; 'I' for Inactive)
REMARK    1  A    between atoms: C_2  and  C_3 
REMARK    2  A    between atoms: C_3  and  C_4 
REMARK    3  A    between atoms: C_4  and  O_5 
REMARK    4  A    between atoms: O_5  and  C_6 
REMARK    5  A    between atoms: C_9  and  C_10 
REMARK    6  A    between atoms: C_10  and  O_12 
REMARK    7  A    between atoms: O_12  and  C_13 
REMARK    8  A    between atoms: C_16  and  C_17 
REMARK    9  A    between atoms: N_18  and  N_19 
REMARK   10  A    between atoms: N_19  and  C_20 
REMARK   11  A    between atoms: C_20  and  N_22 
REMARK   12  A    between atoms: N_22  and  C_23 
REMARK   13  A    between atoms: C_31  and  O_32 
ROOT
ATOM      1  C   UNL d   1      26.968 -15.665  -2.570  0.00  0.00     0.112 A 
ATOM      2  C   UNL d   1      28.345 -15.971  -2.572  0.00  0.00     0.041 A 
ATOM      3  C   UNL d   1      29.123 -15.861  -3.750  0.00  0.00     0.016 A 
ATOM      4  C   UNL d   1      28.522 -15.510  -4.962  0.00  0.00    -0.014 A 
ATOM      5  C   UNL d   1      27.154 -15.174  -4.943  0.00  0.00     0.052 A 
ATOM      6  C   UNL d   1      26.366 -15.220  -3.757  0.00  0.00     0.102 A 
ENDROOT
BRANCH   4   7
ATOM      7  C   UNL d   1      29.324 -15.555  -6.248  0.00  0.00     0.150 C 
ATOM      8  N   UNL d   1      30.302 -14.732  -6.454  0.00  0.00    -0.184 NA
BRANCH   8   9
ATOM      9  N   UNL d   1      31.030 -14.713  -7.644  0.00  0.00    -0.253 N 
ATOM     10  H   UNL d   1      30.720 -14.122  -8.407  0.00  0.00     0.191 HD
BRANCH   9  11
ATOM     11  C   UNL d   1      32.210 -15.492  -7.697  0.00  0.00     0.192 C 
ATOM     12  S   UNL d   1      33.704 -14.817  -7.262  0.00  0.00    -0.039 SA
BRANCH  11  13
ATOM     13  N   UNL d   1      32.033 -16.815  -8.168  0.00  0.00    -0.332 N 
ATOM     14  H   UNL d   1      32.446 -17.077  -9.055  0.00  0.00     0.168 HD
BRANCH  13  15
ATOM     15  C   UNL d   1      31.511 -17.904  -7.384  0.00  0.00     0.035 A 
ATOM     16  C   UNL d   1      30.921 -19.033  -7.976  0.00  0.00     0.029 A 
ATOM     17  C   UNL d   1      30.406 -20.074  -7.174  0.00  0.00     0.004 A 
ATOM     18  C   UNL d   1      30.510 -20.018  -5.783  0.00  0.00     0.024 A 
ATOM     19  C   UNL d   1      31.068 -18.892  -5.196  0.00  0.00     0.036 A 
ATOM     20 CL   UNL d   1      31.154 -18.762  -3.481  0.00  0.00    -0.084 Cl
ATOM     21  C   UNL d   1      31.535 -17.842  -5.985  0.00  0.00     0.053 A 
ENDBRANCH  13  15
ENDBRANCH  11  13
ENDBRANCH   9  11
ENDBRANCH   8   9
ENDBRANCH   4   7
BRANCH   6  22
ATOM     22  O   UNL d   1      25.080 -14.796  -3.972  0.00  0.00    -0.353 OA
ATOM     23  C   UNL d   1      24.745 -13.420  -3.950  0.00  0.00     0.210 C 
ENDBRANCH   6  22
BRANCH   1  24
ATOM     24  O   UNL d   1      26.311 -15.704  -1.306  0.00  0.00    -0.272 OA
BRANCH  24  25
ATOM     25  C   UNL d   1      26.116 -16.940  -0.692  0.00  0.00     0.298 C 
ATOM     26  O   UNL d   1      27.010 -17.736  -0.395  0.00  0.00    -0.259 OA
BRANCH  25  27
ATOM     27  C   UNL d   1      24.652 -17.310  -0.624  0.00  0.00     0.040 A 
ATOM     28  C   UNL d   1      23.664 -16.327  -0.836  0.00  0.00     0.020 A 
ATOM     29  C   UNL d   1      22.296 -16.658  -0.839  0.00  0.00     0.038 A 
ATOM     30  C   UNL d   1      21.894 -17.984  -0.679  0.00  0.00     0.068 A 
ATOM     31  C   UNL d   1      22.865 -18.949  -0.401  0.00  0.00     0.038 A 
ATOM     32  C   UNL d   1      24.231 -18.610  -0.341  0.00  0.00     0.020 A 
BRANCH  30  33
ATOM     33  O   UNL d   1      20.573 -18.251  -0.929  0.00  0.00    -0.351 OA
BRANCH  33  34
ATOM     34  C   UNL d   1      20.163 -19.616  -0.802  0.00  0.00     0.175 C 
BRANCH  34  35
ATOM     35  C   UNL d   1      20.066 -19.982   0.680  0.00  0.00     0.026 C 
BRANCH  35  36
ATOM     36  C   UNL d   1      18.608 -20.137   1.114  0.00  0.00    -0.002 C 
ATOM     37  C   UNL d   1      18.139 -21.576   0.979  0.00  0.00     0.005 C 
ENDBRANCH  35  36
ENDBRANCH  34  35
ENDBRANCH  33  34
ENDBRANCH  30  33
ENDBRANCH  25  27
ENDBRANCH  24  25
ENDBRANCH   1  24
TORSDOF 13
ENDMDL
MODEL 2
REMARK VINA RESULT:   -10.298      1.684      2.617
REMARK INTER + INTRA:         -16.219
REMARK INTER:                 -14.176
REMARK INTRA:                  -2.043
REMARK CONF_INDEPENDENT:        3.878
REMARK UNBOUND:                -2.043
REMARK  13 active torsions:
REMARK  status: ('A' for Active; 'I' for Inactive)
REMARK    1  A    between atoms: C_2  and  C_3 
REMARK    2  A    between atoms: C_3  and  C_4 
REMARK    3  A    between atoms: C_4  and  O_5 
REMARK    4  A    between atoms: O_5  and  C_6 
REMARK    5  A    between atoms: C_9  and  C_10 
REMARK    6  A    between atoms: C_10  and  O_12 
REMARK    7  A    between atoms: O_12  and  C_13 
REMARK    8  A    between atoms: C_16  and  C_17 
REMARK    9  A    between atoms: N_18  and  N_19 
REMARK   10  A    between atoms: N_19  and  C_20 
REMARK   11  A    between atoms: C_20  and  N_22 
REMARK   12  A    between atoms: N_22  and  C_23 
REMARK   13  A    between atoms: C_31  and  O_32 
ROOT
ATOM      1  C   UNL d   1      26.635 -15.921  -1.262  0.00  0.00     0.112 A 
ATOM      2  C   UNL d   1      25.739 -15.382  -2.209  0.00  0.00     0.041 A 
ATOM      3  C   UNL d   1      26.176 -14.995  -3.499  0.00  0.00     0.016 A 
ATOM      4  C   UNL d   1      27.529 -15.077  -3.841  0.00  0.00    -0.014 A 
ATOM      5  C   UNL d   1      28.409 -15.648  -2.902  0.00  0.00     0.052 A 
ATOM      6  C   UNL d   1      27.981 -16.100  -1.620  0.00  0.00     0.102 A 
ENDROOT
BRANCH   4   7
ATOM      7  C   UNL d   1      28.014 -14.508  -5.159  0.00  0.00     0.150 C 
ATOM      8  N   UNL d   1      28.498 -15.277  -6.082  0.00  0.00    -0.184 NA
BRANCH   8   9
ATOM      9  N   UNL d   1      28.998 -14.784  -7.287  0.00  0.00    -0.253 N 
ATOM     10  H   UNL d   1      28.417 -14.816  -8.118  0.00  0.00     0.191 HD
BRANCH   9  11
ATOM     11  C   UNL d   1      30.289 -14.205  -7.266  0.00  0.00     0.192 C 
ATOM     12  S   UNL d   1      30.506 -12.576  -7.684  0.00  0.00    -0.039 SA
BRANCH  11  13
ATOM     13  N   UNL d   1      31.337 -15.092  -6.922  0.00  0.00    -0.332 N 
ATOM     14  H   UNL d   1      32.278 -14.727  -6.835  0.00  0.00     0.168 HD
BRANCH  13  15
ATOM     15  C   UNL d   1      31.151 -16.440  -6.450  0.00  0.00     0.035 A 
ATOM     16  C   UNL d   1      31.073 -16.746  -5.081  0.00  0.00     0.029 A 
ATOM     17  C   UNL d   1      30.906 -18.081  -4.655  0.00  0.00     0.004 A 
ATOM     18  C   UNL d   1      30.774 -19.113  -5.587  0.00  0.00     0.024 A 
ATOM     19  C   UNL d   1      30.878 -18.816  -6.938  0.00  0.00     0.036 A 
ATOM     20 CL   UNL d   1      30.784 -20.073  -8.111  0.00  0.00    -0.084 Cl
ATOM     21  C   UNL d   1      31.089 -17.504  -7.358  0.00  0.00     0.053 A 
ENDBRANCH  13  15
ENDBRANCH  11  13
ENDBRANCH   9  11
ENDBRANCH   8   9
ENDBRANCH   4   7
BRANCH   6  22
ATOM     22  O   UNL d   1      29.002 -16.669  -0.903  0.00  0.00    -0.353 OA
ATOM     23  C   UNL d   1      30.119 -17.252  -1.551  0.00  0.00     0.210 C 
ENDBRANCH   6  22
BRANCH   1  24
ATOM     24  O   UNL d   1      26.066 -16.378  -0.038  0.00  0.00    -0.272 OA
BRANCH  24  25
ATOM     25  C   UNL d   1      25.647 -17.705   0.050  0.00  0.00     0.298 C 
ATOM     26  O   UNL d   1      26.387 -18.673   0.239  0.00  0.00    -0.259 OA
BRANCH  25  27
ATOM     27  C   UNL d   1      24.195 -17.863  -0.335  0.00  0.00     0.040 A 
ATOM     28  C   UNL d   1      23.644 -19.149  -0.506  0.00  0.00     0.020 A 
ATOM     29  C   UNL d   1      22.279 -19.323  -0.805  0.00  0.00     0.038 A 
ATOM     30  C   UNL d   1      21.432 -18.218  -0.889  0.00  0.00     0.068 A 
ATOM     31  C   UNL d   1      21.987 -16.941  -0.788  0.00  0.00     0.038 A 
ATOM     32  C   UNL d   1      23.363 -16.762  -0.546  0.00  0.00     0.020 A 
BRANCH  30  33
ATOM     33  O   UNL d   1      20.089 -18.487  -0.947  0.00  0.00    -0.351 OA
BRANCH  33  34
ATOM     34  C   UNL d   1      19.660 -19.719  -0.362  0.00  0.00     0.175 C 
BRANCH  34  35
ATOM     35  C   UNL d   1      19.902 -19.676   1.148  0.00  0.00     0.026 C 
BRANCH  35  36
ATOM     36  C   UNL d   1      18.833 -20.471   1.899  0.00  0.00    -0.002 C 
ATOM     37  C   UNL d   1      18.046 -21.367   0.958  0.00  0.00     0.005 C 
ENDBRANCH  35  36
ENDBRANCH  34  35
ENDBRANCH  33  34
ENDBRANCH  30  33
ENDBRANCH  25  27
ENDBRANCH  24  25
ENDBRANCH   1  24
TORSDOF 13
ENDMDL
MODEL 3
REMARK VINA RESULT:   -10.090      6.160      8.309
REMARK INTER + INTRA:         -15.971
REMARK INTER:                 -13.968
REMARK INTRA:                  -2.003
REMARK CONF_INDEPENDENT:        3.878
REMARK UNBOUND:                -2.003
REMARK  13 active torsions:
REMARK  status: ('A' for Active; 'I' for Inactive)
REMARK    1  A    between atoms: C_2  and  C_3 
REMARK    2  A    between atoms: C_3  and  C_4 
REMARK    3  A    between atoms: C_4  and  O_5 
REMARK    4  A    between atoms: O_5  and  C_6 
REMARK    5  A    between atoms: C_9  and  C_10 
REMARK    6  A    between atoms: C_10  and  O_12 
REMARK    7  A    between atoms: O_12  and  C_13 
REMARK    8  A    between atoms: C_16  and  C_17 
REMARK    9  A    between atoms: N_18  and  N_19 
REMARK   10  A    between atoms: N_19  and  C_20 
REMARK   11  A    between atoms: C_20  and  N_22 
REMARK   12  A    between atoms: N_22  and  C_23 
REMARK   13  A    between atoms: C_31  and  O_32 
ROOT
ATOM      1  C   UNL d   1      27.021 -15.607  -0.320  0.00  0.00     0.112 A 
ATOM      2  C   UNL d   1      27.351 -15.373   1.031  0.00  0.00     0.041 A 
ATOM      3  C   UNL d   1      27.440 -14.058   1.550  0.00  0.00     0.016 A 
ATOM      4  C   UNL d   1      27.269 -12.954   0.710  0.00  0.00    -0.014 A 
ATOM      5  C   UNL d   1      26.906 -13.199  -0.629  0.00  0.00     0.052 A 
ATOM      6  C   UNL d   1      26.752 -14.513  -1.158  0.00  0.00     0.102 A 
ENDROOT
BRANCH   4   7
ATOM      7  C   UNL d   1      27.529 -11.556   1.233  0.00  0.00     0.150 C 
ATOM      8  N   UNL d   1      27.600 -11.320   2.505  0.00  0.00    -0.184 NA
BRANCH   8   9
ATOM      9  N   UNL d   1      27.790 -10.039   3.023  0.00  0.00    -0.253 N 
ATOM     10  H   UNL d   1      27.656  -9.234   2.420  0.00  0.00     0.191 HD
BRANCH   9  11
ATOM     11  C   UNL d   1      28.109  -9.935   4.397  0.00  0.00     0.192 C 
ATOM     12  S   UNL d   1      29.255  -8.803   4.928  0.00  0.00    -0.039 SA
BRANCH  11  13
ATOM     13  N   UNL d   1      27.441 -10.856   5.238  0.00  0.00    -0.332 N 
ATOM     14  H   UNL d   1      26.505 -10.637   5.558  0.00  0.00     0.168 HD
BRANCH  13  15
ATOM     15  C   UNL d   1      27.884 -12.202   5.498  0.00  0.00     0.035 A 
ATOM     16  C   UNL d   1      27.404 -13.299   4.764  0.00  0.00     0.029 A 
ATOM     17  C   UNL d   1      27.849 -14.606   5.057  0.00  0.00     0.004 A 
ATOM     18  C   UNL d   1      28.803 -14.825   6.053  0.00  0.00     0.024 A 
ATOM     19  C   UNL d   1      29.257 -13.746   6.797  0.00  0.00     0.036 A 
ATOM     20 CL   UNL d   1      30.385 -13.989   8.075  0.00  0.00    -0.084 Cl
ATOM     21  C   UNL d   1      28.783 -12.461   6.539  0.00  0.00     0.053 A 
ENDBRANCH  13  15
ENDBRANCH  11  13
ENDBRANCH   9  11
ENDBRANCH   8   9
ENDBRANCH   4   7
BRANCH   6  22
ATOM     22  O   UNL d   1      26.341 -14.501  -2.466  0.00  0.00    -0.353 OA
ATOM     23  C   UNL d   1      24.973 -14.364  -2.805  0.00  0.00     0.210 C 
ENDBRANCH   6  22
BRANCH   1  24
ATOM     24  O   UNL d   1      26.851 -16.969  -0.705  0.00  0.00    -0.272 OA
BRANCH  24  25
ATOM     25  C   UNL d   1      26.067 -17.797   0.097  0.00  0.00     0.298 C 
ATOM     26  O   UNL d   1      26.500 -18.610   0.916  0.00  0.00    -0.259 OA
BRANCH  25  27
ATOM     27  C   UNL d   1      24.611 -17.754  -0.304  0.00  0.00     0.040 A 
ATOM     28  C   UNL d   1      23.913 -18.950  -0.568  0.00  0.00     0.020 A 
ATOM     29  C   UNL d   1      22.542 -18.939  -0.883  0.00  0.00     0.038 A 
ATOM     30  C   UNL d   1      21.832 -17.738  -0.892  0.00  0.00     0.068 A 
ATOM     31  C   UNL d   1      22.533 -16.546  -0.698  0.00  0.00     0.038 A 
ATOM     32  C   UNL d   1      23.917 -16.549  -0.438  0.00  0.00     0.020 A 
BRANCH  30  33
ATOM     33  O   UNL d   1      20.468 -17.841  -0.974  0.00  0.00    -0.351 OA
BRANCH  33  34
ATOM     34  C   UNL d   1      19.918 -19.154  -0.842  0.00  0.00     0.175 C 
BRANCH  34  35
ATOM     35  C   UNL d   1      19.844 -19.529   0.639  0.00  0.00     0.026 C 
BRANCH  35  36
ATOM     36  C   UNL d   1      19.492 -21.006   0.816  0.00  0.00    -0.002 C 
ATOM     37  C   UNL d   1      17.990 -21.209   0.927  0.00  0.00     0.005 C 
ENDBRANCH  35  36
ENDBRANCH  34  35
ENDBRANCH  33  34
ENDBRANCH  30  33
ENDBRANCH  25  27
ENDBRANCH  24  25
ENDBRANCH   1  24
TORSDOF 13
ENDMDL
MODEL 4
REMARK VINA RESULT:   -10.069      1.128      1.856
REMARK INTER + INTRA:         -15.873
REMARK INTER:                 -13.947
REMARK INTRA:                  -1.926
REMARK CONF_INDEPENDENT:        3.878
REMARK UNBOUND:                -1.926
REMARK  13 active torsions:
REMARK  status: ('A' for Active; 'I' for Inactive)
REMARK    1  A    between atoms: C_2  and  C_3 
REMARK    2  A    between atoms: C_3  and  C_4 
REMARK    3  A    between atoms: C_4  and  O_5 
REMARK    4  A    between atoms: O_5  and  C_6 
REMARK    5  A    between atoms: C_9  and  C_10 
REMARK    6  A    between atoms: C_10  and  O_12 
REMARK    7  A    between atoms: O_12  and  C_13 
REMARK    8  A    between atoms: C_16  and  C_17 
REMARK    9  A    between atoms: N_18  and  N_19 
REMARK   10  A    between atoms: N_19  and  C_20 
REMARK   11  A    between atoms: C_20  and  N_22 
REMARK   12  A    between atoms: N_22  and  C_23 
REMARK   13  A    between atoms: C_31  and  O_32 
ROOT
ATOM      1  C   UNL d   1      26.214 -15.225  -2.070  0.00  0.00     0.112 A 
ATOM      2  C   UNL d   1      25.451 -14.965  -3.227  0.00  0.00     0.041 A 
ATOM      3  C   UNL d   1      26.051 -14.913  -4.509  0.00  0.00     0.016 A 
ATOM      4  C   UNL d   1      27.435 -15.051  -4.647  0.00  0.00    -0.014 A 
ATOM      5  C   UNL d   1      28.183 -15.344  -3.490  0.00  0.00     0.052 A 
ATOM      6  C   UNL d   1      27.591 -15.461  -2.199  0.00  0.00     0.102 A 
ENDROOT
BRANCH   4   7
ATOM      7  C   UNL d   1      28.089 -14.829  -5.996  0.00  0.00     0.150 C 
ATOM      8  N   UNL d   1      29.372 -14.927  -6.141  0.00  0.00    -0.184 NA
BRANCH   8   9
ATOM      9  N   UNL d   1      30.012 -14.681  -7.356  0.00  0.00    -0.253 N 
ATOM     10  H   UNL d   1      29.492 -14.255  -8.115  0.00  0.00     0.191 HD
BRANCH   9  11
ATOM     11  C   UNL d   1      31.389 -14.995  -7.439  0.00  0.00     0.192 C 
ATOM     12  S   UNL d   1      32.394 -14.167  -8.526  0.00  0.00    -0.039 SA
BRANCH  11  13
ATOM     13  N   UNL d   1      31.815 -16.050  -6.597  0.00  0.00    -0.332 N 
ATOM     14  H   UNL d   1      32.276 -15.824  -5.724  0.00  0.00     0.168 HD
BRANCH  13  15
ATOM     15  C   UNL d   1      31.441 -17.432  -6.758  0.00  0.00     0.035 A 
ATOM     16  C   UNL d   1      31.183 -17.991  -8.020  0.00  0.00     0.029 A 
ATOM     17  C   UNL d   1      30.804 -19.345  -8.139  0.00  0.00     0.004 A 
ATOM     18  C   UNL d   1      30.719 -20.161  -7.008  0.00  0.00     0.024 A 
ATOM     19  C   UNL d   1      30.948 -19.603  -5.759  0.00  0.00     0.036 A 
ATOM     20 CL   UNL d   1      30.789 -20.565  -4.339  0.00  0.00    -0.084 Cl
ATOM     21  C   UNL d   1      31.276 -18.254  -5.637  0.00  0.00     0.053 A 
ENDBRANCH  13  15
ENDBRANCH  11  13
ENDBRANCH   9  11
ENDBRANCH   8   9
ENDBRANCH   4   7
BRANCH   6  22
ATOM     22  O   UNL d   1      28.507 -15.806  -1.238  0.00  0.00    -0.353 OA
ATOM     23  C   UNL d   1      29.157 -17.065  -1.260  0.00  0.00     0.210 C 
ENDBRANCH   6  22
BRANCH   1  24
ATOM     24  O   UNL d   1      25.490 -15.365  -0.850  0.00  0.00    -0.272 OA
BRANCH  24  25
ATOM     25  C   UNL d   1      25.502 -16.600  -0.203  0.00  0.00     0.298 C 
ATOM     26  O   UNL d   1      26.494 -17.128   0.303  0.00  0.00    -0.259 OA
BRANCH  25  27
ATOM     27  C   UNL d   1      24.197 -17.340  -0.381  0.00  0.00     0.040 A 
ATOM     28  C   UNL d   1      23.013 -16.629  -0.669  0.00  0.00     0.020 A 
ATOM     29  C   UNL d   1      21.798 -17.301  -0.899  0.00  0.00     0.038 A 
ATOM     30  C   UNL d   1      21.754 -18.696  -0.894  0.00  0.00     0.068 A 
ATOM     31  C   UNL d   1      22.907 -19.400  -0.542  0.00  0.00     0.038 A 
ATOM     32  C   UNL d   1      24.111 -18.728  -0.255  0.00  0.00     0.020 A 
BRANCH  30  33
ATOM     33  O   UNL d   1      20.597 -19.267  -1.356  0.00  0.00    -0.351 OA
BRANCH  33  34
ATOM     34  C   UNL d   1      19.519 -19.369  -0.422  0.00  0.00     0.175 C 
BRANCH  34  35
ATOM     35  C   UNL d   1      20.000 -20.103   0.831  0.00  0.00     0.026 C 
BRANCH  35  36
ATOM     36  C   UNL d   1      18.820 -20.531   1.705  0.00  0.00    -0.002 C 
ATOM     37  C   UNL d   1      17.974 -21.587   1.015  0.00  0.00     0.005 C 
ENDBRANCH  35  36
ENDBRANCH  34  35
ENDBRANCH  33  34
ENDBRANCH  30  33
ENDBRANCH  25  27
ENDBRANCH  24  25
ENDBRANCH   1  24
TORSDOF 13
ENDMDL
MODEL 5
REMARK VINA RESULT:    -9.957      1.405      1.768
REMARK INTER + INTRA:         -15.887
REMARK INTER:                 -13.835
REMARK INTRA:                  -2.052
REMARK CONF_INDEPENDENT:        3.878
REMARK UNBOUND:                -2.052
REMARK  13 active torsions:
REMARK  status: ('A' for Active; 'I' for Inactive)
REMARK    1  A    between atoms: C_2  and  C_3 
REMARK    2  A    between atoms: C_3  and  C_4 
REMARK    3  A    between atoms: C_4  and  O_5 
REMARK    4  A    between atoms: O_5  and  C_6 
REMARK    5  A    between atoms: C_9  and  C_10 
REMARK    6  A    between atoms: C_10  and  O_12 
REMARK    7  A    between atoms: O_12  and  C_13 
REMARK    8  A    between atoms: C_16  and  C_17 
REMARK    9  A    between atoms: N_18  and  N_19 
REMARK   10  A    between atoms: N_19  and  C_20 
REMARK   11  A    between atoms: C_20  and  N_22 
REMARK   12  A    between atoms: N_22  and  C_23 
REMARK   13  A    between atoms: C_31  and  O_32 
ROOT
ATOM      1  C   UNL d   1      26.648 -15.425  -2.333  0.00  0.00     0.112 A 
ATOM      2  C   UNL d   1      27.969 -15.825  -2.042  0.00  0.00     0.041 A 
ATOM      3  C   UNL d   1      28.975 -15.827  -3.039  0.00  0.00     0.016 A 
ATOM      4  C   UNL d   1      28.661 -15.495  -4.360  0.00  0.00    -0.014 A 
ATOM      5  C   UNL d   1      27.348 -15.063  -4.633  0.00  0.00     0.052 A 
ATOM      6  C   UNL d   1      26.335 -14.996  -3.632  0.00  0.00     0.102 A 
ENDROOT
BRANCH   4   7
ATOM      7  C   UNL d   1      29.699 -15.659  -5.451  0.00  0.00     0.150 C 
ATOM      8  N   UNL d   1      29.653 -16.659  -6.272  0.00  0.00    -0.184 NA
BRANCH   8   9
ATOM      9  N   UNL d   1      30.619 -16.869  -7.257  0.00  0.00    -0.253 N 
ATOM     10  H   UNL d   1      30.888 -16.101  -7.862  0.00  0.00     0.191 HD
BRANCH   9  11
ATOM     11  C   UNL d   1      31.217 -18.150  -7.318  0.00  0.00     0.192 C 
ATOM     12  S   UNL d   1      32.675 -18.377  -8.152  0.00  0.00    -0.039 SA
BRANCH  11  13
ATOM     13  N   UNL d   1      30.487 -19.182  -6.681  0.00  0.00    -0.332 N 
ATOM     14  H   UNL d   1      29.826 -19.722  -7.226  0.00  0.00     0.168 HD
BRANCH  13  15
ATOM     15  C   UNL d   1      30.770 -19.697  -5.366  0.00  0.00     0.035 A 
ATOM     16  C   UNL d   1      30.935 -21.070  -5.123  0.00  0.00     0.029 A 
ATOM     17  C   UNL d   1      31.196 -21.539  -3.818  0.00  0.00     0.004 A 
ATOM     18  C   UNL d   1      31.334 -20.644  -2.755  0.00  0.00     0.024 A 
ATOM     19  C   UNL d   1      31.145 -19.290  -2.988  0.00  0.00     0.036 A 
ATOM     20 CL   UNL d   1      31.244 -18.165  -1.689  0.00  0.00    -0.084 Cl
ATOM     21  C   UNL d   1      30.841 -18.830  -4.269  0.00  0.00     0.053 A 
ENDBRANCH  13  15
ENDBRANCH  11  13
ENDBRANCH   9  11
ENDBRANCH   8   9
ENDBRANCH   4   7
BRANCH   6  22
ATOM     22  O   UNL d   1      25.156 -14.495  -4.121  0.00  0.00    -0.353 OA
ATOM     23  C   UNL d   1      25.066 -13.166  -4.603  0.00  0.00     0.210 C 
ENDBRANCH   6  22
BRANCH   1  24
ATOM     24  O   UNL d   1      25.748 -15.356  -1.230  0.00  0.00    -0.272 OA
BRANCH  24  25
ATOM     25  C   UNL d   1      25.713 -16.419  -0.328  0.00  0.00     0.298 C 
ATOM     26  O   UNL d   1      26.659 -16.791   0.369  0.00  0.00    -0.259 OA
BRANCH  25  27
ATOM     27  C   UNL d   1      24.440 -17.222  -0.456  0.00  0.00     0.040 A 
ATOM     28  C   UNL d   1      23.216 -16.571  -0.715  0.00  0.00     0.020 A 
ATOM     29  C   UNL d   1      22.027 -17.302  -0.898  0.00  0.00     0.038 A 
ATOM     30  C   UNL d   1      22.048 -18.697  -0.874  0.00  0.00     0.068 A 
ATOM     31  C   UNL d   1      23.244 -19.341  -0.551  0.00  0.00     0.038 A 
ATOM     32  C   UNL d   1      24.424 -18.610  -0.310  0.00  0.00     0.020 A 
BRANCH  30  33
ATOM     33  O   UNL d   1      20.906 -19.328  -1.292  0.00  0.00    -0.351 OA
BRANCH  33  34
ATOM     34  C   UNL d   1      19.783 -19.265  -0.409  0.00  0.00     0.175 C 
BRANCH  34  35
ATOM     35  C   UNL d   1      20.060 -20.121   0.828  0.00  0.00     0.026 C 
BRANCH  35  36
ATOM     36  C   UNL d   1      18.772 -20.403   1.602  0.00  0.00    -0.002 C 
ATOM     37  C   UNL d   1      17.987 -21.543   0.976  0.00  0.00     0.005 C 
ENDBRANCH  35  36
ENDBRANCH  34  35
ENDBRANCH  33  34
ENDBRANCH  30  33
ENDBRANCH  25  27
ENDBRANCH  24  25
ENDBRANCH   1  24
TORSDOF 13
ENDMDL
MODEL 6
REMARK VINA RESULT:    -9.710      4.315      5.322
REMARK INTER + INTRA:         -15.737
REMARK INTER:                 -13.588
REMARK INTRA:                  -2.150
REMARK CONF_INDEPENDENT:        3.878
REMARK UNBOUND:                -2.150
REMARK  13 active torsions:
REMARK  status: ('A' for Active; 'I' for Inactive)
REMARK    1  A    between atoms: C_2  and  C_3 
REMARK    2  A    between atoms: C_3  and  C_4 
REMARK    3  A    between atoms: C_4  and  O_5 
REMARK    4  A    between atoms: O_5  and  C_6 
REMARK    5  A    between atoms: C_9  and  C_10 
REMARK    6  A    between atoms: C_10  and  O_12 
REMARK    7  A    between atoms: O_12  and  C_13 
REMARK    8  A    between atoms: C_16  and  C_17 
REMARK    9  A    between atoms: N_18  and  N_19 
REMARK   10  A    between atoms: N_19  and  C_20 
REMARK   11  A    between atoms: C_20  and  N_22 
REMARK   12  A    between atoms: N_22  and  C_23 
REMARK   13  A    between atoms: C_31  and  O_32 
ROOT
ATOM      1  C   UNL d   1      26.405 -16.004  -1.513  0.00  0.00     0.112 A 
ATOM      2  C   UNL d   1      26.165 -15.797  -2.887  0.00  0.00     0.041 A 
ATOM      3  C   UNL d   1      26.033 -14.493  -3.423  0.00  0.00     0.016 A 
ATOM      4  C   UNL d   1      26.070 -13.377  -2.583  0.00  0.00    -0.014 A 
ATOM      5  C   UNL d   1      26.343 -13.592  -1.219  0.00  0.00     0.052 A 
ATOM      6  C   UNL d   1      26.539 -14.892  -0.667  0.00  0.00     0.102 A 
ENDROOT
BRANCH   4   7
ATOM      7  C   UNL d   1      25.762 -12.000  -3.137  0.00  0.00     0.150 C 
ATOM      8  N   UNL d   1      26.708 -11.142  -3.359  0.00  0.00    -0.184 NA
BRANCH   8   9
ATOM      9  N   UNL d   1      26.458  -9.851  -3.822  0.00  0.00    -0.253 N 
ATOM     10  H   UNL d   1      26.944  -9.068  -3.398  0.00  0.00     0.191 HD
BRANCH   9  11
ATOM     11  C   UNL d   1      25.566  -9.712  -4.912  0.00  0.00     0.192 C 
ATOM     12  S   UNL d   1      24.608  -8.322  -5.065  0.00  0.00    -0.039 SA
BRANCH  11  13
ATOM     13  N   UNL d   1      25.524 -10.818  -5.794  0.00  0.00    -0.332 N 
ATOM     14  H   UNL d   1      24.626 -11.133  -6.141  0.00  0.00     0.168 HD
BRANCH  13  15
ATOM     15  C   UNL d   1      26.673 -11.400  -6.438  0.00  0.00     0.035 A 
ATOM     16  C   UNL d   1      27.330 -10.767  -7.505  0.00  0.00     0.029 A 
ATOM     17  C   UNL d   1      28.445 -11.375  -8.121  0.00  0.00     0.004 A 
ATOM     18  C   UNL d   1      28.936 -12.596  -7.654  0.00  0.00     0.024 A 
ATOM     19  C   UNL d   1      28.272 -13.236  -6.618  0.00  0.00     0.036 A 
ATOM     20 CL   UNL d   1      28.813 -14.772  -6.061  0.00  0.00    -0.084 Cl
ATOM     21  C   UNL d   1      27.144 -12.658  -6.040  0.00  0.00     0.053 A 
ENDBRANCH  13  15
ENDBRANCH  11  13
ENDBRANCH   9  11
ENDBRANCH   8   9
ENDBRANCH   4   7
BRANCH   6  22
ATOM     22  O   UNL d   1      26.847 -14.847   0.668  0.00  0.00    -0.353 OA
ATOM     23  C   UNL d   1      28.159 -15.114   1.129  0.00  0.00     0.210 C 
ENDBRANCH   6  22
BRANCH   1  24
ATOM     24  O   UNL d   1      26.631 -17.351  -1.103  0.00  0.00    -0.272 OA
BRANCH  24  25
ATOM     25  C   UNL d   1      25.845 -17.879  -0.080  0.00  0.00     0.298 C 
ATOM     26  O   UNL d   1      26.273 -18.486   0.903  0.00  0.00    -0.259 OA
BRANCH  25  27
ATOM     27  C   UNL d   1      24.373 -17.823  -0.416  0.00  0.00     0.040 A 
ATOM     28  C   UNL d   1      23.700 -18.986  -0.844  0.00  0.00     0.020 A 
ATOM     29  C   UNL d   1      22.317 -18.973  -1.104  0.00  0.00     0.038 A 
ATOM     30  C   UNL d   1      21.573 -17.811  -0.895  0.00  0.00     0.068 A 
ATOM     31  C   UNL d   1      22.247 -16.641  -0.537  0.00  0.00     0.038 A 
ATOM     32  C   UNL d   1      23.640 -16.638  -0.331  0.00  0.00     0.020 A 
BRANCH  30  33
ATOM     33  O   UNL d   1      20.210 -17.947  -0.943  0.00  0.00    -0.351 OA
BRANCH  33  34
ATOM     34  C   UNL d   1      19.683 -19.221  -0.566  0.00  0.00     0.175 C 
BRANCH  34  35
ATOM     35  C   UNL d   1      20.063 -19.520   0.886  0.00  0.00     0.026 C 
BRANCH  35  36
ATOM     36  C   UNL d   1      18.877 -20.099   1.657  0.00  0.00    -0.002 C 
ATOM     37  C   UNL d   1      18.336 -21.350   0.985  0.00  0.00     0.005 C 
ENDBRANCH  35  36
ENDBRANCH  34  35
ENDBRANCH  33  34
ENDBRANCH  30  33
ENDBRANCH  25  27
ENDBRANCH  24  25
ENDBRANCH   1  24
TORSDOF 13
ENDMDL
MODEL 7
REMARK VINA RESULT:    -9.592      3.276      4.838
REMARK INTER + INTRA:         -15.955
REMARK INTER:                 -13.470
REMARK INTRA:                  -2.485
REMARK CONF_INDEPENDENT:        3.878
REMARK UNBOUND:                -2.485
REMARK  13 active torsions:
REMARK  status: ('A' for Active; 'I' for Inactive)
REMARK    1  A    between atoms: C_2  and  C_3 
REMARK    2  A    between atoms: C_3  and  C_4 
REMARK    3  A    between atoms: C_4  and  O_5 
REMARK    4  A    between atoms: O_5  and  C_6 
REMARK    5  A    between atoms: C_9  and  C_10 
REMARK    6  A    between atoms: C_10  and  O_12 
REMARK    7  A    between atoms: O_12  and  C_13 
REMARK    8  A    between atoms: C_16  and  C_17 
REMARK    9  A    between atoms: N_18  and  N_19 
REMARK   10  A    between atoms: N_19  and  C_20 
REMARK   11  A    between atoms: C_20  and  N_22 
REMARK   12  A    between atoms: N_22  and  C_23 
REMARK   13  A    between atoms: C_31  and  O_32 
ROOT
ATOM      1  C   UNL d   1      26.783 -15.841  -1.562  0.00  0.00     0.112 A 
ATOM      2  C   UNL d   1      25.679 -15.544  -2.388  0.00  0.00     0.041 A 
ATOM      3  C   UNL d   1      25.842 -15.285  -3.771  0.00  0.00     0.016 A 
ATOM      4  C   UNL d   1      27.120 -15.251  -4.337  0.00  0.00    -0.014 A 
ATOM      5  C   UNL d   1      28.212 -15.582  -3.511  0.00  0.00     0.052 A 
ATOM      6  C   UNL d   1      28.064 -15.904  -2.131  0.00  0.00     0.102 A 
ENDROOT
BRANCH   4   7
ATOM      7  C   UNL d   1      27.300 -14.811  -5.775  0.00  0.00     0.150 C 
ATOM      8  N   UNL d   1      28.473 -14.521  -6.244  0.00  0.00    -0.184 NA
BRANCH   8   9
ATOM      9  N   UNL d   1      28.670 -14.066  -7.548  0.00  0.00    -0.253 N 
ATOM     10  H   UNL d   1      28.863 -14.736  -8.285  0.00  0.00     0.191 HD
BRANCH   9  11
ATOM     11  C   UNL d   1      28.532 -12.678  -7.779  0.00  0.00     0.192 C 
ATOM     12  S   UNL d   1      28.167 -12.099  -9.331  0.00  0.00    -0.039 SA
BRANCH  11  13
ATOM     13  N   UNL d   1      28.761 -11.857  -6.649  0.00  0.00    -0.332 N 
ATOM     14  H   UNL d   1      29.628 -11.336  -6.591  0.00  0.00     0.168 HD
BRANCH  13  15
ATOM     15  C   UNL d   1      27.763 -11.507  -5.671  0.00  0.00     0.035 A 
ATOM     16  C   UNL d   1      26.690 -10.653  -5.975  0.00  0.00     0.029 A 
ATOM     17  C   UNL d   1      25.739 -10.320  -4.987  0.00  0.00     0.004 A 
ATOM     18  C   UNL d   1      25.827 -10.865  -3.704  0.00  0.00     0.024 A 
ATOM     19  C   UNL d   1      26.902 -11.686  -3.395  0.00  0.00     0.036 A 
ATOM     20 CL   UNL d   1      27.076 -12.323  -1.805  0.00  0.00    -0.084 Cl
ATOM     21  C   UNL d   1      27.867 -11.979  -4.357  0.00  0.00     0.053 A 
ENDBRANCH  13  15
ENDBRANCH  11  13
ENDBRANCH   9  11
ENDBRANCH   8   9
ENDBRANCH   4   7
BRANCH   6  22
ATOM     22  O   UNL d   1      29.258 -16.246  -1.548  0.00  0.00    -0.353 OA
ATOM     23  C   UNL d   1      29.312 -17.148  -0.457  0.00  0.00     0.210 C 
ENDBRANCH   6  22
BRANCH   1  24
ATOM     24  O   UNL d   1      26.489 -16.193  -0.212  0.00  0.00    -0.272 OA
BRANCH  24  25
ATOM     25  C   UNL d   1      25.980 -17.464   0.051  0.00  0.00     0.298 C 
ATOM     26  O   UNL d   1      26.651 -18.447   0.370  0.00  0.00    -0.259 OA
BRANCH  25  27
ATOM     27  C   UNL d   1      24.517 -17.569  -0.315  0.00  0.00     0.040 A 
ATOM     28  C   UNL d   1      23.954 -18.825  -0.624  0.00  0.00     0.020 A 
ATOM     29  C   UNL d   1      22.582 -18.957  -0.909  0.00  0.00     0.038 A 
ATOM     30  C   UNL d   1      21.740 -17.847  -0.840  0.00  0.00     0.068 A 
ATOM     31  C   UNL d   1      22.305 -16.593  -0.601  0.00  0.00     0.038 A 
ATOM     32  C   UNL d   1      23.687 -16.448  -0.373  0.00  0.00     0.020 A 
BRANCH  30  33
ATOM     33  O   UNL d   1      20.395 -18.102  -0.898  0.00  0.00    -0.351 OA
BRANCH  33  34
ATOM     34  C   UNL d   1      20.013 -19.435  -1.250  0.00  0.00     0.175 C 
BRANCH  34  35
ATOM     35  C   UNL d   1      19.142 -20.025  -0.138  0.00  0.00     0.026 C 
BRANCH  35  36
ATOM     36  C   UNL d   1      19.956 -20.250   1.136  0.00  0.00    -0.002 C 
ATOM     37  C   UNL d   1      19.053 -20.445   2.343  0.00  0.00     0.005 C 
ENDBRANCH  35  36
ENDBRANCH  34  35
ENDBRANCH  33  34
ENDBRANCH  30  33
ENDBRANCH  25  27
ENDBRANCH  24  25
ENDBRANCH   1  24
TORSDOF 13
ENDMDL
MODEL 8
REMARK VINA RESULT:    -9.499      2.860      4.563
REMARK INTER + INTRA:         -15.868
REMARK INTER:                 -13.377
REMARK INTRA:                  -2.491
REMARK CONF_INDEPENDENT:        3.878
REMARK UNBOUND:                -2.491
REMARK  13 active torsions:
REMARK  status: ('A' for Active; 'I' for Inactive)
REMARK    1  A    between atoms: C_2  and  C_3 
REMARK    2  A    between atoms: C_3  and  C_4 
REMARK    3  A    between atoms: C_4  and  O_5 
REMARK    4  A    between atoms: O_5  and  C_6 
REMARK    5  A    between atoms: C_9  and  C_10 
REMARK    6  A    between atoms: C_10  and  O_12 
REMARK    7  A    between atoms: O_12  and  C_13 
REMARK    8  A    between atoms: C_16  and  C_17 
REMARK    9  A    between atoms: N_18  and  N_19 
REMARK   10  A    between atoms: N_19  and  C_20 
REMARK   11  A    between atoms: C_20  and  N_22 
REMARK   12  A    between atoms: N_22  and  C_23 
REMARK   13  A    between atoms: C_31  and  O_32 
ROOT
ATOM      1  C   UNL d   1      26.962 -16.090  -1.425  0.00  0.00     0.112 A 
ATOM      2  C   UNL d   1      28.354 -16.233  -1.607  0.00  0.00     0.041 A 
ATOM      3  C   UNL d   1      28.986 -15.819  -2.805  0.00  0.00     0.016 A 
ATOM      4  C   UNL d   1      28.228 -15.320  -3.868  0.00  0.00    -0.014 A 
ATOM      5  C   UNL d   1      26.845 -15.150  -3.664  0.00  0.00     0.052 A 
ATOM      6  C   UNL d   1      26.196 -15.504  -2.445  0.00  0.00     0.102 A 
ENDROOT
BRANCH   4   7
ATOM      7  C   UNL d   1      28.888 -15.036  -5.202  0.00  0.00     0.150 C 
ATOM      8  N   UNL d   1      28.191 -14.649  -6.223  0.00  0.00    -0.184 NA
BRANCH   8   9
ATOM      9  N   UNL d   1      28.757 -14.425  -7.479  0.00  0.00    -0.253 N 
ATOM     10  H   UNL d   1      28.920 -15.212  -8.098  0.00  0.00     0.191 HD
BRANCH   9  11
ATOM     11  C   UNL d   1      29.023 -13.084  -7.842  0.00  0.00     0.192 C 
ATOM     12  S   UNL d   1      30.621 -12.532  -7.973  0.00  0.00    -0.039 SA
BRANCH  11  13
ATOM     13  N   UNL d   1      27.876 -12.277  -8.033  0.00  0.00    -0.332 N 
ATOM     14  H   UNL d   1      27.390 -12.320  -8.920  0.00  0.00     0.168 HD
BRANCH  13  15
ATOM     15  C   UNL d   1      27.192 -11.562  -6.986  0.00  0.00     0.035 A 
ATOM     16  C   UNL d   1      26.343 -10.476  -7.258  0.00  0.00     0.029 A 
ATOM     17  C   UNL d   1      25.701  -9.789  -6.205  0.00  0.00     0.004 A 
ATOM     18  C   UNL d   1      25.867 -10.203  -4.882  0.00  0.00     0.024 A 
ATOM     19  C   UNL d   1      26.726 -11.258  -4.610  0.00  0.00     0.036 A 
ATOM     20 CL   UNL d   1      27.003 -11.752  -2.984  0.00  0.00    -0.084 Cl
ATOM     21  C   UNL d   1      27.397 -11.907  -5.645  0.00  0.00     0.053 A 
ENDBRANCH  13  15
ENDBRANCH  11  13
ENDBRANCH   9  11
ENDBRANCH   8   9
ENDBRANCH   4   7
BRANCH   6  22
ATOM     22  O   UNL d   1      24.860 -15.196  -2.460  0.00  0.00    -0.353 OA
ATOM     23  C   UNL d   1      24.375 -14.060  -3.155  0.00  0.00     0.210 C 
ENDBRANCH   6  22
BRANCH   1  24
ATOM     24  O   UNL d   1      26.451 -16.437  -0.141  0.00  0.00    -0.272 OA
BRANCH  24  25
ATOM     25  C   UNL d   1      25.922 -17.713   0.047  0.00  0.00     0.298 C 
ATOM     26  O   UNL d   1      26.579 -18.724   0.300  0.00  0.00    -0.259 OA
BRANCH  25  27
ATOM     27  C   UNL d   1      24.457 -17.773  -0.317  0.00  0.00     0.040 A 
ATOM     28  C   UNL d   1      23.856 -19.009  -0.633  0.00  0.00     0.020 A 
ATOM     29  C   UNL d   1      22.480 -19.098  -0.915  0.00  0.00     0.038 A 
ATOM     30  C   UNL d   1      21.671 -17.964  -0.838  0.00  0.00     0.068 A 
ATOM     31  C   UNL d   1      22.274 -16.729  -0.592  0.00  0.00     0.038 A 
ATOM     32  C   UNL d   1      23.660 -16.627  -0.366  0.00  0.00     0.020 A 
BRANCH  30  33
ATOM     33  O   UNL d   1      20.319 -18.179  -0.894  0.00  0.00    -0.351 OA
BRANCH  33  34
ATOM     34  C   UNL d   1      19.897 -19.507  -1.213  0.00  0.00     0.175 C 
BRANCH  34  35
ATOM     35  C   UNL d   1      18.782 -19.931  -0.255  0.00  0.00     0.026 C 
BRANCH  35  36
ATOM     36  C   UNL d   1      19.324 -20.830   0.856  0.00  0.00    -0.002 C 
ATOM     37  C   UNL d   1      19.903 -20.013   1.998  0.00  0.00     0.005 C 
ENDBRANCH  35  36
ENDBRANCH  34  35
ENDBRANCH  33  34
ENDBRANCH  30  33
ENDBRANCH  25  27
ENDBRANCH  24  25
ENDBRANCH   1  24
TORSDOF 13
ENDMDL
MODEL 9
REMARK VINA RESULT:    -9.487      4.428      5.498
REMARK INTER + INTRA:         -15.763
REMARK INTER:                 -13.364
REMARK INTRA:                  -2.398
REMARK CONF_INDEPENDENT:        3.878
REMARK UNBOUND:                -2.398
REMARK  13 active torsions:
REMARK  status: ('A' for Active; 'I' for Inactive)
REMARK    1  A    between atoms: C_2  and  C_3 
REMARK    2  A    between atoms: C_3  and  C_4 
REMARK    3  A    between atoms: C_4  and  O_5 
REMARK    4  A    between atoms: O_5  and  C_6 
REMARK    5  A    between atoms: C_9  and  C_10 
REMARK    6  A    between atoms: C_10  and  O_12 
REMARK    7  A    between atoms: O_12  and  C_13 
REMARK    8  A    between atoms: C_16  and  C_17 
REMARK    9  A    between atoms: N_18  and  N_19 
REMARK   10  A    between atoms: N_19  and  C_20 
REMARK   11  A    between atoms: C_20  and  N_22 
REMARK   12  A    between atoms: N_22  and  C_23 
REMARK   13  A    between atoms: C_31  and  O_32 
ROOT
ATOM      1  C   UNL d   1      26.659 -15.225  -1.937  0.00  0.00     0.112 A 
ATOM      2  C   UNL d   1      27.084 -14.243  -1.018  0.00  0.00     0.041 A 
ATOM      3  C   UNL d   1      26.856 -12.865  -1.254  0.00  0.00     0.016 A 
ATOM      4  C   UNL d   1      26.260 -12.442  -2.445  0.00  0.00    -0.014 A 
ATOM      5  C   UNL d   1      25.808 -13.431  -3.340  0.00  0.00     0.052 A 
ATOM      6  C   UNL d   1      25.974 -14.826  -3.095  0.00  0.00     0.102 A 
ENDROOT
BRANCH   4   7
ATOM      7  C   UNL d   1      26.170 -10.963  -2.764  0.00  0.00     0.150 C 
ATOM      8  N   UNL d   1      25.146 -10.476  -3.391  0.00  0.00    -0.184 NA
BRANCH   8   9
ATOM      9  N   UNL d   1      25.052  -9.130  -3.744  0.00  0.00    -0.253 N 
ATOM     10  H   UNL d   1      24.766  -8.451  -3.047  0.00  0.00     0.191 HD
BRANCH   9  11
ATOM     11  C   UNL d   1      25.421  -8.777  -5.064  0.00  0.00     0.192 C 
ATOM     12  S   UNL d   1      26.073  -7.247  -5.393  0.00  0.00    -0.039 SA
BRANCH  11  13
ATOM     13  N   UNL d   1      25.161  -9.766  -6.043  0.00  0.00    -0.332 N 
ATOM     14  H   UNL d   1      24.241  -9.809  -6.463  0.00  0.00     0.168 HD
BRANCH  13  15
ATOM     15  C   UNL d   1      26.167 -10.582  -6.673  0.00  0.00     0.035 A 
ATOM     16  C   UNL d   1      26.504 -10.435  -8.028  0.00  0.00     0.029 A 
ATOM     17  C   UNL d   1      27.484 -11.264  -8.615  0.00  0.00     0.004 A 
ATOM     18  C   UNL d   1      28.163 -12.214  -7.850  0.00  0.00     0.024 A 
ATOM     19  C   UNL d   1      27.812 -12.379  -6.518  0.00  0.00     0.036 A 
ATOM     20 CL   UNL d   1      28.583 -13.586  -5.562  0.00  0.00    -0.084 Cl
ATOM     21  C   UNL d   1      26.811 -11.593  -5.949  0.00  0.00     0.053 A 
ENDBRANCH  13  15
ENDBRANCH  11  13
ENDBRANCH   9  11
ENDBRANCH   8   9
ENDBRANCH   4   7
BRANCH   6  22
ATOM     22  O   UNL d   1      25.406 -15.595  -4.077  0.00  0.00    -0.353 OA
ATOM     23  C   UNL d   1      25.902 -15.578  -5.404  0.00  0.00     0.210 C 
ENDBRANCH   6  22
BRANCH   1  24
ATOM     24  O   UNL d   1      26.842 -16.583  -1.545  0.00  0.00    -0.272 OA
BRANCH  24  25
ATOM     25  C   UNL d   1      26.314 -17.004  -0.325  0.00  0.00     0.298 C 
ATOM     26  O   UNL d   1      26.972 -17.242   0.690  0.00  0.00    -0.259 OA
BRANCH  25  27
ATOM     27  C   UNL d   1      24.849 -17.356  -0.438  0.00  0.00     0.040 A 
ATOM     28  C   UNL d   1      23.897 -16.349  -0.697  0.00  0.00     0.020 A 
ATOM     29  C   UNL d   1      22.535 -16.661  -0.867  0.00  0.00     0.038 A 
ATOM     30  C   UNL d   1      22.108 -17.988  -0.831  0.00  0.00     0.068 A 
ATOM     31  C   UNL d   1      23.036 -18.980  -0.508  0.00  0.00     0.038 A 
ATOM     32  C   UNL d   1      24.390 -18.665  -0.280  0.00  0.00     0.020 A 
BRANCH  30  33
ATOM     33  O   UNL d   1      20.821 -18.222  -1.237  0.00  0.00    -0.351 OA
BRANCH  33  34
ATOM     34  C   UNL d   1      20.216 -19.433  -0.775  0.00  0.00     0.175 C 
BRANCH  34  35
ATOM     35  C   UNL d   1      20.305 -19.495   0.751  0.00  0.00     0.026 C 
BRANCH  35  36
ATOM     36  C   UNL d   1      19.255 -20.448   1.325  0.00  0.00    -0.002 C 
ATOM     37  C   UNL d   1      18.239 -20.853   0.270  0.00  0.00     0.005 C 
ENDBRANCH  35  36
ENDBRANCH  34  35
ENDBRANCH  33  34
ENDBRANCH  30  33
ENDBRANCH  25  27
ENDBRANCH  24  25
ENDBRANCH   1  24
TORSDOF 13
ENDMDL
