MODEL 1
REMARK VINA RESULT:    -9.154      0.000      0.000
REMARK INTER + INTRA:         -16.353
REMARK INTER:                 -12.733
REMARK INTRA:                  -3.620
REMARK CONF_INDEPENDENT:        3.580
REMARK UNBOUND:                -3.620
REMARK  12 active torsions:
REMARK  status: ('A' for Active; 'I' for Inactive)
REMARK    1  A    between atoms: C_2  and  O_3 
REMARK    2  A    between atoms: O_3  and  C_4 
REMARK    3  A    between atoms: C_4  and  C_6 
REMARK    4  A    between atoms: C_7  and  C_8 
REMARK    5  A    between atoms: C_11  and  O_12 
REMARK    6  A    between atoms: C_14  and  O_15 
REMARK    7  A    between atoms: C_20  and  N_21 
REMARK    8  A    between atoms: N_21  and  C_22 
REMARK    9  A    between atoms: C_22  and  N_24 
REMARK       I    between atoms: N_24  and  C_25 
REMARK   10  A    between atoms: C_25  and  C_27 
REMARK   11  A    between atoms: C_27  and  N_28 
REMARK   12  A    between atoms: N_28  and  C_29 
ROOT
ATOM      1  C   UNL d   1      30.002 -16.941  -1.136  0.00  0.00     0.085 A 
ATOM      2  C   UNL d   1      29.635 -16.938  -2.532  0.00  0.00    -0.000 A 
ATOM      3  C   UNL d   1      30.364 -17.849  -3.268  0.00  0.00     0.065 A 
ATOM      4  S   UNL d   1      31.518 -18.667  -2.275  0.00  0.00    -0.082 SA
ATOM      5  C   UNL d   1      31.011 -17.847  -0.857  0.00  0.00     0.093 A 
ENDROOT
BRANCH   5   6
ATOM      6  N   UNL d   1      31.697 -18.177   0.329  0.00  0.00    -0.326 N 
ATOM      7  H   UNL d   1      31.329 -18.988   0.818  0.00  0.00     0.169 HD
BRANCH   6   8
ATOM      8  C   UNL d   1      32.532 -17.284   1.006  0.00  0.00     0.179 C 
ATOM      9  S   UNL d   1      34.133 -16.980   0.586  0.00  0.00    -0.040 SA
BRANCH   8  10
ATOM     10  N   UNL d   1      31.908 -16.482   1.958  0.00  0.00    -0.302 N 
ATOM     11  C   UNL d   1      32.282 -15.143   2.113  0.00  0.00     0.249 C 
ATOM     12  O   UNL d   1      33.437 -14.714   2.153  0.00  0.00    -0.271 OA
ATOM     13  H   UNL d   1      30.925 -16.709   2.063  0.00  0.00     0.171 HD
BRANCH  11  14
ATOM     14  C   UNL d   1      31.184 -14.142   2.368  0.00  0.00     0.335 C 
BRANCH  14  15
ATOM     15  N   UNL d   1      29.877 -14.822   2.772  0.00  0.00    -0.063 N 
ATOM     16  H   UNL d   1      30.082 -15.478   3.545  0.00  0.00     0.278 HD
ATOM     17  H   UNL d   1      29.635 -15.481   2.011  0.00  0.00     0.278 HD
BRANCH  15  18
ATOM     18  C   UNL d   1      28.717 -13.935   3.146  0.00  0.00     0.186 C 
ATOM     19  C   UNL d   1      27.883 -14.551   4.280  0.00  0.00     0.033 C 
ATOM     20  C   UNL d   1      28.423 -14.251   5.680  0.00  0.00     0.002 C 
ATOM     21  C   UNL d   1      27.747 -13.013   6.247  0.00  0.00     0.000 C 
ATOM     22  C   UNL d   1      28.194 -11.692   5.626  0.00  0.00     0.000 C 
ATOM     23  C   UNL d   1      28.192 -11.629   4.096  0.00  0.00     0.002 C 
ATOM     24  C   UNL d   1      29.254 -12.529   3.456  0.00  0.00     0.033 C 
ENDBRANCH  15  18
ENDBRANCH  14  15
ENDBRANCH  11  14
ENDBRANCH   8  10
ENDBRANCH   6   8
ENDBRANCH   5   6
BRANCH   1  25
ATOM     25  C   UNL d   1      29.418 -16.023  -0.176  0.00  0.00     0.297 C 
ATOM     26  O   UNL d   1      29.839 -14.866  -0.050  0.00  0.00    -0.259 OA
BRANCH  25  27
ATOM     27  O   UNL d   1      28.416 -16.582   0.558  0.00  0.00    -0.318 OA
BRANCH  27  28
ATOM     28  C   UNL d   1      27.911 -17.835   0.070  0.00  0.00     0.174 C 
ATOM     29  C   UNL d   1      26.395 -17.805   0.046  0.00  0.00     0.034 C 
ENDBRANCH  27  28
ENDBRANCH  25  27
ENDBRANCH   1  25
BRANCH   2  30
ATOM     30  C   UNL d   1      28.576 -16.096  -3.079  0.00  0.00    -0.021 A 
ATOM     31  C   UNL d   1      27.380 -15.925  -2.372  0.00  0.00     0.015 A 
ATOM     32  C   UNL d   1      26.248 -15.431  -3.021  0.00  0.00     0.040 A 
ATOM     33  C   UNL d   1      26.318 -15.001  -4.353  0.00  0.00     0.101 A 
ATOM     34  C   UNL d   1      27.525 -15.160  -5.061  0.00  0.00     0.102 A 
ATOM     35  C   UNL d   1      28.643 -15.703  -4.414  0.00  0.00     0.052 A 
BRANCH  33  36
ATOM     36  O   UNL d   1      25.146 -14.454  -4.816  0.00  0.00    -0.353 OA
ATOM     37  C   UNL d   1      24.370 -13.700  -3.887  0.00  0.00     0.210 C 
ENDBRANCH  33  36
BRANCH  34  38
ATOM     38  O   UNL d   1      27.543 -14.825  -6.385  0.00  0.00    -0.353 OA
ATOM     39  C   UNL d   1      28.681 -14.158  -6.898  0.00  0.00     0.210 C 
ENDBRANCH  34  38
ENDBRANCH   2  30
TORSDOF 12
ENDMDL
MODEL 2
REMARK VINA RESULT:    -8.805      1.909      2.941
REMARK INTER + INTRA:         -16.408
REMARK INTER:                 -12.385
REMARK INTRA:                  -4.023
REMARK CONF_INDEPENDENT:        3.580
REMARK UNBOUND:                -4.023
REMARK  12 active torsions:
REMARK  status: ('A' for Active; 'I' for Inactive)
REMARK    1  A    between atoms: C_2  and  O_3 
REMARK    2  A    between atoms: O_3  and  C_4 
REMARK    3  A    between atoms: C_4  and  C_6 
REMARK    4  A    between atoms: C_7  and  C_8 
REMARK    5  A    between atoms: C_11  and  O_12 
REMARK    6  A    between atoms: C_14  and  O_15 
REMARK    7  A    between atoms: C_20  and  N_21 
REMARK    8  A    between atoms: N_21  and  C_22 
REMARK    9  A    between atoms: C_22  and  N_24 
REMARK       I    between atoms: N_24  and  C_25 
REMARK   10  A    between atoms: C_25  and  C_27 
REMARK   11  A    between atoms: C_27  and  N_28 
REMARK   12  A    between atoms: N_28  and  C_29 
ROOT
ATOM      1  C   UNL d   1      29.263 -15.888  -0.269  0.00  0.00     0.085 A 
ATOM      2  C   UNL d   1      28.353 -16.449  -1.239  0.00  0.00    -0.000 A 
ATOM      3  C   UNL d   1      29.012 -17.050  -2.291  0.00  0.00     0.065 A 
ATOM      4  S   UNL d   1      30.725 -16.893  -2.120  0.00  0.00    -0.082 SA
ATOM      5  C   UNL d   1      30.589 -16.070  -0.621  0.00  0.00     0.093 A 
ENDROOT
BRANCH   5   6
ATOM      6  N   UNL d   1      31.800 -15.683  -0.014  0.00  0.00    -0.326 N 
ATOM      7  H   UNL d   1      32.394 -15.097  -0.593  0.00  0.00     0.169 HD
BRANCH   6   8
ATOM      8  C   UNL d   1      32.345 -16.336   1.095  0.00  0.00     0.179 C 
ATOM      9  S   UNL d   1      33.676 -17.364   1.031  0.00  0.00    -0.040 SA
BRANCH   8  10
ATOM     10  N   UNL d   1      31.843 -15.939   2.332  0.00  0.00    -0.302 N 
ATOM     11  C   UNL d   1      32.144 -14.673   2.845  0.00  0.00     0.249 C 
ATOM     12  O   UNL d   1      33.254 -14.139   2.850  0.00  0.00    -0.271 OA
ATOM     13  H   UNL d   1      30.913 -16.305   2.502  0.00  0.00     0.171 HD
BRANCH  11  14
ATOM     14  C   UNL d   1      31.040 -13.936   3.561  0.00  0.00     0.335 C 
BRANCH  14  15
ATOM     15  N   UNL d   1      29.819 -14.825   3.792  0.00  0.00    -0.063 N 
ATOM     16  H   UNL d   1      30.135 -15.686   4.271  0.00  0.00     0.278 HD
ATOM     17  H   UNL d   1      29.543 -15.202   2.868  0.00  0.00     0.278 HD
BRANCH  15  18
ATOM     18  C   UNL d   1      28.652 -14.226   4.532  0.00  0.00     0.186 C 
ATOM     19  C   UNL d   1      28.535 -14.798   5.954  0.00  0.00     0.033 C 
ATOM     20  C   UNL d   1      29.413 -14.084   6.983  0.00  0.00     0.002 C 
ATOM     21  C   UNL d   1      28.623 -12.985   7.674  0.00  0.00     0.000 C 
ATOM     22  C   UNL d   1      28.356 -11.748   6.819  0.00  0.00     0.000 C 
ATOM     23  C   UNL d   1      27.780 -12.003   5.423  0.00  0.00     0.002 C 
ATOM     24  C   UNL d   1      28.771 -12.695   4.482  0.00  0.00     0.033 C 
ENDBRANCH  15  18
ENDBRANCH  14  15
ENDBRANCH  11  14
ENDBRANCH   8  10
ENDBRANCH   6   8
ENDBRANCH   5   6
BRANCH   1  25
ATOM     25  C   UNL d   1      28.803 -15.148   0.892  0.00  0.00     0.297 C 
ATOM     26  O   UNL d   1      27.879 -15.568   1.601  0.00  0.00    -0.259 OA
BRANCH  25  27
ATOM     27  O   UNL d   1      29.465 -13.972   1.074  0.00  0.00    -0.318 OA
BRANCH  27  28
ATOM     28  C   UNL d   1      28.787 -12.797   0.604  0.00  0.00     0.174 C 
ATOM     29  C   UNL d   1      27.377 -12.758   1.161  0.00  0.00     0.034 C 
ENDBRANCH  27  28
ENDBRANCH  25  27
ENDBRANCH   1  25
BRANCH   2  30
ATOM     30  C   UNL d   1      26.902 -16.418  -1.087  0.00  0.00    -0.021 A 
ATOM     31  C   UNL d   1      26.246 -17.455  -0.412  0.00  0.00     0.015 A 
ATOM     32  C   UNL d   1      24.868 -17.625  -0.562  0.00  0.00     0.040 A 
ATOM     33  C   UNL d   1      24.111 -16.705  -1.297  0.00  0.00     0.101 A 
ATOM     34  C   UNL d   1      24.769 -15.653  -1.964  0.00  0.00     0.102 A 
ATOM     35  C   UNL d   1      26.158 -15.520  -1.848  0.00  0.00     0.052 A 
BRANCH  33  36
ATOM     36  O   UNL d   1      22.760 -16.959  -1.270  0.00  0.00    -0.353 OA
ATOM     37  C   UNL d   1      22.316 -18.017  -0.425  0.00  0.00     0.210 C 
ENDBRANCH  33  36
BRANCH  34  38
ATOM     38  O   UNL d   1      24.022 -14.826  -2.755  0.00  0.00    -0.353 OA
ATOM     39  C   UNL d   1      24.693 -13.880  -3.566  0.00  0.00     0.210 C 
ENDBRANCH  34  38
ENDBRANCH   2  30
TORSDOF 12
ENDMDL
MODEL 3
REMARK VINA RESULT:    -8.738      3.236      7.192
REMARK INTER + INTRA:         -15.682
REMARK INTER:                 -12.317
REMARK INTRA:                  -3.365
REMARK CONF_INDEPENDENT:        3.580
REMARK UNBOUND:                -3.365
REMARK  12 active torsions:
REMARK  status: ('A' for Active; 'I' for Inactive)
REMARK    1  A    between atoms: C_2  and  O_3 
REMARK    2  A    between atoms: O_3  and  C_4 
REMARK    3  A    between atoms: C_4  and  C_6 
REMARK    4  A    between atoms: C_7  and  C_8 
REMARK    5  A    between atoms: C_11  and  O_12 
REMARK    6  A    between atoms: C_14  and  O_15 
REMARK    7  A    between atoms: C_20  and  N_21 
REMARK    8  A    between atoms: N_21  and  C_22 
REMARK    9  A    between atoms: C_22  and  N_24 
REMARK       I    between atoms: N_24  and  C_25 
REMARK   10  A    between atoms: C_25  and  C_27 
REMARK   11  A    between atoms: C_27  and  N_28 
REMARK   12  A    between atoms: N_28  and  C_29 
ROOT
ATOM      1  C   UNL d   1      30.052 -12.955   2.855  0.00  0.00     0.085 A 
ATOM      2  C   UNL d   1      29.894 -11.521   2.795  0.00  0.00    -0.000 A 
ATOM      3  C   UNL d   1      31.105 -10.861   2.760  0.00  0.00     0.065 A 
ATOM      4  S   UNL d   1      32.422 -11.976   2.845  0.00  0.00    -0.082 SA
ATOM      5  C   UNL d   1      31.382 -13.339   2.877  0.00  0.00     0.093 A 
ENDROOT
BRANCH   5   6
ATOM      6  N   UNL d   1      32.011 -14.598   2.956  0.00  0.00    -0.326 N 
ATOM      7  H   UNL d   1      32.788 -14.641   3.609  0.00  0.00     0.169 HD
BRANCH   6   8
ATOM      8  C   UNL d   1      31.877 -15.584   1.975  0.00  0.00     0.179 C 
ATOM      9  S   UNL d   1      32.837 -16.963   1.879  0.00  0.00    -0.040 SA
BRANCH   8  10
ATOM     10  N   UNL d   1      30.752 -15.473   1.161  0.00  0.00    -0.302 N 
ATOM     11  C   UNL d   1      30.780 -15.944  -0.155  0.00  0.00     0.249 C 
ATOM     12  O   UNL d   1      31.687 -15.764  -0.970  0.00  0.00    -0.271 OA
ATOM     13  H   UNL d   1      29.890 -15.592   1.683  0.00  0.00     0.171 HD
BRANCH  11  14
ATOM     14  C   UNL d   1      29.544 -16.638  -0.669  0.00  0.00     0.335 C 
BRANCH  14  15
ATOM     15  N   UNL d   1      28.600 -17.033   0.465  0.00  0.00    -0.063 N 
ATOM     16  H   UNL d   1      29.008 -16.695   1.354  0.00  0.00     0.278 HD
ATOM     17  H   UNL d   1      28.686 -18.057   0.584  0.00  0.00     0.278 HD
BRANCH  15  18
ATOM     18  C   UNL d   1      27.163 -16.592   0.361  0.00  0.00     0.186 C 
ATOM     19  C   UNL d   1      26.976 -15.547  -0.751  0.00  0.00     0.033 C 
ATOM     20  C   UNL d   1      26.777 -16.152  -2.142  0.00  0.00     0.002 C 
ATOM     21  C   UNL d   1      25.295 -16.308  -2.439  0.00  0.00     0.000 C 
ATOM     22  C   UNL d   1      24.600 -17.438  -1.683  0.00  0.00     0.000 C 
ATOM     23  C   UNL d   1      24.835 -17.483  -0.170  0.00  0.00     0.002 C 
ATOM     24  C   UNL d   1      26.277 -17.838   0.205  0.00  0.00     0.033 C 
ENDBRANCH  15  18
ENDBRANCH  14  15
ENDBRANCH  11  14
ENDBRANCH   8  10
ENDBRANCH   6   8
ENDBRANCH   5   6
BRANCH   1  25
ATOM     25  C   UNL d   1      28.922 -13.858   2.966  0.00  0.00     0.297 C 
ATOM     26  O   UNL d   1      28.461 -14.439   1.975  0.00  0.00    -0.259 OA
BRANCH  25  27
ATOM     27  O   UNL d   1      28.436 -13.954   4.234  0.00  0.00    -0.318 OA
BRANCH  27  28
ATOM     28  C   UNL d   1      29.165 -14.822   5.116  0.00  0.00     0.174 C 
ATOM     29  C   UNL d   1      28.896 -14.435   6.558  0.00  0.00     0.034 C 
ENDBRANCH  27  28
ENDBRANCH  25  27
ENDBRANCH   1  25
BRANCH   2  30
ATOM     30  C   UNL d   1      28.595 -10.861   2.731  0.00  0.00    -0.021 A 
ATOM     31  C   UNL d   1      27.715 -11.146   1.680  0.00  0.00     0.015 A 
ATOM     32  C   UNL d   1      26.648 -10.287   1.409  0.00  0.00     0.040 A 
ATOM     33  C   UNL d   1      26.380  -9.195   2.243  0.00  0.00     0.101 A 
ATOM     34  C   UNL d   1      27.257  -8.916   3.309  0.00  0.00     0.102 A 
ATOM     35  C   UNL d   1      28.353  -9.756   3.544  0.00  0.00     0.052 A 
BRANCH  33  36
ATOM     36  O   UNL d   1      25.243  -8.505   1.897  0.00  0.00    -0.353 OA
ATOM     37  C   UNL d   1      25.234  -7.865   0.624  0.00  0.00     0.210 C 
ENDBRANCH  33  36
BRANCH  34  38
ATOM     38  O   UNL d   1      27.032  -7.789   4.050  0.00  0.00    -0.353 OA
ATOM     39  C   UNL d   1      27.372  -6.534   3.490  0.00  0.00     0.210 C 
ENDBRANCH  34  38
ENDBRANCH   2  30
TORSDOF 12
ENDMDL
MODEL 4
REMARK VINA RESULT:    -8.652      3.547      5.749
REMARK INTER + INTRA:         -16.265
REMARK INTER:                 -12.231
REMARK INTRA:                  -4.033
REMARK CONF_INDEPENDENT:        3.580
REMARK UNBOUND:                -4.033
REMARK  12 active torsions:
REMARK  status: ('A' for Active; 'I' for Inactive)
REMARK    1  A    between atoms: C_2  and  O_3 
REMARK    2  A    between atoms: O_3  and  C_4 
REMARK    3  A    between atoms: C_4  and  C_6 
REMARK    4  A    between atoms: C_7  and  C_8 
REMARK    5  A    between atoms: C_11  and  O_12 
REMARK    6  A    between atoms: C_14  and  O_15 
REMARK    7  A    between atoms: C_20  and  N_21 
REMARK    8  A    between atoms: N_21  and  C_22 
REMARK    9  A    between atoms: C_22  and  N_24 
REMARK       I    between atoms: N_24  and  C_25 
REMARK   10  A    between atoms: C_25  and  C_27 
REMARK   11  A    between atoms: C_27  and  N_28 
REMARK   12  A    between atoms: N_28  and  C_29 
ROOT
ATOM      1  C   UNL d   1      29.383 -15.110  -5.999  0.00  0.00     0.085 A 
ATOM      2  C   UNL d   1      29.725 -13.948  -6.784  0.00  0.00    -0.000 A 
ATOM      3  C   UNL d   1      30.867 -14.138  -7.533  0.00  0.00     0.065 A 
ATOM      4  S   UNL d   1      31.542 -15.703  -7.249  0.00  0.00    -0.082 SA
ATOM      5  C   UNL d   1      30.286 -16.146  -6.168  0.00  0.00     0.093 A 
ENDROOT
BRANCH   5   6
ATOM      6  N   UNL d   1      30.377 -17.435  -5.605  0.00  0.00    -0.326 N 
ATOM      7  H   UNL d   1      29.913 -18.162  -6.140  0.00  0.00     0.169 HD
BRANCH   6   8
ATOM      8  C   UNL d   1      30.705 -17.664  -4.266  0.00  0.00     0.179 C 
ATOM      9  S   UNL d   1      32.261 -17.984  -3.712  0.00  0.00    -0.040 SA
BRANCH   8  10
ATOM     10  N   UNL d   1      29.686 -17.420  -3.348  0.00  0.00    -0.302 N 
ATOM     11  C   UNL d   1      29.944 -17.466  -1.974  0.00  0.00     0.249 C 
ATOM     12  O   UNL d   1      30.597 -18.332  -1.389  0.00  0.00    -0.271 OA
ATOM     13  H   UNL d   1      29.034 -16.717  -3.679  0.00  0.00     0.171 HD
BRANCH  11  14
ATOM     14  C   UNL d   1      29.273 -16.430  -1.109  0.00  0.00     0.335 C 
BRANCH  14  15
ATOM     15  N   UNL d   1      28.828 -17.010   0.233  0.00  0.00    -0.063 N 
ATOM     16  H   UNL d   1      29.398 -16.571   0.976  0.00  0.00     0.278 HD
ATOM     17  H   UNL d   1      29.174 -17.985   0.267  0.00  0.00     0.278 HD
BRANCH  15  18
ATOM     18  C   UNL d   1      27.366 -16.913   0.583  0.00  0.00     0.186 C 
ATOM     19  C   UNL d   1      26.711 -15.688  -0.074  0.00  0.00     0.033 C 
ATOM     20  C   UNL d   1      26.239 -15.934  -1.509  0.00  0.00     0.002 C 
ATOM     21  C   UNL d   1      24.779 -16.355  -1.515  0.00  0.00     0.000 C 
ATOM     22  C   UNL d   1      24.515 -17.777  -1.024  0.00  0.00     0.000 C 
ATOM     23  C   UNL d   1      25.161 -18.162   0.310  0.00  0.00     0.002 C 
ATOM     24  C   UNL d   1      26.689 -18.248   0.235  0.00  0.00     0.033 C 
ENDBRANCH  15  18
ENDBRANCH  14  15
ENDBRANCH  11  14
ENDBRANCH   8  10
ENDBRANCH   6   8
ENDBRANCH   5   6
BRANCH   1  25
ATOM     25  C   UNL d   1      28.258 -15.126  -5.083  0.00  0.00     0.297 C 
ATOM     26  O   UNL d   1      28.418 -14.986  -3.863  0.00  0.00    -0.259 OA
BRANCH  25  27
ATOM     27  O   UNL d   1      27.065 -15.340  -5.703  0.00  0.00    -0.318 OA
BRANCH  27  28
ATOM     28  C   UNL d   1      25.903 -15.254  -4.863  0.00  0.00     0.174 C 
ATOM     29  C   UNL d   1      25.581 -13.801  -4.575  0.00  0.00     0.034 C 
ENDBRANCH  27  28
ENDBRANCH  25  27
ENDBRANCH   1  25
BRANCH   2  30
ATOM     30  C   UNL d   1      28.918 -12.732  -6.808  0.00  0.00    -0.021 A 
ATOM     31  C   UNL d   1      28.670 -12.031  -5.622  0.00  0.00     0.015 A 
ATOM     32  C   UNL d   1      27.635 -11.096  -5.566  0.00  0.00     0.040 A 
ATOM     33  C   UNL d   1      26.905 -10.769  -6.715  0.00  0.00     0.101 A 
ATOM     34  C   UNL d   1      27.163 -11.464  -7.912  0.00  0.00     0.102 A 
ATOM     35  C   UNL d   1      28.171 -12.436  -7.946  0.00  0.00     0.052 A 
BRANCH  33  36
ATOM     36  O   UNL d   1      25.988  -9.764  -6.516  0.00  0.00    -0.353 OA
ATOM     37  C   UNL d   1      25.493  -9.591  -5.191  0.00  0.00     0.210 C 
ENDBRANCH  33  36
BRANCH  34  38
ATOM     38  O   UNL d   1      26.372 -11.197  -8.995  0.00  0.00    -0.353 OA
ATOM     39  C   UNL d   1      26.804 -11.634 -10.270  0.00  0.00     0.210 C 
ENDBRANCH  34  38
ENDBRANCH   2  30
TORSDOF 12
ENDMDL
MODEL 5
REMARK VINA RESULT:    -8.084      3.611      5.976
REMARK INTER + INTRA:         -15.951
REMARK INTER:                 -11.664
REMARK INTRA:                  -4.287
REMARK CONF_INDEPENDENT:        3.580
REMARK UNBOUND:                -4.287
REMARK  12 active torsions:
REMARK  status: ('A' for Active; 'I' for Inactive)
REMARK    1  A    between atoms: C_2  and  O_3 
REMARK    2  A    between atoms: O_3  and  C_4 
REMARK    3  A    between atoms: C_4  and  C_6 
REMARK    4  A    between atoms: C_7  and  C_8 
REMARK    5  A    between atoms: C_11  and  O_12 
REMARK    6  A    between atoms: C_14  and  O_15 
REMARK    7  A    between atoms: C_20  and  N_21 
REMARK    8  A    between atoms: N_21  and  C_22 
REMARK    9  A    between atoms: C_22  and  N_24 
REMARK       I    between atoms: N_24  and  C_25 
REMARK   10  A    between atoms: C_25  and  C_27 
REMARK   11  A    between atoms: C_27  and  N_28 
REMARK   12  A    between atoms: N_28  and  C_29 
ROOT
ATOM      1  C   UNL d   1      28.937 -14.190  -4.875  0.00  0.00     0.085 A 
ATOM      2  C   UNL d   1      28.852 -12.818  -4.435  0.00  0.00    -0.000 A 
ATOM      3  C   UNL d   1      30.064 -12.331  -3.993  0.00  0.00     0.065 A 
ATOM      4  S   UNL d   1      31.286 -13.551  -4.070  0.00  0.00    -0.082 SA
ATOM      5  C   UNL d   1      30.214 -14.709  -4.740  0.00  0.00     0.093 A 
ENDROOT
BRANCH   5   6
ATOM      6  N   UNL d   1      30.761 -15.980  -5.008  0.00  0.00    -0.326 N 
ATOM      7  H   UNL d   1      31.362 -16.016  -5.826  0.00  0.00     0.169 HD
BRANCH   6   8
ATOM      8  C   UNL d   1      30.243 -17.165  -4.478  0.00  0.00     0.179 C 
ATOM      9  S   UNL d   1      30.784 -18.704  -4.890  0.00  0.00    -0.040 SA
BRANCH   8  10
ATOM     10  N   UNL d   1      29.360 -17.010  -3.412  0.00  0.00    -0.302 N 
ATOM     11  C   UNL d   1      29.787 -17.237  -2.099  0.00  0.00     0.249 C 
ATOM     12  O   UNL d   1      30.470 -18.188  -1.714  0.00  0.00    -0.271 OA
ATOM     13  H   UNL d   1      28.704 -16.253  -3.567  0.00  0.00     0.171 HD
BRANCH  11  14
ATOM     14  C   UNL d   1      29.277 -16.300  -1.033  0.00  0.00     0.335 C 
BRANCH  14  15
ATOM     15  N   UNL d   1      28.859 -17.049   0.231  0.00  0.00    -0.063 N 
ATOM     16  H   UNL d   1      29.448 -16.712   1.012  0.00  0.00     0.278 HD
ATOM     17  H   UNL d   1      29.201 -18.021   0.130  0.00  0.00     0.278 HD
BRANCH  15  18
ATOM     18  C   UNL d   1      27.406 -16.995   0.624  0.00  0.00     0.186 C 
ATOM     19  C   UNL d   1      26.740 -15.698   0.137  0.00  0.00     0.033 C 
ATOM     20  C   UNL d   1      26.234 -15.767  -1.306  0.00  0.00     0.002 C 
ATOM     21  C   UNL d   1      24.773 -16.183  -1.330  0.00  0.00     0.000 C 
ATOM     22  C   UNL d   1      24.516 -17.654  -1.010  0.00  0.00     0.000 C 
ATOM     23  C   UNL d   1      25.191 -18.200   0.252  0.00  0.00     0.002 C 
ATOM     24  C   UNL d   1      26.716 -18.277   0.131  0.00  0.00     0.033 C 
ENDBRANCH  15  18
ENDBRANCH  14  15
ENDBRANCH  11  14
ENDBRANCH   8  10
ENDBRANCH   6   8
ENDBRANCH   5   6
BRANCH   1  25
ATOM     25  C   UNL d   1      27.777 -14.938  -5.322  0.00  0.00     0.297 C 
ATOM     26  O   UNL d   1      27.601 -15.200  -6.519  0.00  0.00    -0.259 OA
BRANCH  25  27
ATOM     27  O   UNL d   1      26.930 -15.270  -4.309  0.00  0.00    -0.318 OA
BRANCH  27  28
ATOM     28  C   UNL d   1      25.530 -15.199  -4.619  0.00  0.00     0.174 C 
ATOM     29  C   UNL d   1      24.910 -13.998  -3.931  0.00  0.00     0.034 C 
ENDBRANCH  27  28
ENDBRANCH  25  27
ENDBRANCH   1  25
BRANCH   2  30
ATOM     30  C   UNL d   1      27.624 -12.031  -4.502  0.00  0.00    -0.021 A 
ATOM     31  C   UNL d   1      27.019 -11.780  -5.740  0.00  0.00     0.015 A 
ATOM     32  C   UNL d   1      26.074 -10.761  -5.862  0.00  0.00     0.040 A 
ATOM     33  C   UNL d   1      25.640 -10.050  -4.736  0.00  0.00     0.101 A 
ATOM     34  C   UNL d   1      26.238 -10.311  -3.488  0.00  0.00     0.102 A 
ATOM     35  C   UNL d   1      27.222 -11.304  -3.385  0.00  0.00     0.052 A 
BRANCH  33  36
ATOM     36  O   UNL d   1      24.640  -9.148  -5.008  0.00  0.00    -0.353 OA
ATOM     37  C   UNL d   1      24.940  -8.104  -5.931  0.00  0.00     0.210 C 
ENDBRANCH  33  36
BRANCH  34  38
ATOM     38  O   UNL d   1      25.870  -9.539  -2.423  0.00  0.00    -0.353 OA
ATOM     39  C   UNL d   1      26.883  -8.891  -1.676  0.00  0.00     0.210 C 
ENDBRANCH  34  38
ENDBRANCH   2  30
TORSDOF 12
ENDMDL
MODEL 6
REMARK VINA RESULT:    -7.499      1.192      1.901
REMARK INTER + INTRA:         -16.333
REMARK INTER:                 -11.078
REMARK INTRA:                  -5.255
REMARK CONF_INDEPENDENT:        3.580
REMARK UNBOUND:                -5.255
REMARK  12 active torsions:
REMARK  status: ('A' for Active; 'I' for Inactive)
REMARK    1  A    between atoms: C_2  and  O_3 
REMARK    2  A    between atoms: O_3  and  C_4 
REMARK    3  A    between atoms: C_4  and  C_6 
REMARK    4  A    between atoms: C_7  and  C_8 
REMARK    5  A    between atoms: C_11  and  O_12 
REMARK    6  A    between atoms: C_14  and  O_15 
REMARK    7  A    between atoms: C_20  and  N_21 
REMARK    8  A    between atoms: N_21  and  C_22 
REMARK    9  A    between atoms: C_22  and  N_24 
REMARK       I    between atoms: N_24  and  C_25 
REMARK   10  A    between atoms: C_25  and  C_27 
REMARK   11  A    between atoms: C_27  and  N_28 
REMARK   12  A    between atoms: N_28  and  C_29 
ROOT
ATOM      1  C   UNL d   1      29.637 -16.449  -1.511  0.00  0.00     0.085 A 
ATOM      2  C   UNL d   1      29.227 -16.413  -2.894  0.00  0.00    -0.000 A 
ATOM      3  C   UNL d   1      29.932 -17.306  -3.674  0.00  0.00     0.065 A 
ATOM      4  S   UNL d   1      31.114 -18.149  -2.737  0.00  0.00    -0.082 SA
ATOM      5  C   UNL d   1      30.653 -17.362  -1.285  0.00  0.00     0.093 A 
ENDROOT
BRANCH   5   6
ATOM      6  N   UNL d   1      31.375 -17.721  -0.128  0.00  0.00    -0.326 N 
ATOM      7  H   UNL d   1      31.073 -18.589   0.304  0.00  0.00     0.169 HD
BRANCH   6   8
ATOM      8  C   UNL d   1      32.148 -16.816   0.604  0.00  0.00     0.179 C 
ATOM      9  S   UNL d   1      33.630 -16.204   0.093  0.00  0.00    -0.040 SA
BRANCH   8  10
ATOM     10  N   UNL d   1      31.531 -16.272   1.728  0.00  0.00    -0.302 N 
ATOM     11  C   UNL d   1      32.003 -15.081   2.288  0.00  0.00     0.249 C 
ATOM     12  O   UNL d   1      33.184 -14.796   2.497  0.00  0.00    -0.271 OA
ATOM     13  H   UNL d   1      30.528 -16.423   1.725  0.00  0.00     0.171 HD
BRANCH  11  14
ATOM     14  C   UNL d   1      30.976 -14.097   2.790  0.00  0.00     0.335 C 
BRANCH  14  15
ATOM     15  N   UNL d   1      29.553 -14.539   2.453  0.00  0.00    -0.063 N 
ATOM     16  H   UNL d   1      29.526 -15.573   2.469  0.00  0.00     0.278 HD
ATOM     17  H   UNL d   1      29.412 -14.352   1.444  0.00  0.00     0.278 HD
BRANCH  15  18
ATOM     18  C   UNL d   1      28.434 -13.984   3.295  0.00  0.00     0.186 C 
ATOM     19  C   UNL d   1      28.213 -14.827   4.561  0.00  0.00     0.033 C 
ATOM     20  C   UNL d   1      29.131 -14.447   5.725  0.00  0.00     0.002 C 
ATOM     21  C   UNL d   1      28.442 -13.438   6.629  0.00  0.00     0.000 C 
ATOM     22  C   UNL d   1      28.334 -12.027   6.055  0.00  0.00     0.000 C 
ATOM     23  C   UNL d   1      27.778 -11.916   4.633  0.00  0.00     0.002 C 
ATOM     24  C   UNL d   1      28.718 -12.499   3.573  0.00  0.00     0.033 C 
ENDBRANCH  15  18
ENDBRANCH  14  15
ENDBRANCH  11  14
ENDBRANCH   8  10
ENDBRANCH   6   8
ENDBRANCH   5   6
BRANCH   1  25
ATOM     25  C   UNL d   1      29.085 -15.554  -0.512  0.00  0.00     0.297 C 
ATOM     26  O   UNL d   1      29.061 -14.328  -0.686  0.00  0.00    -0.259 OA
BRANCH  25  27
ATOM     27  O   UNL d   1      28.647 -16.201   0.603  0.00  0.00    -0.318 OA
BRANCH  27  28
ATOM     28  C   UNL d   1      27.258 -16.566   0.606  0.00  0.00     0.174 C 
ATOM     29  C   UNL d   1      27.108 -18.026   0.225  0.00  0.00     0.034 C 
ENDBRANCH  27  28
ENDBRANCH  25  27
ENDBRANCH   1  25
BRANCH   2  30
ATOM     30  C   UNL d   1      28.154 -15.557  -3.389  0.00  0.00    -0.021 A 
ATOM     31  C   UNL d   1      28.459 -14.375  -4.075  0.00  0.00     0.015 A 
ATOM     32  C   UNL d   1      27.484 -13.390  -4.238  0.00  0.00     0.040 A 
ATOM     33  C   UNL d   1      26.166 -13.611  -3.816  0.00  0.00     0.101 A 
ATOM     34  C   UNL d   1      25.856 -14.806  -3.139  0.00  0.00     0.102 A 
ATOM     35  C   UNL d   1      26.854 -15.769  -2.937  0.00  0.00     0.052 A 
BRANCH  33  36
ATOM     36  O   UNL d   1      25.308 -12.586  -4.134  0.00  0.00    -0.353 OA
ATOM     37  C   UNL d   1      25.879 -11.292  -4.305  0.00  0.00     0.210 C 
ENDBRANCH  33  36
BRANCH  34  38
ATOM     38  O   UNL d   1      24.588 -14.959  -2.651  0.00  0.00    -0.353 OA
ATOM     39  C   UNL d   1      24.360 -15.945  -1.661  0.00  0.00     0.210 C 
ENDBRANCH  34  38
ENDBRANCH   2  30
TORSDOF 12
ENDMDL
MODEL 7
REMARK VINA RESULT:    -7.434      3.332      4.998
REMARK INTER + INTRA:         -16.399
REMARK INTER:                 -11.014
REMARK INTRA:                  -5.385
REMARK CONF_INDEPENDENT:        3.580
REMARK UNBOUND:                -5.385
REMARK  12 active torsions:
REMARK  status: ('A' for Active; 'I' for Inactive)
REMARK    1  A    between atoms: C_2  and  O_3 
REMARK    2  A    between atoms: O_3  and  C_4 
REMARK    3  A    between atoms: C_4  and  C_6 
REMARK    4  A    between atoms: C_7  and  C_8 
REMARK    5  A    between atoms: C_11  and  O_12 
REMARK    6  A    between atoms: C_14  and  O_15 
REMARK    7  A    between atoms: C_20  and  N_21 
REMARK    8  A    between atoms: N_21  and  C_22 
REMARK    9  A    between atoms: C_22  and  N_24 
REMARK       I    between atoms: N_24  and  C_25 
REMARK   10  A    between atoms: C_25  and  C_27 
REMARK   11  A    between atoms: C_27  and  N_28 
REMARK   12  A    between atoms: N_28  and  C_29 
ROOT
ATOM      1  C   UNL d   1      26.679 -14.070  -1.440  0.00  0.00     0.085 A 
ATOM      2  C   UNL d   1      25.638 -14.723  -2.198  0.00  0.00    -0.000 A 
ATOM      3  C   UNL d   1      25.401 -14.103  -3.407  0.00  0.00     0.065 A 
ATOM      4  S   UNL d   1      26.407 -12.711  -3.598  0.00  0.00    -0.082 SA
ATOM      5  C   UNL d   1      27.193 -12.964  -2.095  0.00  0.00     0.093 A 
ENDROOT
BRANCH   5   6
ATOM      6  N   UNL d   1      28.182 -12.022  -1.745  0.00  0.00    -0.326 N 
ATOM      7  H   UNL d   1      28.785 -11.739  -2.512  0.00  0.00     0.169 HD
BRANCH   6   8
ATOM      8  C   UNL d   1      28.583 -11.785  -0.428  0.00  0.00     0.179 C 
ATOM      9  S   UNL d   1      27.808 -10.722   0.623  0.00  0.00    -0.040 SA
BRANCH   8  10
ATOM     10  N   UNL d   1      29.569 -12.637   0.062  0.00  0.00    -0.302 N 
ATOM     11  C   UNL d   1      30.000 -12.533   1.389  0.00  0.00     0.249 C 
ATOM     12  O   UNL d   1      30.265 -11.487   1.985  0.00  0.00    -0.271 OA
ATOM     13  H   UNL d   1      29.504 -13.567  -0.338  0.00  0.00     0.171 HD
BRANCH  11  14
ATOM     14  C   UNL d   1      30.279 -13.818   2.129  0.00  0.00     0.335 C 
BRANCH  14  15
ATOM     15  N   UNL d   1      29.012 -14.648   2.325  0.00  0.00    -0.063 N 
ATOM     16  H   UNL d   1      29.163 -15.573   1.886  0.00  0.00     0.278 HD
ATOM     17  H   UNL d   1      28.291 -14.247   1.698  0.00  0.00     0.278 HD
BRANCH  15  18
ATOM     18  C   UNL d   1      28.506 -14.825   3.732  0.00  0.00     0.186 C 
ATOM     19  C   UNL d   1      29.658 -14.808   4.749  0.00  0.00     0.033 C 
ATOM     20  C   UNL d   1      30.074 -13.404   5.191  0.00  0.00     0.002 C 
ATOM     21  C   UNL d   1      29.335 -13.013   6.461  0.00  0.00     0.000 C 
ATOM     22  C   UNL d   1      27.856 -12.680   6.270  0.00  0.00     0.000 C 
ATOM     23  C   UNL d   1      27.030 -13.699   5.480  0.00  0.00     0.002 C 
ATOM     24  C   UNL d   1      27.419 -13.771   4.000  0.00  0.00     0.033 C 
ENDBRANCH  15  18
ENDBRANCH  14  15
ENDBRANCH  11  14
ENDBRANCH   8  10
ENDBRANCH   6   8
ENDBRANCH   5   6
BRANCH   1  25
ATOM     25  C   UNL d   1      27.060 -14.502  -0.109  0.00  0.00     0.297 C 
ATOM     26  O   UNL d   1      26.393 -14.190   0.887  0.00  0.00    -0.259 OA
BRANCH  25  27
ATOM     27  O   UNL d   1      28.209 -15.232  -0.091  0.00  0.00    -0.318 OA
BRANCH  27  28
ATOM     28  C   UNL d   1      28.715 -15.629  -1.375  0.00  0.00     0.174 C 
ATOM     29  C   UNL d   1      29.447 -16.951  -1.255  0.00  0.00     0.034 C 
ENDBRANCH  27  28
ENDBRANCH  25  27
ENDBRANCH   1  25
BRANCH   2  30
ATOM     30  C   UNL d   1      24.954 -15.930  -1.744  0.00  0.00    -0.021 A 
ATOM     31  C   UNL d   1      23.558 -15.949  -1.645  0.00  0.00     0.015 A 
ATOM     32  C   UNL d   1      22.924 -16.941  -0.894  0.00  0.00     0.040 A 
ATOM     33  C   UNL d   1      23.662 -17.986  -0.324  0.00  0.00     0.101 A 
ATOM     34  C   UNL d   1      25.066 -17.974  -0.436  0.00  0.00     0.102 A 
ATOM     35  C   UNL d   1      25.696 -16.947  -1.149  0.00  0.00     0.052 A 
BRANCH  33  36
ATOM     36  O   UNL d   1      22.884 -18.931   0.300  0.00  0.00    -0.353 OA
ATOM     37  C   UNL d   1      21.529 -19.043  -0.130  0.00  0.00     0.210 C 
ENDBRANCH  33  36
BRANCH  34  38
ATOM     38  O   UNL d   1      25.771 -18.950   0.212  0.00  0.00    -0.353 OA
ATOM     39  C   UNL d   1      27.030 -18.617   0.767  0.00  0.00     0.210 C 
ENDBRANCH  34  38
ENDBRANCH   2  30
TORSDOF 12
ENDMDL
MODEL 8
REMARK VINA RESULT:    -6.472      4.992      8.309
REMARK INTER + INTRA:         -15.572
REMARK INTER:                 -10.051
REMARK INTRA:                  -5.521
REMARK CONF_INDEPENDENT:        3.580
REMARK UNBOUND:                -5.521
REMARK  12 active torsions:
REMARK  status: ('A' for Active; 'I' for Inactive)
REMARK    1  A    between atoms: C_2  and  O_3 
REMARK    2  A    between atoms: O_3  and  C_4 
REMARK    3  A    between atoms: C_4  and  C_6 
REMARK    4  A    between atoms: C_7  and  C_8 
REMARK    5  A    between atoms: C_11  and  O_12 
REMARK    6  A    between atoms: C_14  and  O_15 
REMARK    7  A    between atoms: C_20  and  N_21 
REMARK    8  A    between atoms: N_21  and  C_22 
REMARK    9  A    between atoms: C_22  and  N_24 
REMARK       I    between atoms: N_24  and  C_25 
REMARK   10  A    between atoms: C_25  and  C_27 
REMARK   11  A    between atoms: C_27  and  N_28 
REMARK   12  A    between atoms: N_28  and  C_29 
ROOT
ATOM      1  C   UNL d   1      27.251 -13.821  -4.284  0.00  0.00     0.085 A 
ATOM      2  C   UNL d   1      26.283 -13.809  -3.214  0.00  0.00    -0.000 A 
ATOM      3  C   UNL d   1      25.855 -12.534  -2.907  0.00  0.00     0.065 A 
ATOM      4  S   UNL d   1      26.661 -11.358  -3.884  0.00  0.00    -0.082 SA
ATOM      5  C   UNL d   1      27.540 -12.550  -4.750  0.00  0.00     0.093 A 
ENDROOT
BRANCH   5   6
ATOM      6  N   UNL d   1      28.420 -12.073  -5.742  0.00  0.00    -0.326 N 
ATOM      7  H   UNL d   1      29.015 -11.305  -5.445  0.00  0.00     0.169 HD
BRANCH   6   8
ATOM      8  C   UNL d   1      28.246 -12.324  -7.105  0.00  0.00     0.179 C 
ATOM      9  S   UNL d   1      27.204 -11.460  -8.104  0.00  0.00    -0.040 SA
BRANCH   8  10
ATOM     10  N   UNL d   1      29.145 -13.227  -7.669  0.00  0.00    -0.302 N 
ATOM     11  C   UNL d   1      30.059 -13.914  -6.863  0.00  0.00     0.249 C 
ATOM     12  O   UNL d   1      30.740 -13.424  -5.960  0.00  0.00    -0.271 OA
ATOM     13  H   UNL d   1      28.742 -13.728  -8.453  0.00  0.00     0.171 HD
BRANCH  11  14
ATOM     14  C   UNL d   1      30.324 -15.361  -7.196  0.00  0.00     0.335 C 
BRANCH  14  15
ATOM     15  N   UNL d   1      30.344 -16.239  -5.946  0.00  0.00    -0.063 N 
ATOM     16  H   UNL d   1      29.368 -16.501  -5.723  0.00  0.00     0.278 HD
ATOM     17  H   UNL d   1      30.569 -15.619  -5.148  0.00  0.00     0.278 HD
BRANCH  15  18
ATOM     18  C   UNL d   1      31.213 -17.469  -5.973  0.00  0.00     0.186 C 
ATOM     19  C   UNL d   1      31.800 -17.772  -4.585  0.00  0.00     0.033 C 
ATOM     20  C   UNL d   1      30.868 -18.583  -3.682  0.00  0.00     0.002 C 
ATOM     21  C   UNL d   1      31.171 -20.066  -3.813  0.00  0.00     0.000 C 
ATOM     22  C   UNL d   1      30.709 -20.706  -5.120  0.00  0.00     0.000 C 
ATOM     23  C   UNL d   1      31.109 -19.978  -6.407  0.00  0.00     0.002 C 
ATOM     24  C   UNL d   1      30.405 -18.628  -6.577  0.00  0.00     0.033 C 
ENDBRANCH  15  18
ENDBRANCH  14  15
ENDBRANCH  11  14
ENDBRANCH   8  10
ENDBRANCH   6   8
ENDBRANCH   5   6
BRANCH   1  25
ATOM     25  C   UNL d   1      27.893 -15.040  -4.738  0.00  0.00     0.297 C 
ATOM     26  O   UNL d   1      27.579 -15.575  -5.810  0.00  0.00    -0.259 OA
BRANCH  25  27
ATOM     27  O   UNL d   1      28.819 -15.517  -3.861  0.00  0.00    -0.318 OA
BRANCH  27  28
ATOM     28  C   UNL d   1      29.747 -14.549  -3.348  0.00  0.00     0.174 C 
ATOM     29  C   UNL d   1      29.555 -14.392  -1.852  0.00  0.00     0.034 C 
ENDBRANCH  27  28
ENDBRANCH  25  27
ENDBRANCH   1  25
BRANCH   2  30
ATOM     30  C   UNL d   1      25.785 -15.021  -2.571  0.00  0.00    -0.021 A 
ATOM     31  C   UNL d   1      24.408 -15.206  -2.395  0.00  0.00     0.015 A 
ATOM     32  C   UNL d   1      23.941 -16.159  -1.489  0.00  0.00     0.040 A 
ATOM     33  C   UNL d   1      24.832 -17.013  -0.828  0.00  0.00     0.101 A 
ATOM     34  C   UNL d   1      26.217 -16.837  -1.016  0.00  0.00     0.102 A 
ATOM     35  C   UNL d   1      26.677 -15.844  -1.890  0.00  0.00     0.052 A 
BRANCH  33  36
ATOM     36  O   UNL d   1      24.211 -17.957  -0.046  0.00  0.00    -0.353 OA
ATOM     37  C   UNL d   1      22.825 -18.188  -0.285  0.00  0.00     0.210 C 
ENDBRANCH  33  36
BRANCH  34  38
ATOM     38  O   UNL d   1      27.070 -17.616  -0.286  0.00  0.00    -0.353 OA
ATOM     39  C   UNL d   1      28.462 -17.475  -0.498  0.00  0.00     0.210 C 
ENDBRANCH  34  38
ENDBRANCH   2  30
TORSDOF 12
ENDMDL
MODEL 9
REMARK VINA RESULT:    -6.442      1.626      2.482
REMARK INTER + INTRA:         -15.641
REMARK INTER:                 -10.022
REMARK INTRA:                  -5.619
REMARK CONF_INDEPENDENT:        3.580
REMARK UNBOUND:                -5.619
REMARK  12 active torsions:
REMARK  status: ('A' for Active; 'I' for Inactive)
REMARK    1  A    between atoms: C_2  and  O_3 
REMARK    2  A    between atoms: O_3  and  C_4 
REMARK    3  A    between atoms: C_4  and  C_6 
REMARK    4  A    between atoms: C_7  and  C_8 
REMARK    5  A    between atoms: C_11  and  O_12 
REMARK    6  A    between atoms: C_14  and  O_15 
REMARK    7  A    between atoms: C_20  and  N_21 
REMARK    8  A    between atoms: N_21  and  C_22 
REMARK    9  A    between atoms: C_22  and  N_24 
REMARK       I    between atoms: N_24  and  C_25 
REMARK   10  A    between atoms: C_25  and  C_27 
REMARK   11  A    between atoms: C_27  and  N_28 
REMARK   12  A    between atoms: N_28  and  C_29 
ROOT
ATOM      1  C   UNL d   1      29.772 -16.728  -1.944  0.00  0.00     0.085 A 
ATOM      2  C   UNL d   1      29.559 -16.457  -3.346  0.00  0.00    -0.000 A 
ATOM      3  C   UNL d   1      30.187 -17.377  -4.160  0.00  0.00     0.065 A 
ATOM      4  S   UNL d   1      31.066 -18.534  -3.224  0.00  0.00    -0.082 SA
ATOM      5  C   UNL d   1      30.568 -17.841  -1.736  0.00  0.00     0.093 A 
ENDROOT
BRANCH   5   6
ATOM      6  N   UNL d   1      31.056 -18.461  -0.568  0.00  0.00    -0.326 N 
ATOM      7  H   UNL d   1      30.416 -19.126  -0.145  0.00  0.00     0.169 HD
BRANCH   6   8
ATOM      8  C   UNL d   1      32.120 -17.953   0.182  0.00  0.00     0.179 C 
ATOM      9  S   UNL d   1      33.736 -18.045  -0.280  0.00  0.00    -0.040 SA
BRANCH   8  10
ATOM     10  N   UNL d   1      31.763 -17.167   1.275  0.00  0.00    -0.302 N 
ATOM     11  C   UNL d   1      32.559 -16.085   1.660  0.00  0.00     0.249 C 
ATOM     12  O   UNL d   1      33.788 -16.086   1.754  0.00  0.00    -0.271 OA
ATOM     13  H   UNL d   1      30.757 -17.062   1.357  0.00  0.00     0.171 HD
BRANCH  11  14
ATOM     14  C   UNL d   1      31.852 -14.832   2.114  0.00  0.00     0.335 C 
BRANCH  14  15
ATOM     15  N   UNL d   1      30.356 -14.883   1.814  0.00  0.00    -0.063 N 
ATOM     16  H   UNL d   1      30.015 -15.833   2.042  0.00  0.00     0.278 HD
ATOM     17  H   UNL d   1      30.256 -14.878   0.784  0.00  0.00     0.278 HD
BRANCH  15  18
ATOM     18  C   UNL d   1      29.478 -13.852   2.474  0.00  0.00     0.186 C 
ATOM     19  C   UNL d   1      29.612 -12.481   1.792  0.00  0.00     0.033 C 
ATOM     20  C   UNL d   1      28.710 -12.307   0.568  0.00  0.00     0.002 C 
ATOM     21  C   UNL d   1      27.399 -11.653   0.972  0.00  0.00     0.000 C 
ATOM     22  C   UNL d   1      26.437 -12.556   1.742  0.00  0.00     0.000 C 
ATOM     23  C   UNL d   1      27.029 -13.313   2.934  0.00  0.00     0.002 C 
ATOM     24  C   UNL d   1      28.039 -14.389   2.521  0.00  0.00     0.033 C 
ENDBRANCH  15  18
ENDBRANCH  14  15
ENDBRANCH  11  14
ENDBRANCH   8  10
ENDBRANCH   6   8
ENDBRANCH   5   6
BRANCH   1  25
ATOM     25  C   UNL d   1      29.263 -15.861  -0.899  0.00  0.00     0.297 C 
ATOM     26  O   UNL d   1      29.164 -14.638  -1.065  0.00  0.00    -0.259 OA
BRANCH  25  27
ATOM     27  O   UNL d   1      28.953 -16.528   0.248  0.00  0.00    -0.318 OA
BRANCH  27  28
ATOM     28  C   UNL d   1      27.555 -16.762   0.473  0.00  0.00     0.174 C 
ATOM     29  C   UNL d   1      27.172 -18.135  -0.046  0.00  0.00     0.034 C 
ENDBRANCH  27  28
ENDBRANCH  25  27
ENDBRANCH   1  25
BRANCH   2  30
ATOM     30  C   UNL d   1      28.730 -15.359  -3.833  0.00  0.00    -0.021 A 
ATOM     31  C   UNL d   1      29.224 -14.049  -3.820  0.00  0.00     0.015 A 
ATOM     32  C   UNL d   1      28.347 -12.970  -3.940  0.00  0.00     0.040 A 
ATOM     33  C   UNL d   1      26.983 -13.181  -4.183  0.00  0.00     0.101 A 
ATOM     34  C   UNL d   1      26.489 -14.499  -4.211  0.00  0.00     0.102 A 
ATOM     35  C   UNL d   1      27.370 -15.575  -4.039  0.00  0.00     0.052 A 
BRANCH  33  36
ATOM     36  O   UNL d   1      26.273 -12.020  -4.372  0.00  0.00    -0.353 OA
ATOM     37  C   UNL d   1      26.528 -10.949  -3.467  0.00  0.00     0.210 C 
ENDBRANCH  33  36
BRANCH  34  38
ATOM     38  O   UNL d   1      25.141 -14.678  -4.351  0.00  0.00    -0.353 OA
ATOM     39  C   UNL d   1      24.278 -14.075  -3.406  0.00  0.00     0.210 C 
ENDBRANCH  34  38
ENDBRANCH   2  30
TORSDOF 12
ENDMDL
