MODEL 1
REMARK VINA RESULT:    -8.557      0.000      0.000
REMARK INTER + INTRA:         -14.948
REMARK INTER:                 -10.943
REMARK INTRA:                  -4.005
REMARK CONF_INDEPENDENT:        2.386
REMARK UNBOUND:                -4.005
REMARK  8 active torsions:
REMARK  status: ('A' for Active; 'I' for Inactive)
REMARK    1  A    between atoms: C_6  and  N_7 
REMARK       I    between atoms: N_7  and  C_8 
REMARK    2  A    between atoms: C_8  and  C_10 
REMARK       I    between atoms: C_10  and  N_12 
REMARK    3  A    between atoms: N_12  and  C_13 
REMARK    4  A    between atoms: C_13  and  C_14 
REMARK    5  A    between atoms: C_18  and  C_19 
REMARK    6  A    between atoms: C_19  and  N_20 
REMARK       I    between atoms: N_20  and  C_21 
REMARK    7  A    between atoms: C_21  and  C_23 
REMARK       I    between atoms: C_23  and  N_25 
REMARK    8  A    between atoms: N_25  and  C_26 
ROOT
ATOM      1  C   UNL d   1      25.500  -9.445  -5.084  0.00  0.00    -0.040 A 
ATOM      2  C   UNL d   1      24.602  -8.676  -5.832  0.00  0.00     0.009 A 
ATOM      3  C   UNL d   1      24.206  -7.414  -5.387  0.00  0.00     0.001 A 
ATOM      4  C   UNL d   1      24.626  -6.942  -4.142  0.00  0.00     0.009 A 
ATOM      5  C   UNL d   1      25.495  -7.703  -3.340  0.00  0.00    -0.040 A 
ATOM      6  C   UNL d   1      25.910  -8.951  -3.835  0.00  0.00     0.017 A 
ENDROOT
BRANCH   1   7
ATOM      7  C   UNL d   1      26.128 -10.740  -5.555  0.00  0.00     0.161 C 
BRANCH   7   8
ATOM      8  N   UNL d   1      25.665 -11.922  -4.885  0.00  0.00    -0.349 N 
ATOM      9  C   UNL d   1      26.288 -12.490  -3.801  0.00  0.00     0.309 C 
ATOM     10  O   UNL d   1      27.306 -12.095  -3.248  0.00  0.00    -0.262 OA
ATOM     11  H   UNL d   1      24.847 -12.425  -5.213  0.00  0.00     0.163 HD
BRANCH   9  12
ATOM     12  C   UNL d   1      25.542 -13.749  -3.313  0.00  0.00     0.314 C 
ATOM     13  N   UNL d   1      26.053 -14.343  -2.166  0.00  0.00    -0.318 N 
ATOM     14  H   UNL d   1      26.868 -13.882  -1.779  0.00  0.00     0.169 HD
ATOM     15  O   UNL d   1      24.577 -14.085  -3.994  0.00  0.00    -0.262 OA
BRANCH  13  16
ATOM     16  C   UNL d   1      25.535 -15.507  -1.526  0.00  0.00     0.041 A 
ATOM     17  C   UNL d   1      24.157 -15.775  -1.573  0.00  0.00     0.030 A 
ATOM     18  C   UNL d   1      23.595 -16.903  -0.989  0.00  0.00     0.003 A 
ATOM     19  C   UNL d   1      24.398 -17.795  -0.307  0.00  0.00     0.007 A 
ATOM     20  C   UNL d   1      25.779 -17.568  -0.210  0.00  0.00    -0.054 A 
ATOM     21  C   UNL d   1      26.588 -18.572   0.572  0.00  0.00     0.049 C 
ATOM     22  C   UNL d   1      26.368 -16.424  -0.835  0.00  0.00    -0.029 A 
ATOM     23  C   UNL d   1      27.865 -16.258  -0.729  0.00  0.00     0.051 C 
ENDBRANCH  13  16
ENDBRANCH   9  12
ENDBRANCH   7   8
ENDBRANCH   1   7
BRANCH   5  24
ATOM     24  C   UNL d   1      25.981  -7.128  -2.022  0.00  0.00     0.161 C 
BRANCH  24  25
ATOM     25  N   UNL d   1      26.556  -8.088  -1.099  0.00  0.00    -0.349 N 
ATOM     26  C   UNL d   1      26.124  -8.271   0.196  0.00  0.00     0.309 C 
ATOM     27  O   UNL d   1      25.199  -7.683   0.736  0.00  0.00    -0.262 OA
ATOM     28  H   UNL d   1      27.340  -8.672  -1.364  0.00  0.00     0.163 HD
BRANCH  26  29
ATOM     29  C   UNL d   1      26.947  -9.346   0.963  0.00  0.00     0.314 C 
ATOM     30  O   UNL d   1      27.934  -9.815   0.403  0.00  0.00    -0.262 OA
ATOM     31  N   UNL d   1      26.426  -9.713   2.199  0.00  0.00    -0.318 N 
ATOM     32  H   UNL d   1      25.489  -9.383   2.408  0.00  0.00     0.169 HD
BRANCH  31  33
ATOM     33  C   UNL d   1      27.014 -10.706   3.023  0.00  0.00     0.041 A 
ATOM     34  C   UNL d   1      27.533 -10.337   4.271  0.00  0.00     0.030 A 
ATOM     35  C   UNL d   1      28.106 -11.282   5.117  0.00  0.00     0.003 A 
ATOM     36  C   UNL d   1      28.211 -12.607   4.708  0.00  0.00     0.007 A 
ATOM     37  C   UNL d   1      27.714 -13.010   3.459  0.00  0.00    -0.054 A 
ATOM     38  C   UNL d   1      27.914 -14.448   3.053  0.00  0.00     0.049 C 
ATOM     39  C   UNL d   1      27.071 -12.061   2.618  0.00  0.00    -0.029 A 
ATOM     40  C   UNL d   1      26.530 -12.473   1.274  0.00  0.00     0.051 C 
ENDBRANCH  31  33
ENDBRANCH  26  29
ENDBRANCH  24  25
ENDBRANCH   5  24
TORSDOF 8
ENDMDL
MODEL 2
REMARK VINA RESULT:    -8.473      4.348      6.684
REMARK INTER + INTRA:         -14.585
REMARK INTER:                 -10.860
REMARK INTRA:                  -3.725
REMARK CONF_INDEPENDENT:        2.386
REMARK UNBOUND:                -3.725
REMARK  8 active torsions:
REMARK  status: ('A' for Active; 'I' for Inactive)
REMARK    1  A    between atoms: C_6  and  N_7 
REMARK       I    between atoms: N_7  and  C_8 
REMARK    2  A    between atoms: C_8  and  C_10 
REMARK       I    between atoms: C_10  and  N_12 
REMARK    3  A    between atoms: N_12  and  C_13 
REMARK    4  A    between atoms: C_13  and  C_14 
REMARK    5  A    between atoms: C_18  and  C_19 
REMARK    6  A    between atoms: C_19  and  N_20 
REMARK       I    between atoms: N_20  and  C_21 
REMARK    7  A    between atoms: C_21  and  C_23 
REMARK       I    between atoms: C_23  and  N_25 
REMARK    8  A    between atoms: N_25  and  C_26 
ROOT
ATOM      1  C   UNL d   1      29.051 -11.951  -7.943  0.00  0.00    -0.040 A 
ATOM      2  C   UNL d   1      28.513 -11.792  -9.224  0.00  0.00     0.009 A 
ATOM      3  C   UNL d   1      27.215 -11.313  -9.395  0.00  0.00     0.001 A 
ATOM      4  C   UNL d   1      26.399 -11.075  -8.286  0.00  0.00     0.009 A 
ATOM      5  C   UNL d   1      26.888 -11.264  -6.981  0.00  0.00    -0.040 A 
ATOM      6  C   UNL d   1      28.214 -11.707  -6.841  0.00  0.00     0.017 A 
ENDROOT
BRANCH   1   7
ATOM      7  C   UNL d   1      30.497 -12.293  -7.649  0.00  0.00     0.161 C 
BRANCH   7   8
ATOM      8  N   UNL d   1      30.778 -13.694  -7.513  0.00  0.00    -0.349 N 
ATOM      9  C   UNL d   1      29.962 -14.586  -6.862  0.00  0.00     0.309 C 
ATOM     10  O   UNL d   1      28.898 -14.341  -6.310  0.00  0.00    -0.262 OA
ATOM     11  H   UNL d   1      31.636 -14.095  -7.877  0.00  0.00     0.163 HD
BRANCH   9  12
ATOM     12  C   UNL d   1      30.544 -16.015  -6.893  0.00  0.00     0.314 C 
ATOM     13  N   UNL d   1      30.032 -16.893  -5.948  0.00  0.00    -0.318 N 
ATOM     14  H   UNL d   1      29.331 -16.492  -5.334  0.00  0.00     0.169 HD
ATOM     15  O   UNL d   1      31.396 -16.216  -7.754  0.00  0.00    -0.262 OA
BRANCH  13  16
ATOM     16  C   UNL d   1      30.408 -18.258  -5.784  0.00  0.00     0.041 A 
ATOM     17  C   UNL d   1      30.432 -19.114  -6.897  0.00  0.00     0.030 A 
ATOM     18  C   UNL d   1      30.812 -20.447  -6.806  0.00  0.00     0.003 A 
ATOM     19  C   UNL d   1      31.156 -20.980  -5.580  0.00  0.00     0.007 A 
ATOM     20  C   UNL d   1      31.131 -20.178  -4.430  0.00  0.00    -0.054 A 
ATOM     21  C   UNL d   1      31.496 -20.837  -3.123  0.00  0.00     0.049 C 
ATOM     22  C   UNL d   1      30.770 -18.797  -4.522  0.00  0.00    -0.029 A 
ATOM     23  C   UNL d   1      30.803 -17.976  -3.255  0.00  0.00     0.051 C 
ENDBRANCH  13  16
ENDBRANCH   9  12
ENDBRANCH   7   8
ENDBRANCH   1   7
BRANCH   5  24
ATOM     24  C   UNL d   1      25.994 -10.933  -5.801  0.00  0.00     0.161 C 
BRANCH  24  25
ATOM     25  N   UNL d   1      25.531 -12.073  -5.032  0.00  0.00    -0.349 N 
ATOM     26  C   UNL d   1      26.341 -12.850  -4.235  0.00  0.00     0.309 C 
ATOM     27  O   UNL d   1      27.536 -12.682  -4.043  0.00  0.00    -0.262 OA
ATOM     28  H   UNL d   1      24.564 -12.374  -5.063  0.00  0.00     0.163 HD
BRANCH  26  29
ATOM     29  C   UNL d   1      25.578 -14.024  -3.556  0.00  0.00     0.314 C 
ATOM     30  O   UNL d   1      24.419 -14.227  -3.903  0.00  0.00    -0.262 OA
ATOM     31  N   UNL d   1      26.288 -14.688  -2.562  0.00  0.00    -0.318 N 
ATOM     32  H   UNL d   1      27.152 -14.251  -2.257  0.00  0.00     0.169 HD
BRANCH  31  33
ATOM     33  C   UNL d   1      25.744 -15.756  -1.804  0.00  0.00     0.041 A 
ATOM     34  C   UNL d   1      24.357 -15.951  -1.797  0.00  0.00     0.030 A 
ATOM     35  C   UNL d   1      23.782 -16.995  -1.079  0.00  0.00     0.003 A 
ATOM     36  C   UNL d   1      24.584 -17.836  -0.316  0.00  0.00     0.007 A 
ATOM     37  C   UNL d   1      25.976 -17.665  -0.289  0.00  0.00    -0.054 A 
ATOM     38  C   UNL d   1      26.780 -18.574   0.605  0.00  0.00     0.049 C 
ATOM     39  C   UNL d   1      26.574 -16.638  -1.071  0.00  0.00    -0.029 A 
ATOM     40  C   UNL d   1      28.067 -16.437  -1.057  0.00  0.00     0.051 C 
ENDBRANCH  31  33
ENDBRANCH  26  29
ENDBRANCH  24  25
ENDBRANCH   5  24
TORSDOF 8
ENDMDL
MODEL 3
REMARK VINA RESULT:    -8.413      1.338      6.361
REMARK INTER + INTRA:         -14.533
REMARK INTER:                 -10.799
REMARK INTRA:                  -3.733
REMARK CONF_INDEPENDENT:        2.386
REMARK UNBOUND:                -3.733
REMARK  8 active torsions:
REMARK  status: ('A' for Active; 'I' for Inactive)
REMARK    1  A    between atoms: C_6  and  N_7 
REMARK       I    between atoms: N_7  and  C_8 
REMARK    2  A    between atoms: C_8  and  C_10 
REMARK       I    between atoms: C_10  and  N_12 
REMARK    3  A    between atoms: N_12  and  C_13 
REMARK    4  A    between atoms: C_13  and  C_14 
REMARK    5  A    between atoms: C_18  and  C_19 
REMARK    6  A    between atoms: C_19  and  N_20 
REMARK       I    between atoms: N_20  and  C_21 
REMARK    7  A    between atoms: C_21  and  C_23 
REMARK       I    between atoms: C_23  and  N_25 
REMARK    8  A    between atoms: N_25  and  C_26 
ROOT
ATOM      1  C   UNL d   1      26.228  -8.081  -1.567  0.00  0.00    -0.040 A 
ATOM      2  C   UNL d   1      27.468  -7.483  -1.815  0.00  0.00     0.009 A 
ATOM      3  C   UNL d   1      28.158  -7.743  -2.998  0.00  0.00     0.001 A 
ATOM      4  C   UNL d   1      27.667  -8.680  -3.909  0.00  0.00     0.009 A 
ATOM      5  C   UNL d   1      26.446  -9.336  -3.678  0.00  0.00    -0.040 A 
ATOM      6  C   UNL d   1      25.752  -9.021  -2.497  0.00  0.00     0.017 A 
ENDROOT
BRANCH   1   7
ATOM      7  C   UNL d   1      25.318  -7.736  -0.407  0.00  0.00     0.161 C 
BRANCH   7   8
ATOM      8  N   UNL d   1      25.522  -8.514   0.782  0.00  0.00    -0.349 N 
ATOM      9  C   UNL d   1      26.744  -8.978   1.202  0.00  0.00     0.309 C 
ATOM     10  O   UNL d   1      27.824  -8.809   0.650  0.00  0.00    -0.262 OA
ATOM     11  H   UNL d   1      24.741  -8.791   1.369  0.00  0.00     0.163 HD
BRANCH   9  12
ATOM     12  C   UNL d   1      26.627  -9.778   2.516  0.00  0.00     0.314 C 
ATOM     13  N   UNL d   1      27.707 -10.596   2.819  0.00  0.00    -0.318 N 
ATOM     14  H   UNL d   1      28.455 -10.580   2.135  0.00  0.00     0.169 HD
ATOM     15  O   UNL d   1      25.590  -9.600   3.148  0.00  0.00    -0.262 OA
BRANCH  13  16
ATOM     16  C   UNL d   1      27.830 -11.424   3.973  0.00  0.00     0.041 A 
ATOM     17  C   UNL d   1      28.059 -10.841   5.230  0.00  0.00     0.030 A 
ATOM     18  C   UNL d   1      28.166 -11.591   6.394  0.00  0.00     0.003 A 
ATOM     19  C   UNL d   1      28.074 -12.967   6.334  0.00  0.00     0.007 A 
ATOM     20  C   UNL d   1      27.866 -13.607   5.103  0.00  0.00    -0.054 A 
ATOM     21  C   UNL d   1      27.802 -15.114   5.112  0.00  0.00     0.049 C 
ATOM     22  C   UNL d   1      27.725 -12.837   3.905  0.00  0.00    -0.029 A 
ATOM     23  C   UNL d   1      27.461 -13.582   2.618  0.00  0.00     0.051 C 
ENDBRANCH  13  16
ENDBRANCH   9  12
ENDBRANCH   7   8
ENDBRANCH   1   7
BRANCH   5  24
ATOM     24  C   UNL d   1      25.912 -10.299  -4.723  0.00  0.00     0.161 C 
BRANCH  24  25
ATOM     25  N   UNL d   1      25.529 -11.607  -4.225  0.00  0.00    -0.349 N 
ATOM     26  C   UNL d   1      26.188 -12.275  -3.217  0.00  0.00     0.309 C 
ATOM     27  O   UNL d   1      27.154 -11.863  -2.592  0.00  0.00    -0.262 OA
ATOM     28  H   UNL d   1      24.749 -12.116  -4.622  0.00  0.00     0.163 HD
BRANCH  26  29
ATOM     29  C   UNL d   1      25.575 -13.673  -2.915  0.00  0.00     0.314 C 
ATOM     30  O   UNL d   1      24.690 -14.081  -3.661  0.00  0.00    -0.262 OA
ATOM     31  N   UNL d   1      26.062 -14.292  -1.769  0.00  0.00    -0.318 N 
ATOM     32  H   UNL d   1      26.632 -13.719  -1.155  0.00  0.00     0.169 HD
BRANCH  31  33
ATOM     33  C   UNL d   1      25.594 -15.550  -1.310  0.00  0.00     0.041 A 
ATOM     34  C   UNL d   1      24.296 -15.957  -1.642  0.00  0.00     0.030 A 
ATOM     35  C   UNL d   1      23.801 -17.189  -1.224  0.00  0.00     0.003 A 
ATOM     36  C   UNL d   1      24.584 -18.016  -0.427  0.00  0.00     0.007 A 
ATOM     37  C   UNL d   1      25.885 -17.637  -0.064  0.00  0.00    -0.054 A 
ATOM     38  C   UNL d   1      26.657 -18.553   0.850  0.00  0.00     0.049 C 
ATOM     39  C   UNL d   1      26.417 -16.407  -0.541  0.00  0.00    -0.029 A 
ATOM     40  C   UNL d   1      27.812 -15.980  -0.166  0.00  0.00     0.051 C 
ENDBRANCH  31  33
ENDBRANCH  26  29
ENDBRANCH  24  25
ENDBRANCH   5  24
TORSDOF 8
ENDMDL
MODEL 4
REMARK VINA RESULT:    -8.393      4.093      6.536
REMARK INTER + INTRA:         -15.023
REMARK INTER:                 -10.779
REMARK INTRA:                  -4.244
REMARK CONF_INDEPENDENT:        2.386
REMARK UNBOUND:                -4.244
REMARK  8 active torsions:
REMARK  status: ('A' for Active; 'I' for Inactive)
REMARK    1  A    between atoms: C_6  and  N_7 
REMARK       I    between atoms: N_7  and  C_8 
REMARK    2  A    between atoms: C_8  and  C_10 
REMARK       I    between atoms: C_10  and  N_12 
REMARK    3  A    between atoms: N_12  and  C_13 
REMARK    4  A    between atoms: C_13  and  C_14 
REMARK    5  A    between atoms: C_18  and  C_19 
REMARK    6  A    between atoms: C_19  and  N_20 
REMARK       I    between atoms: N_20  and  C_21 
REMARK    7  A    between atoms: C_21  and  C_23 
REMARK       I    between atoms: C_23  and  N_25 
REMARK    8  A    between atoms: N_25  and  C_26 
ROOT
ATOM      1  C   UNL d   1      26.755 -11.229  -6.691  0.00  0.00    -0.040 A 
ATOM      2  C   UNL d   1      26.434 -10.721  -7.954  0.00  0.00     0.009 A 
ATOM      3  C   UNL d   1      27.090 -11.186  -9.093  0.00  0.00     0.001 A 
ATOM      4  C   UNL d   1      28.144 -12.095  -8.979  0.00  0.00     0.009 A 
ATOM      5  C   UNL d   1      28.526 -12.598  -7.723  0.00  0.00    -0.040 A 
ATOM      6  C   UNL d   1      27.818 -12.143  -6.598  0.00  0.00     0.017 A 
ENDROOT
BRANCH   1   7
ATOM      7  C   UNL d   1      25.990 -10.927  -5.419  0.00  0.00     0.161 C 
BRANCH   7   8
ATOM      8  N   UNL d   1      25.529 -12.078  -4.695  0.00  0.00    -0.349 N 
ATOM      9  C   UNL d   1      26.311 -12.819  -3.843  0.00  0.00     0.309 C 
ATOM     10  O   UNL d   1      27.489 -12.626  -3.571  0.00  0.00    -0.262 OA
ATOM     11  H   UNL d   1      24.582 -12.425  -4.808  0.00  0.00     0.163 HD
BRANCH   9  12
ATOM     12  C   UNL d   1      25.520 -13.988  -3.220  0.00  0.00     0.314 C 
ATOM     13  N   UNL d   1      26.193 -14.718  -2.250  0.00  0.00    -0.318 N 
ATOM     14  H   UNL d   1      27.137 -14.403  -2.062  0.00  0.00     0.169 HD
ATOM     15  O   UNL d   1      24.381 -14.142  -3.652  0.00  0.00    -0.262 OA
BRANCH  13  16
ATOM     16  C   UNL d   1      25.672 -15.836  -1.534  0.00  0.00     0.041 A 
ATOM     17  C   UNL d   1      24.323 -16.196  -1.688  0.00  0.00     0.030 A 
ATOM     18  C   UNL d   1      23.762 -17.287  -1.035  0.00  0.00     0.003 A 
ATOM     19  C   UNL d   1      24.534 -18.044  -0.176  0.00  0.00     0.007 A 
ATOM     20  C   UNL d   1      25.882 -17.718   0.033  0.00  0.00    -0.054 A 
ATOM     21  C   UNL d   1      26.655 -18.575   1.004  0.00  0.00     0.049 C 
ATOM     22  C   UNL d   1      26.473 -16.614  -0.659  0.00  0.00    -0.029 A 
ATOM     23  C   UNL d   1      27.939 -16.341  -0.424  0.00  0.00     0.051 C 
ENDBRANCH  13  16
ENDBRANCH   9  12
ENDBRANCH   7   8
ENDBRANCH   1   7
BRANCH   5  24
ATOM     24  C   UNL d   1      29.632 -13.634  -7.645  0.00  0.00     0.161 C 
BRANCH  24  25
ATOM     25  N   UNL d   1      29.664 -14.419  -6.425  0.00  0.00    -0.349 N 
ATOM     26  C   UNL d   1      28.586 -15.113  -5.922  0.00  0.00     0.309 C 
ATOM     27  O   UNL d   1      27.477 -15.187  -6.430  0.00  0.00    -0.262 OA
ATOM     28  H   UNL d   1      30.500 -14.479  -5.857  0.00  0.00     0.163 HD
BRANCH  26  29
ATOM     29  C   UNL d   1      28.904 -15.838  -4.582  0.00  0.00     0.314 C 
ATOM     30  O   UNL d   1      28.232 -15.540  -3.599  0.00  0.00    -0.262 OA
ATOM     31  N   UNL d   1      29.980 -16.717  -4.632  0.00  0.00    -0.318 N 
ATOM     32  H   UNL d   1      30.555 -16.679  -5.468  0.00  0.00     0.169 HD
BRANCH  31  33
ATOM     33  C   UNL d   1      30.444 -17.437  -3.501  0.00  0.00     0.041 A 
ATOM     34  C   UNL d   1      30.553 -16.778  -2.271  0.00  0.00     0.030 A 
ATOM     35  C   UNL d   1      30.990 -17.451  -1.132  0.00  0.00     0.003 A 
ATOM     36  C   UNL d   1      31.370 -18.785  -1.219  0.00  0.00     0.007 A 
ATOM     37  C   UNL d   1      31.287 -19.474  -2.438  0.00  0.00    -0.054 A 
ATOM     38  C   UNL d   1      31.770 -20.901  -2.475  0.00  0.00     0.049 C 
ATOM     39  C   UNL d   1      30.781 -18.809  -3.589  0.00  0.00    -0.029 A 
ATOM     40  C   UNL d   1      30.681 -19.531  -4.908  0.00  0.00     0.051 C 
ENDBRANCH  31  33
ENDBRANCH  26  29
ENDBRANCH  24  25
ENDBRANCH   5  24
TORSDOF 8
ENDMDL
MODEL 5
REMARK VINA RESULT:    -8.000      0.851      5.741
REMARK INTER + INTRA:         -15.099
REMARK INTER:                 -10.386
REMARK INTRA:                  -4.712
REMARK CONF_INDEPENDENT:        2.386
REMARK UNBOUND:                -4.712
REMARK  8 active torsions:
REMARK  status: ('A' for Active; 'I' for Inactive)
REMARK    1  A    between atoms: C_6  and  N_7 
REMARK       I    between atoms: N_7  and  C_8 
REMARK    2  A    between atoms: C_8  and  C_10 
REMARK       I    between atoms: C_10  and  N_12 
REMARK    3  A    between atoms: N_12  and  C_13 
REMARK    4  A    between atoms: C_13  and  C_14 
REMARK    5  A    between atoms: C_18  and  C_19 
REMARK    6  A    between atoms: C_19  and  N_20 
REMARK       I    between atoms: N_20  and  C_21 
REMARK    7  A    between atoms: C_21  and  C_23 
REMARK       I    between atoms: C_23  and  N_25 
REMARK    8  A    between atoms: N_25  and  C_26 
ROOT
ATOM      1  C   UNL d   1      25.744  -8.174  -3.399  0.00  0.00    -0.040 A 
ATOM      2  C   UNL d   1      24.899  -7.273  -4.053  0.00  0.00     0.009 A 
ATOM      3  C   UNL d   1      24.326  -7.601  -5.282  0.00  0.00     0.001 A 
ATOM      4  C   UNL d   1      24.665  -8.794  -5.922  0.00  0.00     0.009 A 
ATOM      5  C   UNL d   1      25.545  -9.709  -5.318  0.00  0.00    -0.040 A 
ATOM      6  C   UNL d   1      26.073  -9.369  -4.060  0.00  0.00     0.017 A 
ENDROOT
BRANCH   1   7
ATOM      7  C   UNL d   1      26.275  -7.995  -1.992  0.00  0.00     0.161 C 
BRANCH   7   8
ATOM      8  N   UNL d   1      26.652  -9.208  -1.322  0.00  0.00    -0.349 N 
ATOM      9  C   UNL d   1      26.918  -9.297   0.022  0.00  0.00     0.309 C 
ATOM     10  O   UNL d   1      26.878  -8.389   0.842  0.00  0.00    -0.262 OA
ATOM     11  H   UNL d   1      26.773 -10.075  -1.835  0.00  0.00     0.163 HD
BRANCH   9  12
ATOM     12  C   UNL d   1      27.292 -10.737   0.432  0.00  0.00     0.314 C 
ATOM     13  N   UNL d   1      27.234 -11.009   1.792  0.00  0.00    -0.318 N 
ATOM     14  H   UNL d   1      26.955 -10.223   2.369  0.00  0.00     0.169 HD
ATOM     15  O   UNL d   1      27.598 -11.484  -0.493  0.00  0.00    -0.262 OA
BRANCH  13  16
ATOM     16  C   UNL d   1      27.530 -12.260   2.408  0.00  0.00     0.041 A 
ATOM     17  C   UNL d   1      27.481 -13.440   1.649  0.00  0.00     0.030 A 
ATOM     18  C   UNL d   1      27.781 -14.687   2.186  0.00  0.00     0.003 A 
ATOM     19  C   UNL d   1      28.115 -14.796   3.520  0.00  0.00     0.007 A 
ATOM     20  C   UNL d   1      28.160 -13.654   4.332  0.00  0.00    -0.054 A 
ATOM     21  C   UNL d   1      28.508 -13.855   5.786  0.00  0.00     0.049 C 
ATOM     22  C   UNL d   1      27.882 -12.364   3.779  0.00  0.00    -0.029 A 
ATOM     23  C   UNL d   1      27.988 -11.168   4.694  0.00  0.00     0.051 C 
ENDBRANCH  13  16
ENDBRANCH   9  12
ENDBRANCH   7   8
ENDBRANCH   1   7
BRANCH   5  24
ATOM     24  C   UNL d   1      25.839 -11.025  -6.014  0.00  0.00     0.161 C 
BRANCH  24  25
ATOM     25  N   UNL d   1      25.457 -12.216  -5.279  0.00  0.00    -0.349 N 
ATOM     26  C   UNL d   1      25.925 -12.535  -4.024  0.00  0.00     0.309 C 
ATOM     27  O   UNL d   1      26.693 -11.865  -3.351  0.00  0.00    -0.262 OA
ATOM     28  H   UNL d   1      24.826 -12.902  -5.675  0.00  0.00     0.163 HD
BRANCH  26  29
ATOM     29  C   UNL d   1      25.369 -13.889  -3.496  0.00  0.00     0.314 C 
ATOM     30  O   UNL d   1      24.504 -14.449  -4.163  0.00  0.00    -0.262 OA
ATOM     31  N   UNL d   1      25.877 -14.292  -2.266  0.00  0.00    -0.318 N 
ATOM     32  H   UNL d   1      26.420 -13.603  -1.755  0.00  0.00     0.169 HD
BRANCH  31  33
ATOM     33  C   UNL d   1      25.459 -15.476  -1.606  0.00  0.00     0.041 A 
ATOM     34  C   UNL d   1      24.107 -15.839  -1.647  0.00  0.00     0.030 A 
ATOM     35  C   UNL d   1      23.656 -17.000  -1.025  0.00  0.00     0.003 A 
ATOM     36  C   UNL d   1      24.547 -17.795  -0.312  0.00  0.00     0.007 A 
ATOM     37  C   UNL d   1      25.906 -17.457  -0.239  0.00  0.00    -0.054 A 
ATOM     38  C   UNL d   1      26.805 -18.329   0.599  0.00  0.00     0.049 C 
ATOM     39  C   UNL d   1      26.382 -16.306  -0.925  0.00  0.00    -0.029 A 
ATOM     40  C   UNL d   1      27.839 -15.924  -0.861  0.00  0.00     0.051 C 
ENDBRANCH  31  33
ENDBRANCH  26  29
ENDBRANCH  24  25
ENDBRANCH   5  24
TORSDOF 8
ENDMDL
MODEL 6
REMARK VINA RESULT:    -7.426      3.897      5.746
REMARK INTER + INTRA:         -14.849
REMARK INTER:                  -9.813
REMARK INTRA:                  -5.037
REMARK CONF_INDEPENDENT:        2.386
REMARK UNBOUND:                -5.037
REMARK  8 active torsions:
REMARK  status: ('A' for Active; 'I' for Inactive)
REMARK    1  A    between atoms: C_6  and  N_7 
REMARK       I    between atoms: N_7  and  C_8 
REMARK    2  A    between atoms: C_8  and  C_10 
REMARK       I    between atoms: C_10  and  N_12 
REMARK    3  A    between atoms: N_12  and  C_13 
REMARK    4  A    between atoms: C_13  and  C_14 
REMARK    5  A    between atoms: C_18  and  C_19 
REMARK    6  A    between atoms: C_19  and  N_20 
REMARK       I    between atoms: N_20  and  C_21 
REMARK    7  A    between atoms: C_21  and  C_23 
REMARK       I    between atoms: C_23  and  N_25 
REMARK    8  A    between atoms: N_25  and  C_26 
ROOT
ATOM      1  C   UNL d   1      26.588 -10.694  -6.232  0.00  0.00    -0.040 A 
ATOM      2  C   UNL d   1      26.367  -9.726  -7.218  0.00  0.00     0.009 A 
ATOM      3  C   UNL d   1      26.784  -9.943  -8.531  0.00  0.00     0.001 A 
ATOM      4  C   UNL d   1      27.513 -11.087  -8.860  0.00  0.00     0.009 A 
ATOM      5  C   UNL d   1      27.793 -12.064  -7.889  0.00  0.00    -0.040 A 
ATOM      6  C   UNL d   1      27.323 -11.838  -6.584  0.00  0.00     0.017 A 
ENDROOT
BRANCH   1   7
ATOM      7  C   UNL d   1      26.026 -10.640  -4.827  0.00  0.00     0.161 C 
BRANCH   7   8
ATOM      8  N   UNL d   1      25.610 -11.903  -4.286  0.00  0.00    -0.349 N 
ATOM      9  C   UNL d   1      26.471 -12.858  -3.804  0.00  0.00     0.309 C 
ATOM     10  O   UNL d   1      27.693 -12.791  -3.759  0.00  0.00    -0.262 OA
ATOM     11  H   UNL d   1      24.631 -12.168  -4.263  0.00  0.00     0.163 HD
BRANCH   9  12
ATOM     12  C   UNL d   1      25.713 -14.099  -3.291  0.00  0.00     0.314 C 
ATOM     13  N   UNL d   1      26.304 -14.768  -2.228  0.00  0.00    -0.318 N 
ATOM     14  H   UNL d   1      27.178 -14.365  -1.908  0.00  0.00     0.169 HD
ATOM     15  O   UNL d   1      24.667 -14.358  -3.881  0.00  0.00    -0.262 OA
BRANCH  13  16
ATOM     16  C   UNL d   1      25.793 -15.932  -1.584  0.00  0.00     0.041 A 
ATOM     17  C   UNL d   1      24.526 -16.426  -1.937  0.00  0.00     0.030 A 
ATOM     18  C   UNL d   1      23.983 -17.568  -1.363  0.00  0.00     0.003 A 
ATOM     19  C   UNL d   1      24.685 -18.245  -0.386  0.00  0.00     0.007 A 
ATOM     20  C   UNL d   1      25.946 -17.787   0.022  0.00  0.00    -0.054 A 
ATOM     21  C   UNL d   1      26.642 -18.564   1.112  0.00  0.00     0.049 C 
ATOM     22  C   UNL d   1      26.524 -16.628  -0.587  0.00  0.00    -0.029 A 
ATOM     23  C   UNL d   1      27.902 -16.210  -0.134  0.00  0.00     0.051 C 
ENDBRANCH  13  16
ENDBRANCH   9  12
ENDBRANCH   7   8
ENDBRANCH   1   7
BRANCH   5  24
ATOM     24  C   UNL d   1      28.531 -13.326  -8.299  0.00  0.00     0.161 C 
BRANCH  24  25
ATOM     25  N   UNL d   1      29.203 -14.031  -7.223  0.00  0.00    -0.349 N 
ATOM     26  C   UNL d   1      28.553 -14.741  -6.239  0.00  0.00     0.309 C 
ATOM     27  O   UNL d   1      27.345 -14.899  -6.143  0.00  0.00    -0.262 OA
ATOM     28  H   UNL d   1      30.211 -14.016  -7.130  0.00  0.00     0.163 HD
BRANCH  26  29
ATOM     29  C   UNL d   1      29.527 -15.366  -5.199  0.00  0.00     0.314 C 
ATOM     30  O   UNL d   1      30.554 -15.889  -5.622  0.00  0.00    -0.262 OA
ATOM     31  N   UNL d   1      29.087 -15.319  -3.881  0.00  0.00    -0.318 N 
ATOM     32  H   UNL d   1      28.121 -15.045  -3.738  0.00  0.00     0.169 HD
BRANCH  31  33
ATOM     33  C   UNL d   1      29.820 -15.874  -2.800  0.00  0.00     0.041 A 
ATOM     34  C   UNL d   1      30.013 -17.260  -2.748  0.00  0.00     0.030 A 
ATOM     35  C   UNL d   1      30.738 -17.845  -1.713  0.00  0.00     0.003 A 
ATOM     36  C   UNL d   1      31.242 -17.055  -0.687  0.00  0.00     0.007 A 
ATOM     37  C   UNL d   1      31.057 -15.664  -0.698  0.00  0.00    -0.054 A 
ATOM     38  C   UNL d   1      31.578 -14.874   0.475  0.00  0.00     0.049 C 
ATOM     39  C   UNL d   1      30.372 -15.055  -1.786  0.00  0.00    -0.029 A 
ATOM     40  C   UNL d   1      30.163 -13.564  -1.820  0.00  0.00     0.051 C 
ENDBRANCH  31  33
ENDBRANCH  26  29
ENDBRANCH  24  25
ENDBRANCH   5  24
TORSDOF 8
ENDMDL
MODEL 7
REMARK VINA RESULT:    -7.339      2.858      6.120
REMARK INTER + INTRA:         -14.569
REMARK INTER:                  -9.725
REMARK INTRA:                  -4.843
REMARK CONF_INDEPENDENT:        2.386
REMARK UNBOUND:                -4.843
REMARK  8 active torsions:
REMARK  status: ('A' for Active; 'I' for Inactive)
REMARK    1  A    between atoms: C_6  and  N_7 
REMARK       I    between atoms: N_7  and  C_8 
REMARK    2  A    between atoms: C_8  and  C_10 
REMARK       I    between atoms: C_10  and  N_12 
REMARK    3  A    between atoms: N_12  and  C_13 
REMARK    4  A    between atoms: C_13  and  C_14 
REMARK    5  A    between atoms: C_18  and  C_19 
REMARK    6  A    between atoms: C_19  and  N_20 
REMARK       I    between atoms: N_20  and  C_21 
REMARK    7  A    between atoms: C_21  and  C_23 
REMARK       I    between atoms: C_23  and  N_25 
REMARK    8  A    between atoms: N_25  and  C_26 
ROOT
ATOM      1  C   UNL d   1      27.006  -9.535  -2.538  0.00  0.00    -0.040 A 
ATOM      2  C   UNL d   1      26.444  -8.256  -2.601  0.00  0.00     0.009 A 
ATOM      3  C   UNL d   1      25.603  -7.900  -3.656  0.00  0.00     0.001 A 
ATOM      4  C   UNL d   1      25.388  -8.784  -4.715  0.00  0.00     0.009 A 
ATOM      5  C   UNL d   1      25.970 -10.064  -4.712  0.00  0.00    -0.040 A 
ATOM      6  C   UNL d   1      26.777 -10.409  -3.615  0.00  0.00     0.017 A 
ENDROOT
BRANCH   1   7
ATOM      7  C   UNL d   1      27.783 -10.080  -1.359  0.00  0.00     0.161 C 
BRANCH   7   8
ATOM      8  N   UNL d   1      27.326 -11.347  -0.859  0.00  0.00    -0.349 N 
ATOM      9  C   UNL d   1      27.648 -12.559  -1.417  0.00  0.00     0.309 C 
ATOM     10  O   UNL d   1      28.354 -12.753  -2.399  0.00  0.00    -0.262 OA
ATOM     11  H   UNL d   1      26.698 -11.402  -0.064  0.00  0.00     0.163 HD
BRANCH   9  12
ATOM     12  C   UNL d   1      27.002 -13.729  -0.646  0.00  0.00     0.314 C 
ATOM     13  N   UNL d   1      26.921 -14.931  -1.336  0.00  0.00    -0.318 N 
ATOM     14  H   UNL d   1      27.294 -14.904  -2.278  0.00  0.00     0.169 HD
ATOM     15  O   UNL d   1      26.632 -13.465   0.495  0.00  0.00    -0.262 OA
BRANCH  13  16
ATOM     16  C   UNL d   1      26.371 -16.147  -0.834  0.00  0.00     0.041 A 
ATOM     17  C   UNL d   1      27.156 -16.989  -0.031  0.00  0.00     0.030 A 
ATOM     18  C   UNL d   1      26.671 -18.176   0.506  0.00  0.00     0.003 A 
ATOM     19  C   UNL d   1      25.379 -18.575   0.230  0.00  0.00     0.007 A 
ATOM     20  C   UNL d   1      24.555 -17.784  -0.583  0.00  0.00    -0.054 A 
ATOM     21  C   UNL d   1      23.164 -18.298  -0.861  0.00  0.00     0.049 C 
ATOM     22  C   UNL d   1      25.039 -16.547  -1.115  0.00  0.00    -0.029 A 
ATOM     23  C   UNL d   1      24.089 -15.721  -1.949  0.00  0.00     0.051 C 
ENDBRANCH  13  16
ENDBRANCH   9  12
ENDBRANCH   7   8
ENDBRANCH   1   7
BRANCH   5  24
ATOM     24  C   UNL d   1      25.660 -11.021  -5.849  0.00  0.00     0.161 C 
BRANCH  24  25
ATOM     25  N   UNL d   1      26.279 -12.329  -5.746  0.00  0.00    -0.349 N 
ATOM     26  C   UNL d   1      25.927 -13.281  -4.816  0.00  0.00     0.309 C 
ATOM     27  O   UNL d   1      25.046 -13.176  -3.976  0.00  0.00    -0.262 OA
ATOM     28  H   UNL d   1      27.037 -12.605  -6.359  0.00  0.00     0.163 HD
BRANCH  26  29
ATOM     29  C   UNL d   1      26.782 -14.577  -4.921  0.00  0.00     0.314 C 
ATOM     30  O   UNL d   1      26.248 -15.575  -5.395  0.00  0.00    -0.262 OA
ATOM     31  N   UNL d   1      28.066 -14.477  -4.396  0.00  0.00    -0.318 N 
ATOM     32  H   UNL d   1      28.266 -13.645  -3.851  0.00  0.00     0.169 HD
BRANCH  31  33
ATOM     33  C   UNL d   1      28.976 -15.565  -4.365  0.00  0.00     0.041 A 
ATOM     34  C   UNL d   1      29.158 -16.267  -3.168  0.00  0.00     0.030 A 
ATOM     35  C   UNL d   1      30.031 -17.350  -3.097  0.00  0.00     0.003 A 
ATOM     36  C   UNL d   1      30.771 -17.718  -4.214  0.00  0.00     0.007 A 
ATOM     37  C   UNL d   1      30.625 -17.029  -5.428  0.00  0.00    -0.054 A 
ATOM     38  C   UNL d   1      31.500 -17.443  -6.582  0.00  0.00     0.049 C 
ATOM     39  C   UNL d   1      29.688 -15.963  -5.522  0.00  0.00    -0.029 A 
ATOM     40  C   UNL d   1      29.513 -15.211  -6.816  0.00  0.00     0.051 C 
ENDBRANCH  31  33
ENDBRANCH  26  29
ENDBRANCH  24  25
ENDBRANCH   5  24
TORSDOF 8
ENDMDL
MODEL 8
REMARK VINA RESULT:    -7.182      5.078      9.326
REMARK INTER + INTRA:         -14.615
REMARK INTER:                  -9.569
REMARK INTRA:                  -5.047
REMARK CONF_INDEPENDENT:        2.386
REMARK UNBOUND:                -5.047
REMARK  8 active torsions:
REMARK  status: ('A' for Active; 'I' for Inactive)
REMARK    1  A    between atoms: C_6  and  N_7 
REMARK       I    between atoms: N_7  and  C_8 
REMARK    2  A    between atoms: C_8  and  C_10 
REMARK       I    between atoms: C_10  and  N_12 
REMARK    3  A    between atoms: N_12  and  C_13 
REMARK    4  A    between atoms: C_13  and  C_14 
REMARK    5  A    between atoms: C_18  and  C_19 
REMARK    6  A    between atoms: C_19  and  N_20 
REMARK       I    between atoms: N_20  and  C_21 
REMARK    7  A    between atoms: C_21  and  C_23 
REMARK       I    between atoms: C_23  and  N_25 
REMARK    8  A    between atoms: N_25  and  C_26 
ROOT
ATOM      1  C   UNL d   1      27.238 -17.095  -0.257  0.00  0.00    -0.040 A 
ATOM      2  C   UNL d   1      26.337 -17.823   0.529  0.00  0.00     0.009 A 
ATOM      3  C   UNL d   1      24.977 -17.838   0.220  0.00  0.00     0.001 A 
ATOM      4  C   UNL d   1      24.481 -17.049  -0.820  0.00  0.00     0.009 A 
ATOM      5  C   UNL d   1      25.348 -16.270  -1.607  0.00  0.00    -0.040 A 
ATOM      6  C   UNL d   1      26.718 -16.309  -1.298  0.00  0.00     0.017 A 
ENDROOT
BRANCH   1   7
ATOM      7  C   UNL d   1      28.745 -17.151  -0.119  0.00  0.00     0.161 C 
BRANCH   7   8
ATOM      8  N   UNL d   1      29.456 -17.490  -1.319  0.00  0.00    -0.349 N 
ATOM      9  C   UNL d   1      29.512 -16.693  -2.436  0.00  0.00     0.309 C 
ATOM     10  O   UNL d   1      28.983 -15.599  -2.585  0.00  0.00    -0.262 OA
ATOM     11  H   UNL d   1      29.939 -18.378  -1.410  0.00  0.00     0.163 HD
BRANCH   9  12
ATOM     12  C   UNL d   1      30.357 -17.339  -3.553  0.00  0.00     0.314 C 
ATOM     13  N   UNL d   1      30.041 -16.949  -4.847  0.00  0.00    -0.318 N 
ATOM     14  H   UNL d   1      29.280 -16.281  -4.914  0.00  0.00     0.169 HD
ATOM     15  O   UNL d   1      31.217 -18.128  -3.172  0.00  0.00    -0.262 OA
BRANCH  13  16
ATOM     16  C   UNL d   1      30.680 -17.404  -6.038  0.00  0.00     0.041 A 
ATOM     17  C   UNL d   1      31.249 -16.474  -6.923  0.00  0.00     0.030 A 
ATOM     18  C   UNL d   1      31.905 -16.856  -8.087  0.00  0.00     0.003 A 
ATOM     19  C   UNL d   1      31.988 -18.193  -8.420  0.00  0.00     0.007 A 
ATOM     20  C   UNL d   1      31.420 -19.165  -7.585  0.00  0.00    -0.054 A 
ATOM     21  C   UNL d   1      31.529 -20.603  -8.027  0.00  0.00     0.049 C 
ATOM     22  C   UNL d   1      30.769 -18.780  -6.369  0.00  0.00    -0.029 A 
ATOM     23  C   UNL d   1      30.215 -19.876  -5.492  0.00  0.00     0.051 C 
ENDBRANCH  13  16
ENDBRANCH   9  12
ENDBRANCH   7   8
ENDBRANCH   1   7
BRANCH   5  24
ATOM     24  C   UNL d   1      24.780 -15.477  -2.770  0.00  0.00     0.161 C 
BRANCH  24  25
ATOM     25  N   UNL d   1      25.692 -15.255  -3.876  0.00  0.00    -0.349 N 
ATOM     26  C   UNL d   1      26.379 -14.081  -4.091  0.00  0.00     0.309 C 
ATOM     27  O   UNL d   1      26.340 -13.085  -3.383  0.00  0.00    -0.262 OA
ATOM     28  H   UNL d   1      25.856 -15.968  -4.577  0.00  0.00     0.163 HD
BRANCH  26  29
ATOM     29  C   UNL d   1      27.260 -14.120  -5.372  0.00  0.00     0.314 C 
ATOM     30  O   UNL d   1      27.545 -15.220  -5.835  0.00  0.00    -0.262 OA
ATOM     31  N   UNL d   1      27.691 -12.878  -5.826  0.00  0.00    -0.318 N 
ATOM     32  H   UNL d   1      27.541 -12.093  -5.200  0.00  0.00     0.169 HD
BRANCH  31  33
ATOM     33  C   UNL d   1      28.535 -12.716  -6.954  0.00  0.00     0.041 A 
ATOM     34  C   UNL d   1      27.998 -12.201  -8.140  0.00  0.00     0.030 A 
ATOM     35  C   UNL d   1      28.793 -12.012  -9.267  0.00  0.00     0.003 A 
ATOM     36  C   UNL d   1      30.133 -12.380  -9.238  0.00  0.00     0.007 A 
ATOM     37  C   UNL d   1      30.704 -12.911  -8.071  0.00  0.00    -0.054 A 
ATOM     38  C   UNL d   1      32.147 -13.344  -8.127  0.00  0.00     0.049 C 
ATOM     39  C   UNL d   1      29.910 -13.047  -6.899  0.00  0.00    -0.029 A 
ATOM     40  C   UNL d   1      30.503 -13.614  -5.635  0.00  0.00     0.051 C 
ENDBRANCH  31  33
ENDBRANCH  26  29
ENDBRANCH  24  25
ENDBRANCH   5  24
TORSDOF 8
ENDMDL
MODEL 9
REMARK VINA RESULT:    -6.079      5.535      9.292
REMARK INTER + INTRA:         -14.619
REMARK INTER:                  -8.466
REMARK INTRA:                  -6.153
REMARK CONF_INDEPENDENT:        2.386
REMARK UNBOUND:                -6.153
REMARK  8 active torsions:
REMARK  status: ('A' for Active; 'I' for Inactive)
REMARK    1  A    between atoms: C_6  and  N_7 
REMARK       I    between atoms: N_7  and  C_8 
REMARK    2  A    between atoms: C_8  and  C_10 
REMARK       I    between atoms: C_10  and  N_12 
REMARK    3  A    between atoms: N_12  and  C_13 
REMARK    4  A    between atoms: C_13  and  C_14 
REMARK    5  A    between atoms: C_18  and  C_19 
REMARK    6  A    between atoms: C_19  and  N_20 
REMARK       I    between atoms: N_20  and  C_21 
REMARK    7  A    between atoms: C_21  and  C_23 
REMARK       I    between atoms: C_23  and  N_25 
REMARK    8  A    between atoms: N_25  and  C_26 
ROOT
ATOM      1  C   UNL d   1      25.428 -17.705   0.194  0.00  0.00    -0.040 A 
ATOM      2  C   UNL d   1      24.131 -18.200   0.363  0.00  0.00     0.009 A 
ATOM      3  C   UNL d   1      23.075 -17.699  -0.398  0.00  0.00     0.001 A 
ATOM      4  C   UNL d   1      23.280 -16.629  -1.270  0.00  0.00     0.009 A 
ATOM      5  C   UNL d   1      24.560 -16.073  -1.437  0.00  0.00    -0.040 A 
ATOM      6  C   UNL d   1      25.612 -16.627  -0.689  0.00  0.00     0.017 A 
ENDROOT
BRANCH   1   7
ATOM      7  C   UNL d   1      26.668 -18.293   0.835  0.00  0.00     0.161 C 
BRANCH   7   8
ATOM      8  N   UNL d   1      27.875 -18.153   0.070  0.00  0.00    -0.349 N 
ATOM      9  C   UNL d   1      28.522 -16.961  -0.141  0.00  0.00     0.309 C 
ATOM     10  O   UNL d   1      28.187 -15.859   0.273  0.00  0.00    -0.262 OA
ATOM     11  H   UNL d   1      28.301 -18.952  -0.389  0.00  0.00     0.163 HD
BRANCH   9  12
ATOM     12  C   UNL d   1      29.790 -17.148  -1.000  0.00  0.00     0.314 C 
ATOM     13  N   UNL d   1      30.247 -16.011  -1.652  0.00  0.00    -0.318 N 
ATOM     14  H   UNL d   1      29.689 -15.179  -1.494  0.00  0.00     0.169 HD
ATOM     15  O   UNL d   1      30.255 -18.284  -1.010  0.00  0.00    -0.262 OA
BRANCH  13  16
ATOM     16  C   UNL d   1      31.394 -15.934  -2.495  0.00  0.00     0.041 A 
ATOM     17  C   UNL d   1      32.196 -17.071  -2.687  0.00  0.00     0.030 A 
ATOM     18  C   UNL d   1      33.313 -17.067  -3.514  0.00  0.00     0.003 A 
ATOM     19  C   UNL d   1      33.684 -15.905  -4.160  0.00  0.00     0.007 A 
ATOM     20  C   UNL d   1      32.933 -14.733  -3.989  0.00  0.00    -0.054 A 
ATOM     21  C   UNL d   1      33.413 -13.496  -4.706  0.00  0.00     0.049 C 
ATOM     22  C   UNL d   1      31.764 -14.738  -3.163  0.00  0.00    -0.029 A 
ATOM     23  C   UNL d   1      30.975 -13.456  -3.053  0.00  0.00     0.051 C 
ENDBRANCH  13  16
ENDBRANCH   9  12
ENDBRANCH   7   8
ENDBRANCH   1   7
BRANCH   5  24
ATOM     24  C   UNL d   1      24.757 -14.954  -2.443  0.00  0.00     0.161 C 
BRANCH  24  25
ATOM     25  N   UNL d   1      25.688 -15.239  -3.518  0.00  0.00    -0.349 N 
ATOM     26  C   UNL d   1      27.058 -15.232  -3.378  0.00  0.00     0.309 C 
ATOM     27  O   UNL d   1      27.675 -15.012  -2.346  0.00  0.00    -0.262 OA
ATOM     28  H   UNL d   1      25.366 -15.443  -4.456  0.00  0.00     0.163 HD
BRANCH  26  29
ATOM     29  C   UNL d   1      27.805 -15.543  -4.707  0.00  0.00     0.314 C 
ATOM     30  O   UNL d   1      27.142 -15.575  -5.740  0.00  0.00    -0.262 OA
ATOM     31  N   UNL d   1      29.160 -15.821  -4.567  0.00  0.00    -0.318 N 
ATOM     32  H   UNL d   1      29.496 -15.963  -3.620  0.00  0.00     0.169 HD
BRANCH  31  33
ATOM     33  C   UNL d   1      29.996 -16.168  -5.660  0.00  0.00     0.041 A 
ATOM     34  C   UNL d   1      30.386 -15.172  -6.563  0.00  0.00     0.030 A 
ATOM     35  C   UNL d   1      31.217 -15.465  -7.641  0.00  0.00     0.003 A 
ATOM     36  C   UNL d   1      31.635 -16.773  -7.858  0.00  0.00     0.007 A 
ATOM     37  C   UNL d   1      31.254 -17.800  -6.981  0.00  0.00    -0.054 A 
ATOM     38  C   UNL d   1      31.693 -19.204  -7.308  0.00  0.00     0.049 C 
ATOM     39  C   UNL d   1      30.457 -17.494  -5.843  0.00  0.00    -0.029 A 
ATOM     40  C   UNL d   1      30.038 -18.580  -4.888  0.00  0.00     0.051 C 
ENDBRANCH  31  33
ENDBRANCH  26  29
ENDBRANCH  24  25
ENDBRANCH   5  24
TORSDOF 8
ENDMDL
