MODEL 1
REMARK VINA RESULT:    -6.936      0.000      0.000
REMARK INTER + INTRA:          -9.839
REMARK INTER:                  -8.427
REMARK INTRA:                  -1.411
REMARK CONF_INDEPENDENT:        1.492
REMARK UNBOUND:                -1.411
REMARK  5 active torsions:
REMARK  status: ('A' for Active; 'I' for Inactive)
REMARK    1  A    between atoms: C_4  and  C_5 
REMARK       I    between atoms: C_5  and  N_7 
REMARK    2  A    between atoms: N_7  and  N_8 
REMARK       I    between atoms: N_8  and  C_9 
REMARK       I    between atoms: C_9  and  N_11 
REMARK    3  A    between atoms: N_11  and  C_12 
REMARK    4  A    between atoms: C_12  and  C_13 
REMARK    5  A    between atoms: C_18  and  N_19 
ROOT
ATOM      1  C   UNL d   1      25.184 -17.533  -0.492  0.00  0.00     0.270 C 
ATOM      2  O   UNL d   1      25.748 -17.952   0.525  0.00  0.00    -0.266 OA
ATOM      3  N   UNL d   1      23.821 -17.747  -0.709  0.00  0.00    -0.262 N 
ATOM      4  H   UNL d   1      23.304 -17.430  -1.526  0.00  0.00     0.190 HD
ENDROOT
BRANCH   1   5
ATOM      5  C   UNL d   1      25.992 -16.764  -1.532  0.00  0.00     0.034 A 
ATOM      6  C   UNL d   1      25.326 -15.973  -2.504  0.00  0.00     0.026 A 
ATOM      7  C   UNL d   1      26.023 -15.232  -3.507  0.00  0.00    -0.028 A 
ATOM      8  C   UNL d   1      25.235 -14.402  -4.491  0.00  0.00     0.050 C 
ATOM      9  C   UNL d   1      27.431 -15.298  -3.530  0.00  0.00     0.108 A 
ATOM     10  C   UNL d   1      28.097 -16.081  -2.569  0.00  0.00     0.037 A 
ATOM     11  C   UNL d   1      27.389 -16.797  -1.583  0.00  0.00     0.019 A 
BRANCH   9  12
ATOM     12  N   UNL d   1      28.264 -14.571  -4.526  0.00  0.00    -0.115 N 
ATOM     13  O   UNL d   1      27.966 -14.703  -5.722  0.00  0.00    -0.532 OA
ATOM     14  O   UNL d   1      29.208 -13.873  -4.134  0.00  0.00    -0.532 OA
ENDBRANCH   9  12
ENDBRANCH   1   5
BRANCH   3  15
ATOM     15  N   UNL d   1      23.028 -18.476   0.251  0.00  0.00    -0.249 N 
ATOM     16  C   UNL d   1      21.658 -18.585   0.056  0.00  0.00     0.334 C 
ATOM     17  O   UNL d   1      21.104 -18.057  -0.910  0.00  0.00    -0.246 OA
ATOM     18  N   UNL d   1      20.975 -19.325   1.019  0.00  0.00    -0.341 N 
ATOM     19  H   UNL d   1      21.451 -19.691   1.827  0.00  0.00     0.164 HD
ATOM     20  H   UNL d   1      23.527 -18.889   1.030  0.00  0.00     0.192 HD
BRANCH  18  21
ATOM     21  C   UNL d   1      19.534 -19.477   0.907  0.00  0.00     0.129 C 
BRANCH  21  22
ATOM     22  C   UNL d   1      18.926 -20.725   0.316  0.00  0.00     0.003 A 
ATOM     23  C   UNL d   1      18.061 -21.613   1.207  0.00  0.00     0.007 A 
ATOM     24  C   UNL d   1      17.556 -21.199  -0.138  0.00  0.00     0.007 A 
ENDBRANCH  21  22
ENDBRANCH  18  21
ENDBRANCH   3  15
TORSDOF 5
ENDMDL
MODEL 2
REMARK VINA RESULT:    -6.893      0.446      1.676
REMARK INTER + INTRA:          -9.818
REMARK INTER:                  -8.385
REMARK INTRA:                  -1.433
REMARK CONF_INDEPENDENT:        1.492
REMARK UNBOUND:                -1.433
REMARK  5 active torsions:
REMARK  status: ('A' for Active; 'I' for Inactive)
REMARK    1  A    between atoms: C_4  and  C_5 
REMARK       I    between atoms: C_5  and  N_7 
REMARK    2  A    between atoms: N_7  and  N_8 
REMARK       I    between atoms: N_8  and  C_9 
REMARK       I    between atoms: C_9  and  N_11 
REMARK    3  A    between atoms: N_11  and  C_12 
REMARK    4  A    between atoms: C_12  and  C_13 
REMARK    5  A    between atoms: C_18  and  N_19 
ROOT
ATOM      1  C   UNL d   1      25.023 -17.515  -0.436  0.00  0.00     0.270 C 
ATOM      2  O   UNL d   1      25.627 -17.869   0.583  0.00  0.00    -0.266 OA
ATOM      3  N   UNL d   1      23.655 -17.750  -0.589  0.00  0.00    -0.262 N 
ATOM      4  H   UNL d   1      23.106 -17.486  -1.404  0.00  0.00     0.190 HD
ENDROOT
BRANCH   1   5
ATOM      5  C   UNL d   1      25.786 -16.805  -1.549  0.00  0.00     0.034 A 
ATOM      6  C   UNL d   1      27.201 -16.712  -1.491  0.00  0.00     0.026 A 
ATOM      7  C   UNL d   1      27.975 -16.057  -2.497  0.00  0.00    -0.028 A 
ATOM      8  C   UNL d   1      29.478 -16.021  -2.364  0.00  0.00     0.050 C 
ATOM      9  C   UNL d   1      27.298 -15.478  -3.589  0.00  0.00     0.108 A 
ATOM     10  C   UNL d   1      25.896 -15.567  -3.654  0.00  0.00     0.037 A 
ATOM     11  C   UNL d   1      25.153 -16.224  -2.652  0.00  0.00     0.019 A 
BRANCH   9  12
ATOM     12  N   UNL d   1      27.997 -14.771  -4.698  0.00  0.00    -0.115 N 
ATOM     13  O   UNL d   1      28.726 -13.815  -4.393  0.00  0.00    -0.532 OA
ATOM     14  O   UNL d   1      27.829 -15.153  -5.863  0.00  0.00    -0.532 OA
ENDBRANCH   9  12
ENDBRANCH   1   5
BRANCH   3  15
ATOM     15  N   UNL d   1      22.904 -18.425   0.441  0.00  0.00    -0.249 N 
ATOM     16  C   UNL d   1      21.540 -18.624   0.267  0.00  0.00     0.334 C 
ATOM     17  O   UNL d   1      20.958 -18.222  -0.742  0.00  0.00    -0.246 OA
ATOM     18  N   UNL d   1      20.900 -19.304   1.300  0.00  0.00    -0.341 N 
ATOM     19  H   UNL d   1      21.396 -19.565   2.137  0.00  0.00     0.164 HD
ATOM     20  H   UNL d   1      23.425 -18.734   1.252  0.00  0.00     0.192 HD
BRANCH  18  21
ATOM     21  C   UNL d   1      19.469 -19.542   1.213  0.00  0.00     0.129 C 
BRANCH  21  22
ATOM     22  C   UNL d   1      18.923 -20.770   0.528  0.00  0.00     0.003 A 
ATOM     23  C   UNL d   1      17.896 -21.626   1.265  0.00  0.00     0.007 A 
ATOM     24  C   UNL d   1      17.631 -21.200  -0.144  0.00  0.00     0.007 A 
ENDBRANCH  21  22
ENDBRANCH  18  21
ENDBRANCH   3  15
TORSDOF 5
ENDMDL
MODEL 3
REMARK VINA RESULT:    -6.854      1.725      1.870
REMARK INTER + INTRA:          -9.735
REMARK INTER:                  -8.345
REMARK INTRA:                  -1.389
REMARK CONF_INDEPENDENT:        1.492
REMARK UNBOUND:                -1.389
REMARK  5 active torsions:
REMARK  status: ('A' for Active; 'I' for Inactive)
REMARK    1  A    between atoms: C_4  and  C_5 
REMARK       I    between atoms: C_5  and  N_7 
REMARK    2  A    between atoms: N_7  and  N_8 
REMARK       I    between atoms: N_8  and  C_9 
REMARK       I    between atoms: C_9  and  N_11 
REMARK    3  A    between atoms: N_11  and  C_12 
REMARK    4  A    between atoms: C_12  and  C_13 
REMARK    5  A    between atoms: C_18  and  N_19 
ROOT
ATOM      1  C   UNL d   1      24.834 -17.227  -0.517  0.00  0.00     0.270 C 
ATOM      2  O   UNL d   1      25.555 -18.107  -0.033  0.00  0.00    -0.266 OA
ATOM      3  N   UNL d   1      23.450 -17.386  -0.604  0.00  0.00    -0.262 N 
ATOM      4  H   UNL d   1      22.808 -16.701  -0.995  0.00  0.00     0.190 HD
ENDROOT
BRANCH   1   5
ATOM      5  C   UNL d   1      25.470 -15.940  -1.031  0.00  0.00     0.034 A 
ATOM      6  C   UNL d   1      25.158 -15.464  -2.331  0.00  0.00     0.026 A 
ATOM      7  C   UNL d   1      25.722 -14.268  -2.873  0.00  0.00    -0.028 A 
ATOM      8  C   UNL d   1      25.319 -13.826  -4.259  0.00  0.00     0.050 C 
ATOM      9  C   UNL d   1      26.630 -13.539  -2.080  0.00  0.00     0.108 A 
ATOM     10  C   UNL d   1      26.944 -14.004  -0.790  0.00  0.00     0.037 A 
ATOM     11  C   UNL d   1      26.369 -15.183  -0.273  0.00  0.00     0.019 A 
BRANCH   9  12
ATOM     12  N   UNL d   1      27.280 -12.279  -2.536  0.00  0.00    -0.115 N 
ATOM     13  O   UNL d   1      26.540 -11.371  -2.940  0.00  0.00    -0.532 OA
ATOM     14  O   UNL d   1      28.514 -12.185  -2.497  0.00  0.00    -0.532 OA
ENDBRANCH   9  12
ENDBRANCH   1   5
BRANCH   3  15
ATOM     15  N   UNL d   1      22.816 -18.594  -0.134  0.00  0.00    -0.249 N 
ATOM     16  C   UNL d   1      21.499 -18.852  -0.488  0.00  0.00     0.334 C 
ATOM     17  O   UNL d   1      20.855 -18.061  -1.181  0.00  0.00    -0.246 OA
ATOM     18  N   UNL d   1      20.975 -20.051  -0.010  0.00  0.00    -0.341 N 
ATOM     19  H   UNL d   1      21.510 -20.643   0.604  0.00  0.00     0.164 HD
ATOM     20  H   UNL d   1      23.384 -19.211   0.435  0.00  0.00     0.192 HD
BRANCH  18  21
ATOM     21  C   UNL d   1      19.597 -20.395  -0.315  0.00  0.00     0.129 C 
BRANCH  21  22
ATOM     22  C   UNL d   1      18.518 -20.294   0.734  0.00  0.00     0.003 A 
ATOM     23  C   UNL d   1      17.974 -21.578   1.355  0.00  0.00     0.007 A 
ATOM     24  C   UNL d   1      18.399 -20.450   2.240  0.00  0.00     0.007 A 
ENDBRANCH  21  22
ENDBRANCH  18  21
ENDBRANCH   3  15
TORSDOF 5
ENDMDL
MODEL 4
REMARK VINA RESULT:    -6.447      1.834      2.210
REMARK INTER + INTRA:          -9.341
REMARK INTER:                  -7.939
REMARK INTRA:                  -1.403
REMARK CONF_INDEPENDENT:        1.492
REMARK UNBOUND:                -1.403
REMARK  5 active torsions:
REMARK  status: ('A' for Active; 'I' for Inactive)
REMARK    1  A    between atoms: C_4  and  C_5 
REMARK       I    between atoms: C_5  and  N_7 
REMARK    2  A    between atoms: N_7  and  N_8 
REMARK       I    between atoms: N_8  and  C_9 
REMARK       I    between atoms: C_9  and  N_11 
REMARK    3  A    between atoms: N_11  and  C_12 
REMARK    4  A    between atoms: C_12  and  C_13 
REMARK    5  A    between atoms: C_18  and  N_19 
ROOT
ATOM      1  C   UNL d   1      24.961 -17.075  -0.908  0.00  0.00     0.270 C 
ATOM      2  O   UNL d   1      25.715 -17.904  -0.386  0.00  0.00    -0.266 OA
ATOM      3  N   UNL d   1      23.578 -17.264  -0.934  0.00  0.00    -0.262 N 
ATOM      4  H   UNL d   1      22.909 -16.620  -1.352  0.00  0.00     0.190 HD
ENDROOT
BRANCH   1   5
ATOM      5  C   UNL d   1      25.553 -15.818  -1.537  0.00  0.00     0.034 A 
ATOM      6  C   UNL d   1      26.178 -14.842  -0.718  0.00  0.00     0.026 A 
ATOM      7  C   UNL d   1      26.748 -13.642  -1.243  0.00  0.00    -0.028 A 
ATOM      8  C   UNL d   1      27.409 -12.667  -0.300  0.00  0.00     0.050 C 
ATOM      9  C   UNL d   1      26.678 -13.421  -2.633  0.00  0.00     0.108 A 
ATOM     10  C   UNL d   1      26.061 -14.385  -3.451  0.00  0.00     0.037 A 
ATOM     11  C   UNL d   1      25.512 -15.566  -2.912  0.00  0.00     0.019 A 
BRANCH   9  12
ATOM     12  N   UNL d   1      27.236 -12.210  -3.294  0.00  0.00    -0.115 N 
ATOM     13  O   UNL d   1      26.752 -11.114  -2.975  0.00  0.00    -0.532 OA
ATOM     14  O   UNL d   1      28.147 -12.335  -4.123  0.00  0.00    -0.532 OA
ENDBRANCH   9  12
ENDBRANCH   1   5
BRANCH   3  15
ATOM     15  N   UNL d   1      22.984 -18.444  -0.355  0.00  0.00    -0.249 N 
ATOM     16  C   UNL d   1      21.620 -18.659  -0.499  0.00  0.00     0.334 C 
ATOM     17  O   UNL d   1      20.904 -17.854  -1.097  0.00  0.00    -0.246 OA
ATOM     18  N   UNL d   1      21.138 -19.835   0.072  0.00  0.00    -0.341 N 
ATOM     19  H   UNL d   1      21.741 -20.440   0.605  0.00  0.00     0.164 HD
ATOM     20  H   UNL d   1      23.612 -19.075   0.130  0.00  0.00     0.192 HD
BRANCH  18  21
ATOM     21  C   UNL d   1      19.718 -20.134  -0.013  0.00  0.00     0.129 C 
BRANCH  21  22
ATOM     22  C   UNL d   1      19.055 -21.057   0.979  0.00  0.00     0.003 A 
ATOM     23  C   UNL d   1      18.220 -20.450   2.103  0.00  0.00     0.007 A 
ATOM     24  C   UNL d   1      17.655 -21.562   1.279  0.00  0.00     0.007 A 
ENDBRANCH  21  22
ENDBRANCH  18  21
ENDBRANCH   3  15
TORSDOF 5
ENDMDL
MODEL 5
REMARK VINA RESULT:    -6.329      1.197      2.023
REMARK INTER + INTRA:          -9.131
REMARK INTER:                  -7.821
REMARK INTRA:                  -1.311
REMARK CONF_INDEPENDENT:        1.492
REMARK UNBOUND:                -1.311
REMARK  5 active torsions:
REMARK  status: ('A' for Active; 'I' for Inactive)
REMARK    1  A    between atoms: C_4  and  C_5 
REMARK       I    between atoms: C_5  and  N_7 
REMARK    2  A    between atoms: N_7  and  N_8 
REMARK       I    between atoms: N_8  and  C_9 
REMARK       I    between atoms: C_9  and  N_11 
REMARK    3  A    between atoms: N_11  and  C_12 
REMARK    4  A    between atoms: C_12  and  C_13 
REMARK    5  A    between atoms: C_18  and  N_19 
ROOT
ATOM      1  C   UNL d   1      24.923 -16.356  -1.222  0.00  0.00     0.270 C 
ATOM      2  O   UNL d   1      24.815 -15.643  -0.218  0.00  0.00    -0.266 OA
ATOM      3  N   UNL d   1      24.085 -17.454  -1.428  0.00  0.00    -0.262 N 
ATOM      4  H   UNL d   1      24.129 -18.079  -2.230  0.00  0.00     0.190 HD
ENDROOT
BRANCH   1   5
ATOM      5  C   UNL d   1      25.993 -16.031  -2.259  0.00  0.00     0.034 A 
ATOM      6  C   UNL d   1      27.355 -16.327  -1.990  0.00  0.00     0.026 A 
ATOM      7  C   UNL d   1      28.405 -16.044  -2.916  0.00  0.00    -0.028 A 
ATOM      8  C   UNL d   1      29.824 -16.409  -2.554  0.00  0.00     0.050 C 
ATOM      9  C   UNL d   1      28.069 -15.440  -4.144  0.00  0.00     0.108 A 
ATOM     10  C   UNL d   1      26.721 -15.144  -4.417  0.00  0.00     0.037 A 
ATOM     11  C   UNL d   1      25.700 -15.440  -3.492  0.00  0.00     0.019 A 
BRANCH   9  12
ATOM     12  N   UNL d   1      29.076 -15.099  -5.186  0.00  0.00    -0.115 N 
ATOM     13  O   UNL d   1      28.880 -15.533  -6.330  0.00  0.00    -0.532 OA
ATOM     14  O   UNL d   1      30.054 -14.405  -4.880  0.00  0.00    -0.532 OA
ENDBRANCH   9  12
ENDBRANCH   1   5
BRANCH   3  15
ATOM     15  N   UNL d   1      23.067 -17.794  -0.465  0.00  0.00    -0.249 N 
ATOM     16  C   UNL d   1      22.042 -18.656  -0.835  0.00  0.00     0.334 C 
ATOM     17  O   UNL d   1      21.977 -19.121  -1.974  0.00  0.00    -0.246 OA
ATOM     18  N   UNL d   1      21.117 -18.947   0.165  0.00  0.00    -0.341 N 
ATOM     19  H   UNL d   1      21.168 -18.501   1.067  0.00  0.00     0.164 HD
ATOM     20  H   UNL d   1      23.161 -17.385   0.458  0.00  0.00     0.192 HD
BRANCH  18  21
ATOM     21  C   UNL d   1      19.999 -19.825  -0.137  0.00  0.00     0.129 C 
BRANCH  21  22
ATOM     22  C   UNL d   1      18.920 -20.092   0.882  0.00  0.00     0.003 A 
ATOM     23  C   UNL d   1      18.315 -21.491   0.963  0.00  0.00     0.007 A 
ATOM     24  C   UNL d   1      18.785 -20.815   2.211  0.00  0.00     0.007 A 
ENDBRANCH  21  22
ENDBRANCH  18  21
ENDBRANCH   3  15
TORSDOF 5
ENDMDL
MODEL 6
REMARK VINA RESULT:    -6.035      3.379      9.344
REMARK INTER + INTRA:          -8.600
REMARK INTER:                  -7.527
REMARK INTRA:                  -1.073
REMARK CONF_INDEPENDENT:        1.492
REMARK UNBOUND:                -1.073
REMARK  5 active torsions:
REMARK  status: ('A' for Active; 'I' for Inactive)
REMARK    1  A    between atoms: C_4  and  C_5 
REMARK       I    between atoms: C_5  and  N_7 
REMARK    2  A    between atoms: N_7  and  N_8 
REMARK       I    between atoms: N_8  and  C_9 
REMARK       I    between atoms: C_9  and  N_11 
REMARK    3  A    between atoms: N_11  and  C_12 
REMARK    4  A    between atoms: C_12  and  C_13 
REMARK    5  A    between atoms: C_18  and  N_19 
ROOT
ATOM      1  C   UNL d   1      22.774 -17.606  -0.563  0.00  0.00     0.270 C 
ATOM      2  O   UNL d   1      22.609 -16.403  -0.794  0.00  0.00    -0.266 OA
ATOM      3  N   UNL d   1      24.048 -18.177  -0.556  0.00  0.00    -0.262 N 
ATOM      4  H   UNL d   1      24.245 -19.160  -0.377  0.00  0.00     0.190 HD
ENDROOT
BRANCH   1   5
ATOM      5  C   UNL d   1      21.561 -18.486  -0.279  0.00  0.00     0.034 A 
ATOM      6  C   UNL d   1      21.313 -18.948   1.040  0.00  0.00     0.026 A 
ATOM      7  C   UNL d   1      20.199 -19.777   1.372  0.00  0.00    -0.028 A 
ATOM      8  C   UNL d   1      20.002 -20.208   2.805  0.00  0.00     0.050 C 
ATOM      9  C   UNL d   1      19.315 -20.153   0.341  0.00  0.00     0.108 A 
ATOM     10  C   UNL d   1      19.554 -19.699  -0.969  0.00  0.00     0.037 A 
ATOM     11  C   UNL d   1      20.656 -18.874  -1.272  0.00  0.00     0.019 A 
BRANCH   9  12
ATOM     12  N   UNL d   1      18.121 -21.013   0.565  0.00  0.00    -0.115 N 
ATOM     13  O   UNL d   1      18.016 -21.564   1.671  0.00  0.00    -0.532 OA
ATOM     14  O   UNL d   1      17.289 -21.147  -0.342  0.00  0.00    -0.532 OA
ENDBRANCH   9  12
ENDBRANCH   1   5
BRANCH   3  15
ATOM     15  N   UNL d   1      25.216 -17.376  -0.827  0.00  0.00    -0.249 N 
ATOM     16  C   UNL d   1      26.449 -17.785  -0.336  0.00  0.00     0.334 C 
ATOM     17  O   UNL d   1      26.562 -18.809   0.341  0.00  0.00    -0.246 OA
ATOM     18  N   UNL d   1      27.525 -16.964  -0.665  0.00  0.00    -0.341 N 
ATOM     19  H   UNL d   1      27.387 -16.103  -1.169  0.00  0.00     0.164 HD
ATOM     20  H   UNL d   1      25.073 -16.542  -1.384  0.00  0.00     0.192 HD
BRANCH  18  21
ATOM     21  C   UNL d   1      28.851 -17.304  -0.179  0.00  0.00     0.129 C 
BRANCH  21  22
ATOM     22  C   UNL d   1      30.087 -16.692  -0.792  0.00  0.00     0.003 A 
ATOM     23  C   UNL d   1      30.791 -17.437  -1.923  0.00  0.00     0.007 A 
ATOM     24  C   UNL d   1      30.468 -15.985  -2.081  0.00  0.00     0.007 A 
ENDBRANCH  21  22
ENDBRANCH  18  21
ENDBRANCH   3  15
TORSDOF 5
ENDMDL
MODEL 7
REMARK VINA RESULT:    -5.987      1.972      2.646
REMARK INTER + INTRA:          -8.923
REMARK INTER:                  -7.478
REMARK INTRA:                  -1.445
REMARK CONF_INDEPENDENT:        1.492
REMARK UNBOUND:                -1.445
REMARK  5 active torsions:
REMARK  status: ('A' for Active; 'I' for Inactive)
REMARK    1  A    between atoms: C_4  and  C_5 
REMARK       I    between atoms: C_5  and  N_7 
REMARK    2  A    between atoms: N_7  and  N_8 
REMARK       I    between atoms: N_8  and  C_9 
REMARK       I    between atoms: C_9  and  N_11 
REMARK    3  A    between atoms: N_11  and  C_12 
REMARK    4  A    between atoms: C_12  and  C_13 
REMARK    5  A    between atoms: C_18  and  N_19 
ROOT
ATOM      1  C   UNL d   1      25.499 -16.281  -2.292  0.00  0.00     0.270 C 
ATOM      2  O   UNL d   1      26.426 -17.023  -1.948  0.00  0.00    -0.266 OA
ATOM      3  N   UNL d   1      24.194 -16.490  -1.840  0.00  0.00    -0.262 N 
ATOM      4  H   UNL d   1      23.392 -15.916  -2.091  0.00  0.00     0.190 HD
ENDROOT
BRANCH   1   5
ATOM      5  C   UNL d   1      25.785 -15.112  -3.228  0.00  0.00     0.034 A 
ATOM      6  C   UNL d   1      26.780 -15.234  -4.232  0.00  0.00     0.026 A 
ATOM      7  C   UNL d   1      27.100 -14.177  -5.138  0.00  0.00    -0.028 A 
ATOM      8  C   UNL d   1      28.160 -14.401  -6.188  0.00  0.00     0.050 C 
ATOM      9  C   UNL d   1      26.398 -12.961  -5.019  0.00  0.00     0.108 A 
ATOM     10  C   UNL d   1      25.410 -12.832  -4.025  0.00  0.00     0.037 A 
ATOM     11  C   UNL d   1      25.106 -13.892  -3.148  0.00  0.00     0.019 A 
BRANCH   9  12
ATOM     12  N   UNL d   1      26.643 -11.789  -5.904  0.00  0.00    -0.115 N 
ATOM     13  O   UNL d   1      25.667 -11.314  -6.503  0.00  0.00    -0.532 OA
ATOM     14  O   UNL d   1      27.791 -11.338  -6.010  0.00  0.00    -0.532 OA
ENDBRANCH   9  12
ENDBRANCH   1   5
BRANCH   3  15
ATOM     15  N   UNL d   1      23.887 -17.589  -0.959  0.00  0.00    -0.249 N 
ATOM     16  C   UNL d   1      22.577 -17.777  -0.538  0.00  0.00     0.334 C 
ATOM     17  O   UNL d   1      21.676 -17.012  -0.888  0.00  0.00    -0.246 OA
ATOM     18  N   UNL d   1      22.368 -18.876   0.292  0.00  0.00    -0.341 N 
ATOM     19  H   UNL d   1      23.137 -19.444   0.606  0.00  0.00     0.164 HD
ATOM     20  H   UNL d   1      24.660 -18.189  -0.696  0.00  0.00     0.192 HD
BRANCH  18  21
ATOM     21  C   UNL d   1      21.031 -19.139   0.797  0.00  0.00     0.129 C 
BRANCH  21  22
ATOM     22  C   UNL d   1      20.107 -20.101   0.092  0.00  0.00     0.003 A 
ATOM     23  C   UNL d   1      18.899 -20.648   0.850  0.00  0.00     0.007 A 
ATOM     24  C   UNL d   1      18.717 -20.077  -0.521  0.00  0.00     0.007 A 
ENDBRANCH  21  22
ENDBRANCH  18  21
ENDBRANCH   3  15
TORSDOF 5
ENDMDL
MODEL 8
REMARK VINA RESULT:    -5.603      2.583      3.727
REMARK INTER + INTRA:          -8.416
REMARK INTER:                  -7.094
REMARK INTRA:                  -1.322
REMARK CONF_INDEPENDENT:        1.492
REMARK UNBOUND:                -1.322
REMARK  5 active torsions:
REMARK  status: ('A' for Active; 'I' for Inactive)
REMARK    1  A    between atoms: C_4  and  C_5 
REMARK       I    between atoms: C_5  and  N_7 
REMARK    2  A    between atoms: N_7  and  N_8 
REMARK       I    between atoms: N_8  and  C_9 
REMARK       I    between atoms: C_9  and  N_11 
REMARK    3  A    between atoms: N_11  and  C_12 
REMARK    4  A    between atoms: C_12  and  C_13 
REMARK    5  A    between atoms: C_18  and  N_19 
ROOT
ATOM      1  C   UNL d   1      25.862 -15.182  -3.832  0.00  0.00     0.270 C 
ATOM      2  O   UNL d   1      24.968 -14.424  -4.224  0.00  0.00    -0.266 OA
ATOM      3  N   UNL d   1      25.664 -16.043  -2.752  0.00  0.00    -0.262 N 
ATOM      4  H   UNL d   1      26.362 -16.686  -2.382  0.00  0.00     0.190 HD
ENDROOT
BRANCH   1   5
ATOM      5  C   UNL d   1      27.211 -15.177  -4.544  0.00  0.00     0.034 A 
ATOM      6  C   UNL d   1      27.397 -14.386  -5.707  0.00  0.00     0.026 A 
ATOM      7  C   UNL d   1      28.632 -14.340  -6.422  0.00  0.00    -0.028 A 
ATOM      8  C   UNL d   1      28.747 -13.456  -7.640  0.00  0.00     0.050 C 
ATOM      9  C   UNL d   1      29.707 -15.121  -5.950  0.00  0.00     0.108 A 
ATOM     10  C   UNL d   1      29.530 -15.908  -4.798  0.00  0.00     0.037 A 
ATOM     11  C   UNL d   1      28.303 -15.931  -4.104  0.00  0.00     0.019 A 
BRANCH   9  12
ATOM     12  N   UNL d   1      31.040 -15.155  -6.611  0.00  0.00    -0.115 N 
ATOM     13  O   UNL d   1      31.573 -14.066  -6.873  0.00  0.00    -0.532 OA
ATOM     14  O   UNL d   1      31.562 -16.247  -6.871  0.00  0.00    -0.532 OA
ENDBRANCH   9  12
ENDBRANCH   1   5
BRANCH   3  15
ATOM     15  N   UNL d   1      24.403 -16.069  -2.052  0.00  0.00    -0.249 N 
ATOM     16  C   UNL d   1      24.086 -17.167  -1.263  0.00  0.00     0.334 C 
ATOM     17  O   UNL d   1      24.853 -18.127  -1.163  0.00  0.00    -0.246 OA
ATOM     18  N   UNL d   1      22.860 -17.097  -0.606  0.00  0.00    -0.341 N 
ATOM     19  H   UNL d   1      22.232 -16.324  -0.758  0.00  0.00     0.164 HD
ATOM     20  H   UNL d   1      23.805 -15.260  -2.167  0.00  0.00     0.192 HD
BRANCH  18  21
ATOM     21  C   UNL d   1      22.436 -18.209   0.227  0.00  0.00     0.129 C 
BRANCH  21  22
ATOM     22  C   UNL d   1      21.495 -19.264  -0.300  0.00  0.00     0.003 A 
ATOM     23  C   UNL d   1      20.297 -19.672   0.554  0.00  0.00     0.007 A 
ATOM     24  C   UNL d   1      20.096 -19.326  -0.887  0.00  0.00     0.007 A 
ENDBRANCH  21  22
ENDBRANCH  18  21
ENDBRANCH   3  15
TORSDOF 5
ENDMDL
MODEL 9
REMARK VINA RESULT:    -5.585      6.077      8.124
REMARK INTER + INTRA:          -8.405
REMARK INTER:                  -7.076
REMARK INTRA:                  -1.329
REMARK CONF_INDEPENDENT:        1.492
REMARK UNBOUND:                -1.329
REMARK  5 active torsions:
REMARK  status: ('A' for Active; 'I' for Inactive)
REMARK    1  A    between atoms: C_4  and  C_5 
REMARK       I    between atoms: C_5  and  N_7 
REMARK    2  A    between atoms: N_7  and  N_8 
REMARK       I    between atoms: N_8  and  C_9 
REMARK       I    between atoms: C_9  and  N_11 
REMARK    3  A    between atoms: N_11  and  C_12 
REMARK    4  A    between atoms: C_12  and  C_13 
REMARK    5  A    between atoms: C_18  and  N_19 
ROOT
ATOM      1  C   UNL d   1      28.347 -15.110   1.031  0.00  0.00     0.270 C 
ATOM      2  O   UNL d   1      29.492 -15.572   0.980  0.00  0.00    -0.266 OA
ATOM      3  N   UNL d   1      27.794 -14.669   2.235  0.00  0.00    -0.262 N 
ATOM      4  H   UNL d   1      26.857 -14.284   2.340  0.00  0.00     0.190 HD
ENDROOT
BRANCH   1   5
ATOM      5  C   UNL d   1      27.519 -15.019  -0.247  0.00  0.00     0.034 A 
ATOM      6  C   UNL d   1      26.573 -16.031  -0.553  0.00  0.00     0.026 A 
ATOM      7  C   UNL d   1      25.770 -16.008  -1.734  0.00  0.00    -0.028 A 
ATOM      8  C   UNL d   1      24.776 -17.118  -1.971  0.00  0.00     0.050 C 
ATOM      9  C   UNL d   1      25.934 -14.934  -2.632  0.00  0.00     0.108 A 
ATOM     10  C   UNL d   1      26.870 -13.926  -2.335  0.00  0.00     0.037 A 
ATOM     11  C   UNL d   1      27.646 -13.967  -1.159  0.00  0.00     0.019 A 
BRANCH   9  12
ATOM     12  N   UNL d   1      25.155 -14.802  -3.894  0.00  0.00    -0.115 N 
ATOM     13  O   UNL d   1      24.148 -14.079  -3.868  0.00  0.00    -0.532 OA
ATOM     14  O   UNL d   1      25.532 -15.405  -4.906  0.00  0.00    -0.532 OA
ENDBRANCH   9  12
ENDBRANCH   1   5
BRANCH   3  15
ATOM     15  N   UNL d   1      28.545 -14.747   3.463  0.00  0.00    -0.249 N 
ATOM     16  C   UNL d   1      28.117 -14.024   4.569  0.00  0.00     0.334 C 
ATOM     17  O   UNL d   1      27.117 -13.305   4.516  0.00  0.00    -0.246 OA
ATOM     18  N   UNL d   1      28.889 -14.177   5.718  0.00  0.00    -0.341 N 
ATOM     19  H   UNL d   1      29.733 -14.725   5.708  0.00  0.00     0.164 HD
ATOM     20  H   UNL d   1      29.361 -15.348   3.458  0.00  0.00     0.192 HD
BRANCH  18  21
ATOM     21  C   UNL d   1      28.526 -13.444   6.919  0.00  0.00     0.129 C 
BRANCH  21  22
ATOM     22  C   UNL d   1      29.177 -13.749   8.245  0.00  0.00     0.003 A 
ATOM     23  C   UNL d   1      28.555 -13.179   9.518  0.00  0.00     0.007 A 
ATOM     24  C   UNL d   1      28.906 -14.631   9.452  0.00  0.00     0.007 A 
ENDBRANCH  21  22
ENDBRANCH  18  21
ENDBRANCH   3  15
TORSDOF 5
ENDMDL
