MODEL 1
REMARK VINA RESULT:    -8.300      0.000      0.000
REMARK INTER + INTRA:          -9.868
REMARK INTER:                  -9.194
REMARK INTRA:                  -0.674
REMARK CONF_INDEPENDENT:        0.895
REMARK UNBOUND:                -0.674
REMARK  3 active torsions:
REMARK  status: ('A' for Active; 'I' for Inactive)
REMARK       I    between atoms: N_1  and  C_2 
REMARK    1  A    between atoms: C_2  and  C_4 
REMARK       I    between atoms: N_7  and  C_8 
REMARK    2  A    between atoms: C_8  and  C_10 
REMARK    3  A    between atoms: C_13  and  N_14 
ROOT
ATOM      1  C   UNL d   1      27.704 -12.413   3.290  0.00  0.00     0.032 C 
ATOM      2  C   UNL d   1      28.608 -13.393   2.858  0.00  0.00     0.019 C 
ATOM      3  C   UNL d   1      28.488 -13.974   1.563  0.00  0.00     0.032 C 
ATOM      4  C   UNL d   1      27.444 -13.620   0.694  0.00  0.00     0.059 C 
ATOM      5  C   UNL d   1      26.664 -12.549   1.152  0.00  0.00     0.032 C 
ATOM      6  C   UNL d   1      26.740 -11.979   2.413  0.00  0.00     0.019 C 
ENDROOT
BRANCH   1   7
ATOM      7  C   UNL d   1      27.820 -11.678   4.571  0.00  0.00     0.253 C 
ATOM      8  N   UNL d   1      28.113 -12.392   5.735  0.00  0.00    -0.348 N 
ATOM      9  C   UNL d   1      28.192 -11.700   7.022  0.00  0.00     0.127 C 
ATOM     10  C   UNL d   1      28.455 -13.812   5.799  0.00  0.00     0.127 C 
ATOM     11  C   UNL d   1      29.608 -11.820   7.594  0.00  0.00     0.034 C 
ATOM     12  C   UNL d   1      30.051 -13.292   7.689  0.00  0.00     0.081 C 
ATOM     13  C   UNL d   1      29.875 -13.984   6.328  0.00  0.00     0.034 C 
ATOM     14  O   UNL d   1      27.587 -10.473   4.548  0.00  0.00    -0.267 OA
BRANCH  12  15
ATOM     15  C   UNL d   1      29.278 -14.068   8.756  0.00  0.00     0.219 C 
ATOM     16  N   UNL d   1      29.848 -15.200   9.236  0.00  0.00    -0.370 N 
ATOM     17  H   UNL d   1      29.298 -15.711   9.916  0.00  0.00     0.159 HD
ATOM     18  H   UNL d   1      30.664 -15.641   8.840  0.00  0.00     0.159 HD
ATOM     19  O   UNL d   1      28.188 -13.727   9.204  0.00  0.00    -0.273 OA
ENDBRANCH  12  15
ENDBRANCH   1   7
BRANCH   4  20
ATOM     20  N   UNL d   1      27.261 -14.308  -0.560  0.00  0.00    -0.225 NA
ATOM     21  C   UNL d   1      26.998 -15.575  -0.674  0.00  0.00     0.163 C 
ATOM     22  N   UNL d   1      26.752 -16.319  -1.811  0.00  0.00    -0.362 N 
ATOM     23  S   UNL d   1      26.839 -16.721   0.653  0.00  0.00    -0.084 SA
ATOM     24  C   UNL d   1      25.697 -17.335  -1.645  0.00  0.00     0.112 C 
ATOM     25  H   UNL d   1      26.947 -15.937  -2.730  0.00  0.00     0.162 HD
ATOM     26  C   UNL d   1      24.327 -16.668  -1.718  0.00  0.00     0.166 C 
ATOM     27  C   UNL d   1      25.883 -17.928  -0.240  0.00  0.00     0.093 C 
ATOM     28  S   UNL d   1      23.293 -17.533  -0.576  0.00  0.00     0.147 S 
ATOM     29  O   UNL d   1      22.529 -16.550   0.181  0.00  0.00    -0.228 OA
ATOM     30  O   UNL d   1      22.666 -18.625  -1.271  0.00  0.00    -0.228 OA
ATOM     31  C   UNL d   1      24.564 -18.201   0.459  0.00  0.00     0.158 C 
ENDBRANCH   4  20
TORSDOF 3
ENDMDL
MODEL 2
REMARK VINA RESULT:    -7.774      2.197      2.455
REMARK INTER + INTRA:          -9.361
REMARK INTER:                  -8.669
REMARK INTRA:                  -0.692
REMARK CONF_INDEPENDENT:        0.895
REMARK UNBOUND:                -0.692
REMARK  3 active torsions:
REMARK  status: ('A' for Active; 'I' for Inactive)
REMARK       I    between atoms: N_1  and  C_2 
REMARK    1  A    between atoms: C_2  and  C_4 
REMARK       I    between atoms: N_7  and  C_8 
REMARK    2  A    between atoms: C_8  and  C_10 
REMARK    3  A    between atoms: C_13  and  N_14 
ROOT
ATOM      1  C   UNL d   1      28.487 -12.985   4.043  0.00  0.00     0.032 C 
ATOM      2  C   UNL d   1      29.349 -12.529   3.038  0.00  0.00     0.019 C 
ATOM      3  C   UNL d   1      29.474 -13.238   1.809  0.00  0.00     0.032 C 
ATOM      4  C   UNL d   1      28.776 -14.433   1.578  0.00  0.00     0.059 C 
ATOM      5  C   UNL d   1      27.846 -14.749   2.579  0.00  0.00     0.032 C 
ATOM      6  C   UNL d   1      27.717 -14.095   3.793  0.00  0.00     0.019 C 
ENDROOT
BRANCH   1   7
ATOM      7  C   UNL d   1      28.213 -12.252   5.301  0.00  0.00     0.253 C 
ATOM      8  N   UNL d   1      28.456 -12.888   6.520  0.00  0.00    -0.348 N 
ATOM      9  C   UNL d   1      28.155 -12.205   7.779  0.00  0.00     0.127 C 
ATOM     10  C   UNL d   1      29.093 -14.193   6.687  0.00  0.00     0.127 C 
ATOM     11  C   UNL d   1      29.442 -12.003   8.585  0.00  0.00     0.034 C 
ATOM     12  C   UNL d   1      30.183 -13.335   8.801  0.00  0.00     0.081 C 
ATOM     13  C   UNL d   1      30.403 -14.040   7.453  0.00  0.00     0.034 C 
ATOM     14  O   UNL d   1      27.721 -11.132   5.200  0.00  0.00    -0.267 OA
BRANCH  12  15
ATOM     15  C   UNL d   1      29.433 -14.275   9.747  0.00  0.00     0.219 C 
ATOM     16  N   UNL d   1      29.884 -15.550   9.841  0.00  0.00    -0.370 N 
ATOM     17  H   UNL d   1      29.347 -16.158  10.449  0.00  0.00     0.159 HD
ATOM     18  H   UNL d   1      30.574 -15.959   9.230  0.00  0.00     0.159 HD
ATOM     19  O   UNL d   1      28.465 -13.945  10.425  0.00  0.00    -0.273 OA
ENDBRANCH  12  15
ENDBRANCH   1   7
BRANCH   4  20
ATOM     20  N   UNL d   1      29.009 -15.207   0.383  0.00  0.00    -0.225 NA
ATOM     21  C   UNL d   1      28.081 -15.815  -0.293  0.00  0.00     0.163 C 
ATOM     22  N   UNL d   1      28.182 -16.532  -1.469  0.00  0.00    -0.362 N 
ATOM     23  S   UNL d   1      26.367 -15.856   0.109  0.00  0.00    -0.084 SA
ATOM     24  C   UNL d   1      27.054 -16.325  -2.395  0.00  0.00     0.112 C 
ATOM     25  H   UNL d   1      29.089 -16.807  -1.829  0.00  0.00     0.162 HD
ATOM     26  C   UNL d   1      27.228 -14.996  -3.125  0.00  0.00     0.166 C 
ATOM     27  C   UNL d   1      25.788 -16.250  -1.528  0.00  0.00     0.093 C 
ATOM     28  S   UNL d   1      25.605 -14.329  -3.330  0.00  0.00     0.147 S 
ATOM     29  O   UNL d   1      25.650 -12.911  -2.996  0.00  0.00    -0.228 OA
ATOM     30  O   UNL d   1      25.073 -14.808  -4.578  0.00  0.00    -0.228 OA
ATOM     31  C   UNL d   1      24.802 -15.207  -2.020  0.00  0.00     0.158 C 
ENDBRANCH   4  20
TORSDOF 3
ENDMDL
MODEL 3
REMARK VINA RESULT:    -7.662      1.957      2.401
REMARK INTER + INTRA:          -9.037
REMARK INTER:                  -8.557
REMARK INTRA:                  -0.481
REMARK CONF_INDEPENDENT:        0.895
REMARK UNBOUND:                -0.481
REMARK  3 active torsions:
REMARK  status: ('A' for Active; 'I' for Inactive)
REMARK       I    between atoms: N_1  and  C_2 
REMARK    1  A    between atoms: C_2  and  C_4 
REMARK       I    between atoms: N_7  and  C_8 
REMARK    2  A    between atoms: C_8  and  C_10 
REMARK    3  A    between atoms: C_13  and  N_14 
ROOT
ATOM      1  C   UNL d   1      27.775 -13.117   4.129  0.00  0.00     0.032 C 
ATOM      2  C   UNL d   1      27.072 -12.293   3.241  0.00  0.00     0.019 C 
ATOM      3  C   UNL d   1      26.802 -12.720   1.909  0.00  0.00     0.032 C 
ATOM      4  C   UNL d   1      27.265 -13.954   1.427  0.00  0.00     0.059 C 
ATOM      5  C   UNL d   1      27.848 -14.765   2.412  0.00  0.00     0.032 C 
ATOM      6  C   UNL d   1      28.144 -14.371   3.707  0.00  0.00     0.019 C 
ENDROOT
BRANCH   1   7
ATOM      7  C   UNL d   1      28.001 -12.800   5.558  0.00  0.00     0.253 C 
ATOM      8  N   UNL d   1      29.280 -12.422   5.973  0.00  0.00    -0.348 N 
ATOM      9  C   UNL d   1      29.543 -12.144   7.385  0.00  0.00     0.127 C 
ATOM     10  C   UNL d   1      30.421 -12.174   5.094  0.00  0.00     0.127 C 
ATOM     11  C   UNL d   1      29.966 -10.682   7.561  0.00  0.00     0.034 C 
ATOM     12  C   UNL d   1      31.165 -10.333   6.659  0.00  0.00     0.081 C 
ATOM     13  C   UNL d   1      30.857 -10.716   5.203  0.00  0.00     0.034 C 
ATOM     14  O   UNL d   1      27.051 -12.951   6.321  0.00  0.00    -0.267 OA
BRANCH  12  15
ATOM     15  C   UNL d   1      32.453 -11.027   7.104  0.00  0.00     0.219 C 
ATOM     16  N   UNL d   1      33.023 -11.896   6.233  0.00  0.00    -0.370 N 
ATOM     17  H   UNL d   1      33.856 -12.366   6.569  0.00  0.00     0.159 HD
ATOM     18  H   UNL d   1      32.585 -12.226   5.387  0.00  0.00     0.159 HD
ATOM     19  O   UNL d   1      33.000 -10.840   8.186  0.00  0.00    -0.273 OA
ENDBRANCH  12  15
ENDBRANCH   1   7
BRANCH   4  20
ATOM     20  N   UNL d   1      27.096 -14.318   0.042  0.00  0.00    -0.225 NA
ATOM     21  C   UNL d   1      26.909 -15.532  -0.383  0.00  0.00     0.163 C 
ATOM     22  N   UNL d   1      26.683 -15.984  -1.669  0.00  0.00    -0.362 N 
ATOM     23  S   UNL d   1      26.851 -16.980   0.616  0.00  0.00    -0.084 SA
ATOM     24  C   UNL d   1      25.697 -17.076  -1.755  0.00  0.00     0.112 C 
ATOM     25  H   UNL d   1      26.834 -15.372  -2.464  0.00  0.00     0.162 HD
ATOM     26  C   UNL d   1      24.287 -16.502  -1.650  0.00  0.00     0.166 C 
ATOM     27  C   UNL d   1      25.951 -17.986  -0.544  0.00  0.00     0.093 C 
ATOM     28  S   UNL d   1      23.335 -17.689  -0.754  0.00  0.00     0.147 S 
ATOM     29  O   UNL d   1      22.529 -16.979   0.230  0.00  0.00    -0.228 OA
ATOM     30  O   UNL d   1      22.761 -18.613  -1.695  0.00  0.00    -0.228 OA
ATOM     31  C   UNL d   1      24.667 -18.510   0.074  0.00  0.00     0.158 C 
ENDBRANCH   4  20
TORSDOF 3
ENDMDL
MODEL 4
REMARK VINA RESULT:    -7.189      3.231      3.609
REMARK INTER + INTRA:          -8.819
REMARK INTER:                  -8.084
REMARK INTRA:                  -0.734
REMARK CONF_INDEPENDENT:        0.895
REMARK UNBOUND:                -0.734
REMARK  3 active torsions:
REMARK  status: ('A' for Active; 'I' for Inactive)
REMARK       I    between atoms: N_1  and  C_2 
REMARK    1  A    between atoms: C_2  and  C_4 
REMARK       I    between atoms: N_7  and  C_8 
REMARK    2  A    between atoms: C_8  and  C_10 
REMARK    3  A    between atoms: C_13  and  N_14 
ROOT
ATOM      1  C   UNL d   1      27.799 -12.869   2.780  0.00  0.00     0.032 C 
ATOM      2  C   UNL d   1      28.436 -14.049   2.374  0.00  0.00     0.019 C 
ATOM      3  C   UNL d   1      27.944 -14.799   1.268  0.00  0.00     0.032 C 
ATOM      4  C   UNL d   1      26.786 -14.411   0.575  0.00  0.00     0.059 C 
ATOM      5  C   UNL d   1      26.286 -13.160   0.964  0.00  0.00     0.032 C 
ATOM      6  C   UNL d   1      26.727 -12.418   2.048  0.00  0.00     0.019 C 
ENDROOT
BRANCH   1   7
ATOM      7  C   UNL d   1      28.306 -11.971   3.843  0.00  0.00     0.253 C 
ATOM      8  N   UNL d   1      28.351 -12.439   5.158  0.00  0.00    -0.348 N 
ATOM      9  C   UNL d   1      28.807 -11.562   6.236  0.00  0.00     0.127 C 
ATOM     10  C   UNL d   1      28.062 -13.807   5.584  0.00  0.00     0.127 C 
ATOM     11  C   UNL d   1      30.076 -12.135   6.876  0.00  0.00     0.034 C 
ATOM     12  C   UNL d   1      29.859 -13.585   7.349  0.00  0.00     0.081 C 
ATOM     13  C   UNL d   1      29.309 -14.439   6.196  0.00  0.00     0.034 C 
ATOM     14  O   UNL d   1      28.606 -10.827   3.514  0.00  0.00    -0.267 OA
BRANCH  12  15
ATOM     15  C   UNL d   1      28.907 -13.674   8.543  0.00  0.00     0.219 C 
ATOM     16  N   UNL d   1      28.897 -14.834   9.244  0.00  0.00    -0.370 N 
ATOM     17  H   UNL d   1      28.232 -14.877  10.008  0.00  0.00     0.159 HD
ATOM     18  H   UNL d   1      29.355 -15.684   8.950  0.00  0.00     0.159 HD
ATOM     19  O   UNL d   1      28.166 -12.765   8.906  0.00  0.00    -0.273 OA
ENDBRANCH  12  15
ENDBRANCH   1   7
BRANCH   4  20
ATOM     20  N   UNL d   1      26.227 -15.246  -0.458  0.00  0.00    -0.225 NA
ATOM     21  C   UNL d   1      25.850 -14.820  -1.626  0.00  0.00     0.163 C 
ATOM     22  N   UNL d   1      25.356 -15.533  -2.701  0.00  0.00    -0.362 N 
ATOM     23  S   UNL d   1      25.908 -13.152  -2.187  0.00  0.00    -0.084 SA
ATOM     24  C   UNL d   1      25.843 -15.059  -4.009  0.00  0.00     0.112 C 
ATOM     25  H   UNL d   1      25.063 -16.498  -2.589  0.00  0.00     0.162 HD
ATOM     26  C   UNL d   1      27.260 -15.575  -4.246  0.00  0.00     0.166 C 
ATOM     27  C   UNL d   1      25.884 -13.525  -3.927  0.00  0.00     0.093 C 
ATOM     28  S   UNL d   1      28.114 -14.296  -5.115  0.00  0.00     0.147 S 
ATOM     29  O   UNL d   1      29.433 -14.141  -4.517  0.00  0.00    -0.228 OA
ATOM     30  O   UNL d   1      27.928 -14.505  -6.526  0.00  0.00    -0.228 OA
ATOM     31  C   UNL d   1      27.094 -12.934  -4.626  0.00  0.00     0.158 C 
ENDBRANCH   4  20
TORSDOF 3
ENDMDL
MODEL 5
REMARK VINA RESULT:    -7.163      6.737      9.829
REMARK INTER + INTRA:          -8.504
REMARK INTER:                  -8.058
REMARK INTRA:                  -0.446
REMARK CONF_INDEPENDENT:        0.895
REMARK UNBOUND:                -0.446
REMARK  3 active torsions:
REMARK  status: ('A' for Active; 'I' for Inactive)
REMARK       I    between atoms: N_1  and  C_2 
REMARK    1  A    between atoms: C_2  and  C_4 
REMARK       I    between atoms: N_7  and  C_8 
REMARK    2  A    between atoms: C_8  and  C_10 
REMARK    3  A    between atoms: C_13  and  N_14 
ROOT
ATOM      1  C   UNL d   1      27.651 -15.574  -2.952  0.00  0.00     0.032 C 
ATOM      2  C   UNL d   1      26.644 -15.018  -3.752  0.00  0.00     0.019 C 
ATOM      3  C   UNL d   1      26.898 -14.681  -5.112  0.00  0.00     0.032 C 
ATOM      4  C   UNL d   1      28.168 -14.852  -5.686  0.00  0.00     0.059 C 
ATOM      5  C   UNL d   1      29.077 -15.526  -4.858  0.00  0.00     0.032 C 
ATOM      6  C   UNL d   1      28.869 -15.846  -3.526  0.00  0.00     0.019 C 
ENDROOT
BRANCH   1   7
ATOM      7  C   UNL d   1      27.444 -16.056  -1.566  0.00  0.00     0.253 C 
ATOM      8  N   UNL d   1      26.151 -16.376  -1.148  0.00  0.00    -0.348 N 
ATOM      9  C   UNL d   1      25.909 -16.813   0.227  0.00  0.00     0.127 C 
ATOM     10  C   UNL d   1      24.964 -16.408  -2.001  0.00  0.00     0.127 C 
ATOM     11  C   UNL d   1      25.363 -18.244   0.232  0.00  0.00     0.034 C 
ATOM     12  C   UNL d   1      24.109 -18.369  -0.653  0.00  0.00     0.081 C 
ATOM     13  C   UNL d   1      24.402 -17.825  -2.061  0.00  0.00     0.034 C 
ATOM     14  O   UNL d   1      28.428 -16.088  -0.833  0.00  0.00    -0.267 OA
BRANCH  12  15
ATOM     15  C   UNL d   1      22.904 -17.632  -0.067  0.00  0.00     0.219 C 
ATOM     16  N   UNL d   1      22.061 -18.347   0.719  0.00  0.00    -0.370 N 
ATOM     17  H   UNL d   1      21.254 -17.841   1.065  0.00  0.00     0.159 HD
ATOM     18  H   UNL d   1      22.089 -19.350   0.822  0.00  0.00     0.159 HD
ATOM     19  O   UNL d   1      22.661 -16.444  -0.257  0.00  0.00    -0.273 OA
ENDBRANCH  12  15
ENDBRANCH   1   7
BRANCH   4  20
ATOM     20  N   UNL d   1      28.444 -14.389  -7.023  0.00  0.00    -0.225 NA
ATOM     21  C   UNL d   1      29.276 -13.433  -7.314  0.00  0.00     0.163 C 
ATOM     22  N   UNL d   1      29.654 -12.949  -8.551  0.00  0.00    -0.362 N 
ATOM     23  S   UNL d   1      30.210 -12.488  -6.160  0.00  0.00    -0.084 SA
ATOM     24  C   UNL d   1      31.084 -12.604  -8.647  0.00  0.00     0.112 C 
ATOM     25  H   UNL d   1      29.138 -13.206  -9.386  0.00  0.00     0.162 HD
ATOM     26  C   UNL d   1      31.907 -13.876  -8.830  0.00  0.00     0.166 C 
ATOM     27  C   UNL d   1      31.465 -11.959  -7.305  0.00  0.00     0.093 C 
ATOM     28  S   UNL d   1      33.415 -13.622  -7.946  0.00  0.00     0.147 S 
ATOM     29  O   UNL d   1      33.712 -14.834  -7.194  0.00  0.00    -0.228 OA
ATOM     30  O   UNL d   1      34.368 -13.018  -8.839  0.00  0.00    -0.228 OA
ATOM     31  C   UNL d   1      32.845 -12.372  -6.829  0.00  0.00     0.158 C 
ENDBRANCH   4  20
TORSDOF 3
ENDMDL
MODEL 6
REMARK VINA RESULT:    -7.010      3.455      9.385
REMARK INTER + INTRA:          -8.542
REMARK INTER:                  -7.905
REMARK INTRA:                  -0.637
REMARK CONF_INDEPENDENT:        0.895
REMARK UNBOUND:                -0.637
REMARK  3 active torsions:
REMARK  status: ('A' for Active; 'I' for Inactive)
REMARK       I    between atoms: N_1  and  C_2 
REMARK    1  A    between atoms: C_2  and  C_4 
REMARK       I    between atoms: N_7  and  C_8 
REMARK    2  A    between atoms: C_8  and  C_10 
REMARK    3  A    between atoms: C_13  and  N_14 
ROOT
ATOM      1  C   UNL d   1      27.651 -12.775   0.425  0.00  0.00     0.032 C 
ATOM      2  C   UNL d   1      28.584 -13.767   0.755  0.00  0.00     0.019 C 
ATOM      3  C   UNL d   1      28.556 -14.396   2.033  0.00  0.00     0.032 C 
ATOM      4  C   UNL d   1      27.628 -14.019   3.016  0.00  0.00     0.059 C 
ATOM      5  C   UNL d   1      26.658 -13.114   2.562  0.00  0.00     0.032 C 
ATOM      6  C   UNL d   1      26.670 -12.468   1.336  0.00  0.00     0.019 C 
ENDROOT
BRANCH   1   7
ATOM      7  C   UNL d   1      27.538 -12.150  -0.914  0.00  0.00     0.253 C 
ATOM      8  N   UNL d   1      27.216 -12.954  -2.010  0.00  0.00    -0.348 N 
ATOM      9  C   UNL d   1      27.139 -12.373  -3.350  0.00  0.00     0.127 C 
ATOM     10  C   UNL d   1      26.843 -14.365  -1.949  0.00  0.00     0.127 C 
ATOM     11  C   UNL d   1      25.715 -12.508  -3.898  0.00  0.00     0.034 C 
ATOM     12  C   UNL d   1      25.238 -13.972  -3.863  0.00  0.00     0.081 C 
ATOM     13  C   UNL d   1      25.413 -14.549  -2.449  0.00  0.00     0.034 C 
ATOM     14  O   UNL d   1      27.798 -10.953  -0.996  0.00  0.00    -0.267 OA
BRANCH  12  15
ATOM     15  C   UNL d   1      25.983 -14.854  -4.866  0.00  0.00     0.219 C 
ATOM     16  N   UNL d   1      27.167 -14.393  -5.339  0.00  0.00    -0.370 N 
ATOM     17  H   UNL d   1      27.621 -14.983  -6.027  0.00  0.00     0.159 HD
ATOM     18  H   UNL d   1      27.516 -13.458  -5.193  0.00  0.00     0.159 HD
ATOM     19  O   UNL d   1      25.581 -15.945  -5.258  0.00  0.00    -0.273 OA
ENDBRANCH  12  15
ENDBRANCH   1   7
BRANCH   4  20
ATOM     20  N   UNL d   1      27.692 -14.573   4.345  0.00  0.00    -0.225 NA
ATOM     21  C   UNL d   1      28.678 -14.390   5.172  0.00  0.00     0.163 C 
ATOM     22  N   UNL d   1      28.819 -14.823   6.476  0.00  0.00    -0.362 N 
ATOM     23  S   UNL d   1      30.142 -13.468   4.848  0.00  0.00    -0.084 SA
ATOM     24  C   UNL d   1      29.457 -13.839   7.369  0.00  0.00     0.112 C 
ATOM     25  H   UNL d   1      28.190 -15.521   6.858  0.00  0.00     0.162 HD
ATOM     26  C   UNL d   1      28.437 -12.778   7.773  0.00  0.00     0.166 C 
ATOM     27  C   UNL d   1      30.569 -13.167   6.550  0.00  0.00     0.093 C 
ATOM     28  S   UNL d   1      29.323 -11.254   7.877  0.00  0.00     0.147 S 
ATOM     29  O   UNL d   1      28.528 -10.219   7.230  0.00  0.00    -0.228 OA
ATOM     30  O   UNL d   1      29.826 -11.112   9.218  0.00  0.00    -0.228 OA
ATOM     31  C   UNL d   1      30.683 -11.680   6.827  0.00  0.00     0.158 C 
ENDBRANCH   4  20
TORSDOF 3
ENDMDL
MODEL 7
REMARK VINA RESULT:    -6.998      2.819      3.510
REMARK INTER + INTRA:          -8.666
REMARK INTER:                  -7.892
REMARK INTRA:                  -0.773
REMARK CONF_INDEPENDENT:        0.895
REMARK UNBOUND:                -0.773
REMARK  3 active torsions:
REMARK  status: ('A' for Active; 'I' for Inactive)
REMARK       I    between atoms: N_1  and  C_2 
REMARK    1  A    between atoms: C_2  and  C_4 
REMARK       I    between atoms: N_7  and  C_8 
REMARK    2  A    between atoms: C_8  and  C_10 
REMARK    3  A    between atoms: C_13  and  N_14 
ROOT
ATOM      1  C   UNL d   1      28.260 -13.603   4.088  0.00  0.00     0.032 C 
ATOM      2  C   UNL d   1      27.029 -13.630   3.419  0.00  0.00     0.019 C 
ATOM      3  C   UNL d   1      26.903 -13.096   2.104  0.00  0.00     0.032 C 
ATOM      4  C   UNL d   1      27.988 -12.487   1.453  0.00  0.00     0.059 C 
ATOM      5  C   UNL d   1      29.204 -12.613   2.139  0.00  0.00     0.032 C 
ATOM      6  C   UNL d   1      29.355 -13.106   3.425  0.00  0.00     0.019 C 
ENDROOT
BRANCH   1   7
ATOM      7  C   UNL d   1      28.505 -14.234   5.406  0.00  0.00     0.253 C 
ATOM      8  N   UNL d   1      29.069 -13.467   6.427  0.00  0.00    -0.348 N 
ATOM      9  C   UNL d   1      29.363 -14.074   7.726  0.00  0.00     0.127 C 
ATOM     10  C   UNL d   1      29.330 -12.030   6.368  0.00  0.00     0.127 C 
ATOM     11  C   UNL d   1      28.530 -13.398   8.820  0.00  0.00     0.034 C 
ATOM     12  C   UNL d   1      28.741 -11.872   8.822  0.00  0.00     0.081 C 
ATOM     13  C   UNL d   1      28.492 -11.304   7.416  0.00  0.00     0.034 C 
ATOM     14  O   UNL d   1      28.253 -15.431   5.508  0.00  0.00    -0.267 OA
BRANCH  12  15
ATOM     15  C   UNL d   1      30.144 -11.477   9.287  0.00  0.00     0.219 C 
ATOM     16  N   UNL d   1      30.272 -10.296   9.941  0.00  0.00    -0.370 N 
ATOM     17  H   UNL d   1      31.217 -10.045  10.206  0.00  0.00     0.159 HD
ATOM     18  H   UNL d   1      29.545  -9.600  10.011  0.00  0.00     0.159 HD
ATOM     19  O   UNL d   1      31.148 -12.160   9.112  0.00  0.00    -0.273 OA
ENDBRANCH  12  15
ENDBRANCH   1   7
BRANCH   4  20
ATOM     20  N   UNL d   1      27.814 -11.837   0.178  0.00  0.00    -0.225 NA
ATOM     21  C   UNL d   1      27.993 -12.414  -0.973  0.00  0.00     0.163 C 
ATOM     22  N   UNL d   1      27.805 -11.908  -2.244  0.00  0.00    -0.362 N 
ATOM     23  S   UNL d   1      28.506 -14.078  -1.227  0.00  0.00    -0.084 SA
ATOM     24  C   UNL d   1      27.224 -12.874  -3.194  0.00  0.00     0.112 C 
ATOM     25  H   UNL d   1      27.671 -10.912  -2.389  0.00  0.00     0.162 HD
ATOM     26  C   UNL d   1      25.721 -12.987  -2.956  0.00  0.00     0.166 C 
ATOM     27  C   UNL d   1      27.876 -14.231  -2.885  0.00  0.00     0.093 C 
ATOM     28  S   UNL d   1      25.298 -14.676  -3.251  0.00  0.00     0.147 S 
ATOM     29  O   UNL d   1      24.403 -15.114  -2.189  0.00  0.00    -0.228 OA
ATOM     30  O   UNL d   1      24.969 -14.824  -4.644  0.00  0.00    -0.228 OA
ATOM     31  C   UNL d   1      26.898 -15.387  -2.990  0.00  0.00     0.158 C 
ENDBRANCH   4  20
TORSDOF 3
ENDMDL
MODEL 8
REMARK VINA RESULT:    -6.914      3.363      9.407
REMARK INTER + INTRA:          -8.637
REMARK INTER:                  -7.809
REMARK INTRA:                  -0.829
REMARK CONF_INDEPENDENT:        0.895
REMARK UNBOUND:                -0.829
REMARK  3 active torsions:
REMARK  status: ('A' for Active; 'I' for Inactive)
REMARK       I    between atoms: N_1  and  C_2 
REMARK    1  A    between atoms: C_2  and  C_4 
REMARK       I    between atoms: N_7  and  C_8 
REMARK    2  A    between atoms: C_8  and  C_10 
REMARK    3  A    between atoms: C_13  and  N_14 
ROOT
ATOM      1  C   UNL d   1      27.860 -15.614   0.633  0.00  0.00     0.032 C 
ATOM      2  C   UNL d   1      27.497 -15.012   1.845  0.00  0.00     0.019 C 
ATOM      3  C   UNL d   1      28.479 -14.400   2.676  0.00  0.00     0.032 C 
ATOM      4  C   UNL d   1      29.840 -14.415   2.336  0.00  0.00     0.059 C 
ATOM      5  C   UNL d   1      30.099 -14.924   1.056  0.00  0.00     0.032 C 
ATOM      6  C   UNL d   1      29.172 -15.546   0.234  0.00  0.00     0.019 C 
ENDROOT
BRANCH   1   7
ATOM      7  C   UNL d   1      26.894 -16.173  -0.342  0.00  0.00     0.253 C 
ATOM      8  N   UNL d   1      26.357 -15.333  -1.319  0.00  0.00    -0.348 N 
ATOM      9  C   UNL d   1      25.369 -15.846  -2.268  0.00  0.00     0.127 C 
ATOM     10  C   UNL d   1      26.759 -13.950  -1.566  0.00  0.00     0.127 C 
ATOM     11  C   UNL d   1      25.922 -15.763  -3.694  0.00  0.00     0.034 C 
ATOM     12  C   UNL d   1      26.378 -14.333  -4.036  0.00  0.00     0.081 C 
ATOM     13  C   UNL d   1      27.355 -13.821  -2.965  0.00  0.00     0.034 C 
ATOM     14  O   UNL d   1      26.568 -17.348  -0.195  0.00  0.00    -0.267 OA
BRANCH  12  15
ATOM     15  C   UNL d   1      25.206 -13.358  -4.159  0.00  0.00     0.219 C 
ATOM     16  N   UNL d   1      25.498 -12.034  -4.180  0.00  0.00    -0.370 N 
ATOM     17  H   UNL d   1      24.700 -11.412  -4.228  0.00  0.00     0.159 HD
ATOM     18  H   UNL d   1      26.406 -11.646  -3.973  0.00  0.00     0.159 HD
ATOM     19  O   UNL d   1      24.031 -13.699  -4.247  0.00  0.00    -0.273 OA
ENDBRANCH  12  15
ENDBRANCH   1   7
BRANCH   4  20
ATOM     20  N   UNL d   1      30.836 -13.905   3.246  0.00  0.00    -0.225 NA
ATOM     21  C   UNL d   1      30.758 -12.761   3.857  0.00  0.00     0.163 C 
ATOM     22  N   UNL d   1      31.618 -12.203   4.783  0.00  0.00    -0.362 N 
ATOM     23  S   UNL d   1      29.459 -11.585   3.689  0.00  0.00    -0.084 SA
ATOM     24  C   UNL d   1      30.938 -11.479   5.872  0.00  0.00     0.112 C 
ATOM     25  H   UNL d   1      32.540 -12.599   4.935  0.00  0.00     0.162 HD
ATOM     26  C   UNL d   1      30.399 -12.477   6.892  0.00  0.00     0.166 C 
ATOM     27  C   UNL d   1      29.753 -10.742   5.229  0.00  0.00     0.093 C 
ATOM     28  S   UNL d   1      28.872 -11.811   7.477  0.00  0.00     0.147 S 
ATOM     29  O   UNL d   1      27.892 -12.888   7.521  0.00  0.00    -0.228 OA
ATOM     30  O   UNL d   1      29.148 -10.976   8.616  0.00  0.00    -0.228 OA
ATOM     31  C   UNL d   1      28.512 -10.756   6.102  0.00  0.00     0.158 C 
ENDBRANCH   4  20
TORSDOF 3
ENDMDL
MODEL 9
REMARK VINA RESULT:    -6.868      3.610      9.684
REMARK INTER + INTRA:          -8.553
REMARK INTER:                  -7.763
REMARK INTRA:                  -0.790
REMARK CONF_INDEPENDENT:        0.895
REMARK UNBOUND:                -0.790
REMARK  3 active torsions:
REMARK  status: ('A' for Active; 'I' for Inactive)
REMARK       I    between atoms: N_1  and  C_2 
REMARK    1  A    between atoms: C_2  and  C_4 
REMARK       I    between atoms: N_7  and  C_8 
REMARK    2  A    between atoms: C_8  and  C_10 
REMARK    3  A    between atoms: C_13  and  N_14 
ROOT
ATOM      1  C   UNL d   1      28.297 -14.065   0.701  0.00  0.00     0.032 C 
ATOM      2  C   UNL d   1      28.786 -12.770   0.920  0.00  0.00     0.019 C 
ATOM      3  C   UNL d   1      28.628 -12.137   2.186  0.00  0.00     0.032 C 
ATOM      4  C   UNL d   1      27.944 -12.764   3.239  0.00  0.00     0.059 C 
ATOM      5  C   UNL d   1      27.598 -14.097   2.977  0.00  0.00     0.032 C 
ATOM      6  C   UNL d   1      27.718 -14.734   1.752  0.00  0.00     0.019 C 
ENDROOT
BRANCH   1   7
ATOM      7  C   UNL d   1      28.515 -14.838  -0.544  0.00  0.00     0.253 C 
ATOM      8  N   UNL d   1      27.603 -14.704  -1.592  0.00  0.00    -0.348 N 
ATOM      9  C   UNL d   1      27.769 -15.486  -2.817  0.00  0.00     0.127 C 
ATOM     10  C   UNL d   1      26.493 -13.753  -1.637  0.00  0.00     0.127 C 
ATOM     11  C   UNL d   1      27.997 -14.551  -4.008  0.00  0.00     0.034 C 
ATOM     12  C   UNL d   1      26.871 -13.507  -4.125  0.00  0.00     0.081 C 
ATOM     13  C   UNL d   1      26.694 -12.771  -2.788  0.00  0.00     0.034 C 
ATOM     14  O   UNL d   1      29.467 -15.613  -0.561  0.00  0.00    -0.267 OA
BRANCH  12  15
ATOM     15  C   UNL d   1      25.537 -14.130  -4.541  0.00  0.00     0.219 C 
ATOM     16  N   UNL d   1      24.434 -13.346  -4.461  0.00  0.00    -0.370 N 
ATOM     17  H   UNL d   1      23.560 -13.796  -4.710  0.00  0.00     0.159 HD
ATOM     18  H   UNL d   1      24.406 -12.443  -4.012  0.00  0.00     0.159 HD
ATOM     19  O   UNL d   1      25.409 -15.281  -4.946  0.00  0.00    -0.273 OA
ENDBRANCH  12  15
ENDBRANCH   1   7
BRANCH   4  20
ATOM     20  N   UNL d   1      27.679 -12.063   4.471  0.00  0.00    -0.225 NA
ATOM     21  C   UNL d   1      27.940 -12.530   5.655  0.00  0.00     0.163 C 
ATOM     22  N   UNL d   1      27.780 -11.929   6.889  0.00  0.00    -0.362 N 
ATOM     23  S   UNL d   1      28.632 -14.108   6.015  0.00  0.00    -0.084 SA
ATOM     24  C   UNL d   1      28.867 -12.218   7.841  0.00  0.00     0.112 C 
ATOM     25  H   UNL d   1      27.240 -11.075   6.980  0.00  0.00     0.162 HD
ATOM     26  C   UNL d   1      30.080 -11.352   7.514  0.00  0.00     0.166 C 
ATOM     27  C   UNL d   1      29.244 -13.693   7.634  0.00  0.00     0.093 C 
ATOM     28  S   UNL d   1      31.502 -12.341   7.856  0.00  0.00     0.147 S 
ATOM     29  O   UNL d   1      32.446 -12.176   6.759  0.00  0.00    -0.228 OA
ATOM     30  O   UNL d   1      31.876 -12.137   9.230  0.00  0.00    -0.228 OA
ATOM     31  C   UNL d   1      30.739 -13.934   7.728  0.00  0.00     0.158 C 
ENDBRANCH   4  20
TORSDOF 3
ENDMDL
