MODEL 1
REMARK VINA RESULT:   -25.581      0.000      0.000
REMARK INTER + INTRA:         -28.679
REMARK INTER:                 -27.669
REMARK INTRA:                  -1.010
REMARK CONF_INDEPENDENT:        2.088
REMARK UNBOUND:                -1.010
REMARK  7 active torsions:
REMARK  status: ('A' for Active; 'I' for Inactive)
REMARK    1  A    between atoms: C_2  and  C_16 
REMARK    2  A    between atoms: C_2  and  S_3 
REMARK    3  A    between atoms: S_3  and  C_4 
REMARK    4  A    between atoms: C_7  and  C_8 
REMARK       I    between atoms: C_16  and  N_18 
REMARK    5  A    between atoms: N_18  and  C_19 
REMARK    6  A    between atoms: C_19  and  C_20 
REMARK       I    between atoms: C_20  and  N_22 
REMARK    7  A    between atoms: N_22  and  C_23 
ROOT
ATOM      1  C   UNL d   1      24.136 -15.688  -1.864  0.00  0.00     0.232 C 
ATOM      2  O   UNL d   1      23.225 -14.917  -2.190  0.00  0.00    -0.272 OA
ATOM      3  N   UNL d   1      25.299 -15.715  -2.620  0.00  0.00    -0.351 N 
ATOM      4  H   UNL d   1      26.080 -16.318  -2.371  0.00  0.00     0.163 HD
ENDROOT
BRANCH   1   5
ATOM      5  C   UNL d   1      24.057 -16.647  -0.620  0.00  0.00     0.143 C 
ATOM      6  C   UNL d   1      25.339 -16.532   0.200  0.00  0.00     0.031 C 
BRANCH   5   7
ATOM      7  S   UNL d   1      23.777 -18.406  -1.190  0.00  0.00    -0.076 SA
BRANCH   7   8
ATOM      8  C   UNL d   1      22.073 -18.679  -1.065  0.00  0.00     0.190 A 
ATOM      9  N   UNL d   1      21.092 -18.033  -1.645  0.00  0.00    -0.122 NA
ATOM     10  N   UNL d   1      19.904 -18.575  -1.194  0.00  0.00    -0.129 NA
ATOM     11  C   UNL d   1      20.180 -19.547  -0.345  0.00  0.00     0.165 A 
ATOM     12  N   UNL d   1      21.552 -19.663  -0.264  0.00  0.00    -0.316 N 
ATOM     13  H   UNL d   1      22.068 -20.346   0.269  0.00  0.00     0.169 HD
BRANCH  11  14
ATOM     14  C   UNL d   1      19.215 -20.383   0.367  0.00  0.00     0.050 A 
ATOM     15  C   UNL d   1      18.040 -20.814  -0.271  0.00  0.00     0.018 A 
ATOM     16  C   UNL d   1      17.113 -21.621   0.404  0.00  0.00     0.001 A 
ATOM     17  C   UNL d   1      17.333 -21.983   1.732  0.00  0.00     0.003 A 
ATOM     18  C   UNL d   1      18.478 -21.533   2.388  0.00  0.00     0.043 A 
ATOM     19  C   UNL d   1      19.407 -20.746   1.704  0.00  0.00     0.130 A 
ATOM     20  F   UNL d   1      20.498 -20.330   2.365  0.00  0.00    -0.205 F 
ENDBRANCH  11  14
ENDBRANCH   7   8
ENDBRANCH   5   7
ENDBRANCH   1   5
BRANCH   3  21
ATOM     21  C   UNL d   1      25.484 -14.880  -3.828  0.00  0.00     0.225 C 
BRANCH  21  22
ATOM     22  C   UNL d   1      26.744 -15.296  -4.621  0.00  0.00     0.239 C 
ATOM     23  O   UNL d   1      26.646 -15.572  -5.822  0.00  0.00    -0.271 OA
ATOM     24  N   UNL d   1      27.945 -15.373  -3.908  0.00  0.00    -0.323 N 
ATOM     25  H   UNL d   1      27.912 -15.439  -2.893  0.00  0.00     0.169 HD
BRANCH  24  26
ATOM     26  C   UNL d   1      29.168 -15.767  -4.536  0.00  0.00     0.077 A 
ATOM     27  C   UNL d   1      29.972 -16.759  -3.958  0.00  0.00     0.036 A 
ATOM     28  C   UNL d   1      31.189 -17.132  -4.541  0.00  0.00     0.048 A 
ATOM     29  C   UNL d   1      31.613 -16.509  -5.707  0.00  0.00     0.158 A 
ATOM     30  F   UNL d   1      32.790 -16.861  -6.245  0.00  0.00    -0.203 F 
ATOM     31  C   UNL d   1      30.824 -15.536  -6.307  0.00  0.00     0.195 A 
ATOM     32  F   UNL d   1      31.255 -14.931  -7.424  0.00  0.00    -0.199 F 
ATOM     33  C   UNL d   1      29.596 -15.181  -5.737  0.00  0.00     0.184 A 
ATOM     34  F   UNL d   1      28.860 -14.219  -6.315  0.00  0.00    -0.200 F 
ENDBRANCH  24  26
ENDBRANCH  21  22
ENDBRANCH   3  21
TORSDOF 7
ENDMDL
MODEL 2
REMARK VINA RESULT:   -25.028      4.809      6.225
REMARK INTER + INTRA:         -28.087
REMARK INTER:                 -27.116
REMARK INTRA:                  -0.972
REMARK CONF_INDEPENDENT:        2.088
REMARK UNBOUND:                -0.972
REMARK  7 active torsions:
REMARK  status: ('A' for Active; 'I' for Inactive)
REMARK    1  A    between atoms: C_2  and  C_16 
REMARK    2  A    between atoms: C_2  and  S_3 
REMARK    3  A    between atoms: S_3  and  C_4 
REMARK    4  A    between atoms: C_7  and  C_8 
REMARK       I    between atoms: C_16  and  N_18 
REMARK    5  A    between atoms: N_18  and  C_19 
REMARK    6  A    between atoms: C_19  and  C_20 
REMARK       I    between atoms: C_20  and  N_22 
REMARK    7  A    between atoms: N_22  and  C_23 
ROOT
ATOM      1  C   UNL d   1      25.970 -17.301  -0.290  0.00  0.00     0.232 C 
ATOM      2  O   UNL d   1      26.347 -17.239  -1.467  0.00  0.00    -0.272 OA
ATOM      3  N   UNL d   1      26.833 -16.895   0.717  0.00  0.00    -0.351 N 
ATOM      4  H   UNL d   1      26.552 -16.909   1.695  0.00  0.00     0.163 HD
ENDROOT
BRANCH   1   5
ATOM      5  C   UNL d   1      24.544 -17.811   0.138  0.00  0.00     0.143 C 
ATOM      6  C   UNL d   1      24.357 -19.255  -0.319  0.00  0.00     0.031 C 
BRANCH   5   7
ATOM      7  S   UNL d   1      23.228 -16.699  -0.587  0.00  0.00    -0.076 SA
BRANCH   7   8
ATOM      8  C   UNL d   1      21.799 -17.669  -0.703  0.00  0.00     0.190 A 
ATOM      9  N   UNL d   1      20.886 -17.678  -1.642  0.00  0.00    -0.122 NA
ATOM     10  N   UNL d   1      19.905 -18.575  -1.270  0.00  0.00    -0.129 NA
ATOM     11  C   UNL d   1      20.237 -19.103  -0.106  0.00  0.00     0.165 A 
ATOM     12  N   UNL d   1      21.454 -18.572   0.268  0.00  0.00    -0.316 N 
ATOM     13  H   UNL d   1      21.989 -18.814   1.088  0.00  0.00     0.169 HD
BRANCH  11  14
ATOM     14  C   UNL d   1      19.477 -20.098   0.649  0.00  0.00     0.050 A 
ATOM     15  C   UNL d   1      18.537 -20.916   0.002  0.00  0.00     0.018 A 
ATOM     16  C   UNL d   1      17.808 -21.876   0.719  0.00  0.00     0.001 A 
ATOM     17  C   UNL d   1      17.989 -22.011   2.095  0.00  0.00     0.003 A 
ATOM     18  C   UNL d   1      18.894 -21.181   2.755  0.00  0.00     0.043 A 
ATOM     19  C   UNL d   1      19.631 -20.240   2.032  0.00  0.00     0.130 A 
ATOM     20  F   UNL d   1      20.492 -19.458   2.698  0.00  0.00    -0.205 F 
ENDBRANCH  11  14
ENDBRANCH   7   8
ENDBRANCH   5   7
ENDBRANCH   1   5
BRANCH   3  21
ATOM     21  C   UNL d   1      28.208 -16.421   0.445  0.00  0.00     0.225 C 
BRANCH  21  22
ATOM     22  C   UNL d   1      28.439 -14.996   1.000  0.00  0.00     0.239 C 
ATOM     23  O   UNL d   1      28.880 -14.115   0.253  0.00  0.00    -0.271 OA
ATOM     24  N   UNL d   1      28.164 -14.791   2.356  0.00  0.00    -0.323 N 
ATOM     25  H   UNL d   1      28.105 -15.597   2.973  0.00  0.00     0.169 HD
BRANCH  24  26
ATOM     26  C   UNL d   1      28.360 -13.520   2.979  0.00  0.00     0.077 A 
ATOM     27  C   UNL d   1      29.308 -13.372   4.001  0.00  0.00     0.036 A 
ATOM     28  C   UNL d   1      29.490 -12.143   4.644  0.00  0.00     0.048 A 
ATOM     29  C   UNL d   1      28.717 -11.051   4.273  0.00  0.00     0.158 A 
ATOM     30  F   UNL d   1      28.886  -9.883   4.911  0.00  0.00    -0.203 F 
ATOM     31  C   UNL d   1      27.784 -11.169   3.251  0.00  0.00     0.195 A 
ATOM     32  F   UNL d   1      27.033 -10.109   2.914  0.00  0.00    -0.199 F 
ATOM     33  C   UNL d   1      27.621 -12.392   2.591  0.00  0.00     0.184 A 
ATOM     34  F   UNL d   1      26.695 -12.495   1.625  0.00  0.00    -0.200 F 
ENDBRANCH  24  26
ENDBRANCH  21  22
ENDBRANCH   3  21
TORSDOF 7
ENDMDL
MODEL 3
REMARK VINA RESULT:   -24.588      3.383      4.064
REMARK INTER + INTRA:         -28.205
REMARK INTER:                 -26.676
REMARK INTRA:                  -1.529
REMARK CONF_INDEPENDENT:        2.088
REMARK UNBOUND:                -1.529
REMARK  7 active torsions:
REMARK  status: ('A' for Active; 'I' for Inactive)
REMARK    1  A    between atoms: C_2  and  C_16 
REMARK    2  A    between atoms: C_2  and  S_3 
REMARK    3  A    between atoms: S_3  and  C_4 
REMARK    4  A    between atoms: C_7  and  C_8 
REMARK       I    between atoms: C_16  and  N_18 
REMARK    5  A    between atoms: N_18  and  C_19 
REMARK    6  A    between atoms: C_19  and  C_20 
REMARK       I    between atoms: C_20  and  N_22 
REMARK    7  A    between atoms: N_22  and  C_23 
ROOT
ATOM      1  C   UNL d   1      25.897 -17.198  -0.518  0.00  0.00     0.232 C 
ATOM      2  O   UNL d   1      26.226 -17.267  -1.709  0.00  0.00    -0.272 OA
ATOM      3  N   UNL d   1      26.758 -16.593   0.386  0.00  0.00    -0.351 N 
ATOM      4  H   UNL d   1      26.512 -16.496   1.369  0.00  0.00     0.163 HD
ENDROOT
BRANCH   1   5
ATOM      5  C   UNL d   1      24.535 -17.756   0.038  0.00  0.00     0.143 C 
ATOM      6  C   UNL d   1      24.298 -19.164  -0.502  0.00  0.00     0.031 C 
BRANCH   5   7
ATOM      7  S   UNL d   1      23.137 -16.609  -0.435  0.00  0.00    -0.076 SA
BRANCH   7   8
ATOM      8  C   UNL d   1      21.739 -17.613  -0.613  0.00  0.00     0.190 A 
ATOM      9  N   UNL d   1      20.885 -17.665  -1.605  0.00  0.00    -0.122 NA
ATOM     10  N   UNL d   1      19.902 -18.575  -1.270  0.00  0.00    -0.129 NA
ATOM     11  C   UNL d   1      20.174 -19.067  -0.075  0.00  0.00     0.165 A 
ATOM     12  N   UNL d   1      21.355 -18.501   0.358  0.00  0.00    -0.316 N 
ATOM     13  H   UNL d   1      21.843 -18.711   1.215  0.00  0.00     0.169 HD
BRANCH  11  14
ATOM     14  C   UNL d   1      19.391 -20.061   0.657  0.00  0.00     0.050 A 
ATOM     15  C   UNL d   1      18.407 -20.817  -0.000  0.00  0.00     0.018 A 
ATOM     16  C   UNL d   1      17.656 -21.776   0.695  0.00  0.00     0.001 A 
ATOM     17  C   UNL d   1      17.857 -21.969   2.061  0.00  0.00     0.003 A 
ATOM     18  C   UNL d   1      18.805 -21.200   2.733  0.00  0.00     0.043 A 
ATOM     19  C   UNL d   1      19.564 -20.261   2.030  0.00  0.00     0.130 A 
ATOM     20  F   UNL d   1      20.467 -19.537   2.708  0.00  0.00    -0.205 F 
ENDBRANCH  11  14
ENDBRANCH   7   8
ENDBRANCH   5   7
ENDBRANCH   1   5
BRANCH   3  21
ATOM     21  C   UNL d   1      28.077 -16.052  -0.009  0.00  0.00     0.225 C 
BRANCH  21  22
ATOM     22  C   UNL d   1      27.945 -14.981  -1.116  0.00  0.00     0.239 C 
ATOM     23  O   UNL d   1      28.937 -14.321  -1.447  0.00  0.00    -0.271 OA
ATOM     24  N   UNL d   1      26.674 -14.792  -1.667  0.00  0.00    -0.323 N 
ATOM     25  H   UNL d   1      25.861 -15.129  -1.158  0.00  0.00     0.169 HD
BRANCH  24  26
ATOM     26  C   UNL d   1      26.432 -13.815  -2.683  0.00  0.00     0.077 A 
ATOM     27  C   UNL d   1      26.138 -14.216  -3.994  0.00  0.00     0.036 A 
ATOM     28  C   UNL d   1      25.932 -13.274  -5.008  0.00  0.00     0.048 A 
ATOM     29  C   UNL d   1      26.026 -11.919  -4.718  0.00  0.00     0.158 A 
ATOM     30  F   UNL d   1      25.846 -11.027  -5.702  0.00  0.00    -0.203 F 
ATOM     31  C   UNL d   1      26.299 -11.498  -3.423  0.00  0.00     0.195 A 
ATOM     32  F   UNL d   1      26.403 -10.187  -3.161  0.00  0.00    -0.199 F 
ATOM     33  C   UNL d   1      26.480 -12.441  -2.404  0.00  0.00     0.184 A 
ATOM     34  F   UNL d   1      26.771 -12.017  -1.165  0.00  0.00    -0.200 F 
ENDBRANCH  24  26
ENDBRANCH  21  22
ENDBRANCH   3  21
TORSDOF 7
ENDMDL
MODEL 4
REMARK VINA RESULT:   -24.433      1.640      2.148
REMARK INTER + INTRA:         -28.349
REMARK INTER:                 -26.521
REMARK INTRA:                  -1.828
REMARK CONF_INDEPENDENT:        2.088
REMARK UNBOUND:                -1.828
REMARK  7 active torsions:
REMARK  status: ('A' for Active; 'I' for Inactive)
REMARK    1  A    between atoms: C_2  and  C_16 
REMARK    2  A    between atoms: C_2  and  S_3 
REMARK    3  A    between atoms: S_3  and  C_4 
REMARK    4  A    between atoms: C_7  and  C_8 
REMARK       I    between atoms: C_16  and  N_18 
REMARK    5  A    between atoms: N_18  and  C_19 
REMARK    6  A    between atoms: C_19  and  C_20 
REMARK       I    between atoms: C_20  and  N_22 
REMARK    7  A    between atoms: N_22  and  C_23 
ROOT
ATOM      1  C   UNL d   1      25.308 -15.883  -1.373  0.00  0.00     0.232 C 
ATOM      2  O   UNL d   1      25.543 -14.670  -1.435  0.00  0.00    -0.272 OA
ATOM      3  N   UNL d   1      26.317 -16.746  -0.968  0.00  0.00    -0.351 N 
ATOM      4  H   UNL d   1      26.157 -17.747  -0.882  0.00  0.00     0.163 HD
ENDROOT
BRANCH   1   5
ATOM      5  C   UNL d   1      23.911 -16.515  -1.722  0.00  0.00     0.143 C 
ATOM      6  C   UNL d   1      22.795 -15.577  -1.269  0.00  0.00     0.031 C 
BRANCH   5   7
ATOM      7  S   UNL d   1      23.751 -18.192  -0.912  0.00  0.00    -0.076 SA
BRANCH   7   8
ATOM      8  C   UNL d   1      22.059 -18.554  -0.901  0.00  0.00     0.190 A 
ATOM      9  N   UNL d   1      21.095 -18.001  -1.594  0.00  0.00    -0.122 NA
ATOM     10  N   UNL d   1      19.905 -18.581  -1.202  0.00  0.00    -0.129 NA
ATOM     11  C   UNL d   1      20.162 -19.484  -0.274  0.00  0.00     0.165 A 
ATOM     12  N   UNL d   1      21.528 -19.517  -0.082  0.00  0.00    -0.316 N 
ATOM     13  H   UNL d   1      22.033 -20.137   0.532  0.00  0.00     0.169 HD
BRANCH  11  14
ATOM     14  C   UNL d   1      19.188 -20.331   0.413  0.00  0.00     0.050 A 
ATOM     15  C   UNL d   1      18.040 -20.782  -0.257  0.00  0.00     0.018 A 
ATOM     16  C   UNL d   1      17.104 -21.599   0.394  0.00  0.00     0.001 A 
ATOM     17  C   UNL d   1      17.289 -21.950   1.730  0.00  0.00     0.003 A 
ATOM     18  C   UNL d   1      18.406 -21.479   2.418  0.00  0.00     0.043 A 
ATOM     19  C   UNL d   1      19.345 -20.683   1.757  0.00  0.00     0.130 A 
ATOM     20  F   UNL d   1      20.408 -20.247   2.448  0.00  0.00    -0.205 F 
ENDBRANCH  11  14
ENDBRANCH   7   8
ENDBRANCH   5   7
ENDBRANCH   1   5
BRANCH   3  21
ATOM     21  C   UNL d   1      27.681 -16.277  -0.637  0.00  0.00     0.225 C 
BRANCH  21  22
ATOM     22  C   UNL d   1      28.517 -16.014  -1.911  0.00  0.00     0.239 C 
ATOM     23  O   UNL d   1      29.668 -16.461  -1.989  0.00  0.00    -0.271 OA
ATOM     24  N   UNL d   1      27.923 -15.238  -2.911  0.00  0.00    -0.323 N 
ATOM     25  H   UNL d   1      27.124 -14.654  -2.672  0.00  0.00     0.169 HD
BRANCH  24  26
ATOM     26  C   UNL d   1      28.612 -14.916  -4.122  0.00  0.00     0.077 A 
ATOM     27  C   UNL d   1      29.126 -15.935  -4.935  0.00  0.00     0.036 A 
ATOM     28  C   UNL d   1      29.832 -15.638  -6.106  0.00  0.00     0.048 A 
ATOM     29  C   UNL d   1      30.034 -14.313  -6.470  0.00  0.00     0.158 A 
ATOM     30  F   UNL d   1      30.729 -14.041  -7.584  0.00  0.00    -0.203 F 
ATOM     31  C   UNL d   1      29.517 -13.287  -5.691  0.00  0.00     0.195 A 
ATOM     32  F   UNL d   1      29.734 -12.012  -6.046  0.00  0.00    -0.199 F 
ATOM     33  C   UNL d   1      28.790 -13.586  -4.533  0.00  0.00     0.184 A 
ATOM     34  F   UNL d   1      28.323 -12.581  -3.776  0.00  0.00    -0.200 F 
ENDBRANCH  24  26
ENDBRANCH  21  22
ENDBRANCH   3  21
TORSDOF 7
ENDMDL
MODEL 5
REMARK VINA RESULT:   -24.255      3.205      4.172
REMARK INTER + INTRA:         -28.186
REMARK INTER:                 -26.343
REMARK INTRA:                  -1.843
REMARK CONF_INDEPENDENT:        2.088
REMARK UNBOUND:                -1.843
REMARK  7 active torsions:
REMARK  status: ('A' for Active; 'I' for Inactive)
REMARK    1  A    between atoms: C_2  and  C_16 
REMARK    2  A    between atoms: C_2  and  S_3 
REMARK    3  A    between atoms: S_3  and  C_4 
REMARK    4  A    between atoms: C_7  and  C_8 
REMARK       I    between atoms: C_16  and  N_18 
REMARK    5  A    between atoms: N_18  and  C_19 
REMARK    6  A    between atoms: C_19  and  C_20 
REMARK       I    between atoms: C_20  and  N_22 
REMARK    7  A    between atoms: N_22  and  C_23 
ROOT
ATOM      1  C   UNL d   1      24.463 -15.948  -2.021  0.00  0.00     0.232 C 
ATOM      2  O   UNL d   1      23.769 -14.986  -2.374  0.00  0.00    -0.272 OA
ATOM      3  N   UNL d   1      25.589 -16.276  -2.763  0.00  0.00    -0.351 N 
ATOM      4  H   UNL d   1      26.198 -17.044  -2.491  0.00  0.00     0.163 HD
ENDROOT
BRANCH   1   5
ATOM      5  C   UNL d   1      24.146 -16.827  -0.756  0.00  0.00     0.143 C 
ATOM      6  C   UNL d   1      25.324 -16.776   0.214  0.00  0.00     0.031 C 
BRANCH   5   7
ATOM      7  S   UNL d   1      23.780 -18.584  -1.280  0.00  0.00    -0.076 SA
BRANCH   7   8
ATOM      8  C   UNL d   1      22.069 -18.783  -1.111  0.00  0.00     0.190 A 
ATOM      9  N   UNL d   1      21.103 -18.076  -1.642  0.00  0.00    -0.122 NA
ATOM     10  N   UNL d   1      19.905 -18.575  -1.171  0.00  0.00    -0.129 NA
ATOM     11  C   UNL d   1      20.159 -19.583  -0.358  0.00  0.00     0.165 A 
ATOM     12  N   UNL d   1      21.527 -19.764  -0.323  0.00  0.00    -0.316 N 
ATOM     13  H   UNL d   1      22.025 -20.487   0.176  0.00  0.00     0.169 HD
BRANCH  11  14
ATOM     14  C   UNL d   1      19.178 -20.395   0.359  0.00  0.00     0.050 A 
ATOM     15  C   UNL d   1      18.035 -20.876  -0.300  0.00  0.00     0.018 A 
ATOM     16  C   UNL d   1      17.091 -21.660   0.380  0.00  0.00     0.001 A 
ATOM     17  C   UNL d   1      17.263 -21.948   1.733  0.00  0.00     0.003 A 
ATOM     18  C   UNL d   1      18.375 -21.447   2.408  0.00  0.00     0.043 A 
ATOM     19  C   UNL d   1      19.321 -20.684   1.720  0.00  0.00     0.130 A 
ATOM     20  F   UNL d   1      20.378 -20.217   2.400  0.00  0.00    -0.205 F 
ENDBRANCH  11  14
ENDBRANCH   7   8
ENDBRANCH   5   7
ENDBRANCH   1   5
BRANCH   3  21
ATOM     21  C   UNL d   1      25.978 -15.541  -3.987  0.00  0.00     0.225 C 
BRANCH  21  22
ATOM     22  C   UNL d   1      26.699 -14.215  -3.650  0.00  0.00     0.239 C 
ATOM     23  O   UNL d   1      27.798 -13.971  -4.161  0.00  0.00    -0.271 OA
ATOM     24  N   UNL d   1      26.068 -13.364  -2.736  0.00  0.00    -0.323 N 
ATOM     25  H   UNL d   1      25.345 -13.743  -2.129  0.00  0.00     0.169 HD
BRANCH  24  26
ATOM     26  C   UNL d   1      26.653 -12.123  -2.337  0.00  0.00     0.077 A 
ATOM     27  C   UNL d   1      27.452 -12.054  -1.187  0.00  0.00     0.036 A 
ATOM     28  C   UNL d   1      28.005 -10.841  -0.764  0.00  0.00     0.048 A 
ATOM     29  C   UNL d   1      27.757  -9.681  -1.487  0.00  0.00     0.158 A 
ATOM     30  F   UNL d   1      28.276  -8.521  -1.060  0.00  0.00    -0.203 F 
ATOM     31  C   UNL d   1      26.985  -9.728  -2.640  0.00  0.00     0.195 A 
ATOM     32  F   UNL d   1      26.740  -8.597  -3.319  0.00  0.00    -0.199 F 
ATOM     33  C   UNL d   1      26.452 -10.946  -3.077  0.00  0.00     0.184 A 
ATOM     34  F   UNL d   1      25.684 -10.968  -4.177  0.00  0.00    -0.200 F 
ENDBRANCH  24  26
ENDBRANCH  21  22
ENDBRANCH   3  21
TORSDOF 7
ENDMDL
MODEL 6
REMARK VINA RESULT:   -23.352      3.739      5.091
REMARK INTER + INTRA:         -27.093
REMARK INTER:                 -25.440
REMARK INTRA:                  -1.653
REMARK CONF_INDEPENDENT:        2.088
REMARK UNBOUND:                -1.653
REMARK  7 active torsions:
REMARK  status: ('A' for Active; 'I' for Inactive)
REMARK    1  A    between atoms: C_2  and  C_16 
REMARK    2  A    between atoms: C_2  and  S_3 
REMARK    3  A    between atoms: S_3  and  C_4 
REMARK    4  A    between atoms: C_7  and  C_8 
REMARK       I    between atoms: C_16  and  N_18 
REMARK    5  A    between atoms: N_18  and  C_19 
REMARK    6  A    between atoms: C_19  and  C_20 
REMARK       I    between atoms: C_20  and  N_22 
REMARK    7  A    between atoms: N_22  and  C_23 
ROOT
ATOM      1  C   UNL d   1      25.691 -16.726  -1.433  0.00  0.00     0.232 C 
ATOM      2  O   UNL d   1      26.294 -15.845  -2.060  0.00  0.00    -0.272 OA
ATOM      3  N   UNL d   1      26.390 -17.503  -0.520  0.00  0.00    -0.351 N 
ATOM      4  H   UNL d   1      25.926 -18.220   0.032  0.00  0.00     0.163 HD
ENDROOT
BRANCH   1   5
ATOM      5  C   UNL d   1      24.154 -17.014  -1.605  0.00  0.00     0.143 C 
ATOM      6  C   UNL d   1      23.347 -16.002  -0.796  0.00  0.00     0.031 C 
BRANCH   5   7
ATOM      7  S   UNL d   1      23.773 -18.764  -1.067  0.00  0.00    -0.076 SA
BRANCH   7   8
ATOM      8  C   UNL d   1      22.046 -18.872  -0.995  0.00  0.00     0.190 A 
ATOM      9  N   UNL d   1      21.151 -18.171  -1.645  0.00  0.00    -0.122 NA
ATOM     10  N   UNL d   1      19.903 -18.575  -1.214  0.00  0.00    -0.129 NA
ATOM     11  C   UNL d   1      20.057 -19.520  -0.305  0.00  0.00     0.165 A 
ATOM     12  N   UNL d   1      21.409 -19.757  -0.165  0.00  0.00    -0.316 N 
ATOM     13  H   UNL d   1      21.839 -20.455   0.423  0.00  0.00     0.169 HD
BRANCH  11  14
ATOM     14  C   UNL d   1      18.994 -20.223   0.411  0.00  0.00     0.050 A 
ATOM     15  C   UNL d   1      18.193 -21.167  -0.252  0.00  0.00     0.018 A 
ATOM     16  C   UNL d   1      17.175 -21.849   0.429  0.00  0.00     0.001 A 
ATOM     17  C   UNL d   1      16.925 -21.576   1.773  0.00  0.00     0.003 A 
ATOM     18  C   UNL d   1      17.690 -20.616   2.435  0.00  0.00     0.043 A 
ATOM     19  C   UNL d   1      18.715 -19.955   1.755  0.00  0.00     0.130 A 
ATOM     20  F   UNL d   1      19.431 -19.036   2.421  0.00  0.00    -0.205 F 
ENDBRANCH  11  14
ENDBRANCH   7   8
ENDBRANCH   5   7
ENDBRANCH   1   5
BRANCH   3  21
ATOM     21  C   UNL d   1      27.843 -17.345  -0.288  0.00  0.00     0.225 C 
BRANCH  21  22
ATOM     22  C   UNL d   1      28.180 -15.948   0.282  0.00  0.00     0.239 C 
ATOM     23  O   UNL d   1      29.270 -15.761   0.835  0.00  0.00    -0.271 OA
ATOM     24  N   UNL d   1      27.195 -14.962   0.168  0.00  0.00    -0.323 N 
ATOM     25  H   UNL d   1      26.234 -15.244  -0.008  0.00  0.00     0.169 HD
BRANCH  24  26
ATOM     26  C   UNL d   1      27.391 -13.640   0.677  0.00  0.00     0.077 A 
ATOM     27  C   UNL d   1      26.606 -13.167   1.738  0.00  0.00     0.036 A 
ATOM     28  C   UNL d   1      26.762 -11.866   2.227  0.00  0.00     0.048 A 
ATOM     29  C   UNL d   1      27.704 -11.023   1.652  0.00  0.00     0.158 A 
ATOM     30  F   UNL d   1      27.830  -9.771   2.116  0.00  0.00    -0.203 F 
ATOM     31  C   UNL d   1      28.505 -11.475   0.612  0.00  0.00     0.195 A 
ATOM     32  F   UNL d   1      29.399 -10.644   0.055  0.00  0.00    -0.199 F 
ATOM     33  C   UNL d   1      28.366 -12.785   0.140  0.00  0.00     0.184 A 
ATOM     34  F   UNL d   1      29.129 -13.197  -0.884  0.00  0.00    -0.200 F 
ENDBRANCH  24  26
ENDBRANCH  21  22
ENDBRANCH   3  21
TORSDOF 7
ENDMDL
MODEL 7
REMARK VINA RESULT:   -23.029      3.535      4.030
REMARK INTER + INTRA:         -26.097
REMARK INTER:                 -25.117
REMARK INTRA:                  -0.980
REMARK CONF_INDEPENDENT:        2.088
REMARK UNBOUND:                -0.980
REMARK  7 active torsions:
REMARK  status: ('A' for Active; 'I' for Inactive)
REMARK    1  A    between atoms: C_2  and  C_16 
REMARK    2  A    between atoms: C_2  and  S_3 
REMARK    3  A    between atoms: S_3  and  C_4 
REMARK    4  A    between atoms: C_7  and  C_8 
REMARK       I    between atoms: C_16  and  N_18 
REMARK    5  A    between atoms: N_18  and  C_19 
REMARK    6  A    between atoms: C_19  and  C_20 
REMARK       I    between atoms: C_20  and  N_22 
REMARK    7  A    between atoms: N_22  and  C_23 
ROOT
ATOM      1  C   UNL d   1      25.572 -16.433  -1.187  0.00  0.00     0.232 C 
ATOM      2  O   UNL d   1      26.562 -16.779  -1.842  0.00  0.00    -0.272 OA
ATOM      3  N   UNL d   1      25.749 -15.624  -0.073  0.00  0.00    -0.351 N 
ATOM      4  H   UNL d   1      24.958 -15.298   0.478  0.00  0.00     0.163 HD
ENDROOT
BRANCH   1   5
ATOM      5  C   UNL d   1      24.100 -16.853  -1.551  0.00  0.00     0.143 C 
ATOM      6  C   UNL d   1      23.115 -15.867  -0.929  0.00  0.00     0.031 C 
BRANCH   5   7
ATOM      7  S   UNL d   1      23.773 -18.596  -0.960  0.00  0.00    -0.076 SA
BRANCH   7   8
ATOM      8  C   UNL d   1      22.051 -18.770  -0.927  0.00  0.00     0.190 A 
ATOM      9  N   UNL d   1      21.148 -18.150  -1.645  0.00  0.00    -0.122 NA
ATOM     10  N   UNL d   1      19.905 -18.576  -1.221  0.00  0.00    -0.129 NA
ATOM     11  C   UNL d   1      20.069 -19.454  -0.250  0.00  0.00     0.165 A 
ATOM     12  N   UNL d   1      21.425 -19.626  -0.059  0.00  0.00    -0.316 N 
ATOM     13  H   UNL d   1      21.864 -20.267   0.584  0.00  0.00     0.169 HD
BRANCH  11  14
ATOM     14  C   UNL d   1      19.014 -20.154   0.481  0.00  0.00     0.050 A 
ATOM     15  C   UNL d   1      18.294 -21.193  -0.130  0.00  0.00     0.018 A 
ATOM     16  C   UNL d   1      17.284 -21.872   0.567  0.00  0.00     0.001 A 
ATOM     17  C   UNL d   1      16.961 -21.502   1.872  0.00  0.00     0.003 A 
ATOM     18  C   UNL d   1      17.644 -20.449   2.478  0.00  0.00     0.043 A 
ATOM     19  C   UNL d   1      18.663 -19.790   1.785  0.00  0.00     0.130 A 
ATOM     20  F   UNL d   1      19.299 -18.781   2.398  0.00  0.00    -0.205 F 
ENDBRANCH  11  14
ENDBRANCH   7   8
ENDBRANCH   5   7
ENDBRANCH   1   5
BRANCH   3  21
ATOM     21  C   UNL d   1      27.084 -15.183   0.387  0.00  0.00     0.225 C 
BRANCH  21  22
ATOM     22  C   UNL d   1      28.124 -16.323   0.293  0.00  0.00     0.239 C 
ATOM     23  O   UNL d   1      27.885 -17.412   0.829  0.00  0.00    -0.271 OA
ATOM     24  N   UNL d   1      29.319 -16.040  -0.376  0.00  0.00    -0.323 N 
ATOM     25  H   UNL d   1      29.584 -15.068  -0.520  0.00  0.00     0.169 HD
BRANCH  24  26
ATOM     26  C   UNL d   1      30.357 -17.013  -0.506  0.00  0.00     0.077 A 
ATOM     27  C   UNL d   1      30.197 -18.109  -1.365  0.00  0.00     0.036 A 
ATOM     28  C   UNL d   1      31.189 -19.089  -1.479  0.00  0.00     0.048 A 
ATOM     29  C   UNL d   1      32.351 -18.983  -0.725  0.00  0.00     0.158 A 
ATOM     30  F   UNL d   1      33.286 -19.938  -0.828  0.00  0.00    -0.203 F 
ATOM     31  C   UNL d   1      32.540 -17.896   0.119  0.00  0.00     0.195 A 
ATOM     32  F   UNL d   1      33.660 -17.815   0.853  0.00  0.00    -0.199 F 
ATOM     33  C   UNL d   1      31.558 -16.904   0.213  0.00  0.00     0.184 A 
ATOM     34  F   UNL d   1      31.745 -15.876   1.055  0.00  0.00    -0.200 F 
ENDBRANCH  24  26
ENDBRANCH  21  22
ENDBRANCH   3  21
TORSDOF 7
ENDMDL
