MODEL 1
REMARK VINA RESULT:    -8.165      0.000      0.000
REMARK INTER + INTRA:         -12.961
REMARK INTER:                 -11.148
REMARK INTRA:                  -1.813
REMARK CONF_INDEPENDENT:        2.983
REMARK UNBOUND:                -1.813
REMARK  10 active torsions:
REMARK  status: ('A' for Active; 'I' for Inactive)
REMARK    1  A    between atoms: C_2  and  O_3 
REMARK    2  A    between atoms: O_3  and  C_4 
REMARK    3  A    between atoms: C_4  and  C_6 
REMARK    4  A    between atoms: C_6  and  C_7 
REMARK    5  A    between atoms: C_7  and  C_8 
REMARK       I    between atoms: C_8  and  N_10 
REMARK    6  A    between atoms: N_10  and  C_11 
REMARK    7  A    between atoms: C_11  and  N_13 
REMARK    8  A    between atoms: N_13  and  C_14 
REMARK    9  A    between atoms: C_18  and  N_19 
REMARK       I    between atoms: N_19  and  C_20 
REMARK   10  A    between atoms: C_20  and  C_22 
ROOT
ATOM      1  N   UNL d   1      24.320 -14.832  -2.689  0.00  0.00    -0.333 N 
ATOM      2  H   UNL d   1      23.350 -14.551  -2.630  0.00  0.00     0.168 HD
ENDROOT
BRANCH   1   3
ATOM      3  C   UNL d   1      25.119 -14.443  -3.804  0.00  0.00     0.178 C 
ATOM      4  S   UNL d   1      25.903 -15.571  -4.802  0.00  0.00    -0.040 SA
BRANCH   3   5
ATOM      5  N   UNL d   1      25.151 -13.044  -4.065  0.00  0.00    -0.304 N 
ATOM      6  C   UNL d   1      25.882 -12.111  -3.300  0.00  0.00     0.224 C 
ATOM      7  O   UNL d   1      26.501 -12.396  -2.274  0.00  0.00    -0.273 OA
ATOM      8  H   UNL d   1      24.642 -12.696  -4.867  0.00  0.00     0.171 HD
BRANCH   6   9
ATOM      9  C   UNL d   1      25.927 -10.647  -3.722  0.00  0.00     0.113 C 
BRANCH   9  10
ATOM     10  C   UNL d   1      26.841 -10.509  -4.985  0.00  0.00     0.120 C 
BRANCH  10  11
ATOM     11  C   UNL d   1      26.336 -11.307  -6.160  0.00  0.00     0.259 C 
ATOM     12  O   UNL d   1      25.152 -11.325  -6.508  0.00  0.00    -0.265 OA
BRANCH  11  13
ATOM     13  O   UNL d   1      27.331 -12.004  -6.786  0.00  0.00    -0.322 OA
BRANCH  13  14
ATOM     14  C   UNL d   1      27.856 -13.103  -6.014  0.00  0.00     0.174 C 
ATOM     15  C   UNL d   1      28.828 -13.936  -6.837  0.00  0.00     0.034 C 
ENDBRANCH  13  14
ENDBRANCH  11  13
ENDBRANCH  10  11
ENDBRANCH   9  10
ENDBRANCH   6   9
ENDBRANCH   3   5
ENDBRANCH   1   3
BRANCH   1  16
ATOM     16  C   UNL d   1      24.709 -15.887  -1.780  0.00  0.00     0.036 A 
ATOM     17  C   UNL d   1      25.963 -15.972  -1.192  0.00  0.00     0.029 A 
ATOM     18  C   UNL d   1      26.225 -16.994  -0.252  0.00  0.00     0.004 A 
ATOM     19  C   UNL d   1      25.229 -17.920   0.130  0.00  0.00     0.029 A 
ATOM     20  C   UNL d   1      23.984 -17.881  -0.494  0.00  0.00     0.036 A 
ATOM     21  C   UNL d   1      23.785 -16.881  -1.454  0.00  0.00     0.059 A 
BRANCH  20  22
ATOM     22  N   UNL d   1      22.956 -18.823  -0.176  0.00  0.00    -0.327 N 
ATOM     23  C   UNL d   1      21.601 -18.596  -0.412  0.00  0.00     0.225 C 
ATOM     24  O   UNL d   1      21.134 -17.586  -0.937  0.00  0.00    -0.273 OA
ATOM     25  H   UNL d   1      23.243 -19.705   0.229  0.00  0.00     0.169 HD
BRANCH  23  26
ATOM     26  C   UNL d   1      20.623 -19.705  -0.049  0.00  0.00     0.070 C 
ATOM     27  C   UNL d   1      20.276 -19.702   1.430  0.00  0.00     0.019 C 
ATOM     28  C   UNL d   1      19.334 -19.476  -0.869  0.00  0.00     0.019 C 
ENDBRANCH  23  26
ENDBRANCH  20  22
ENDBRANCH   1  16
TORSDOF 10
ENDMDL
MODEL 2
REMARK VINA RESULT:    -7.979      2.481      9.142
REMARK INTER + INTRA:         -12.378
REMARK INTER:                 -10.962
REMARK INTRA:                  -1.416
REMARK CONF_INDEPENDENT:        2.983
REMARK UNBOUND:                -1.416
REMARK  10 active torsions:
REMARK  status: ('A' for Active; 'I' for Inactive)
REMARK    1  A    between atoms: C_2  and  O_3 
REMARK    2  A    between atoms: O_3  and  C_4 
REMARK    3  A    between atoms: C_4  and  C_6 
REMARK    4  A    between atoms: C_6  and  C_7 
REMARK    5  A    between atoms: C_7  and  C_8 
REMARK       I    between atoms: C_8  and  N_10 
REMARK    6  A    between atoms: N_10  and  C_11 
REMARK    7  A    between atoms: C_11  and  N_13 
REMARK    8  A    between atoms: N_13  and  C_14 
REMARK    9  A    between atoms: C_18  and  N_19 
REMARK       I    between atoms: N_19  and  C_20 
REMARK   10  A    between atoms: C_20  and  C_22 
ROOT
ATOM      1  N   UNL d   1      24.666 -15.614  -1.608  0.00  0.00    -0.333 N 
ATOM      2  H   UNL d   1      23.761 -15.272  -1.312  0.00  0.00     0.168 HD
ENDROOT
BRANCH   1   3
ATOM      3  C   UNL d   1      25.366 -16.578  -0.824  0.00  0.00     0.178 C 
ATOM      4  S   UNL d   1      26.874 -16.255  -0.116  0.00  0.00    -0.040 SA
BRANCH   3   5
ATOM      5  N   UNL d   1      24.674 -17.805  -0.617  0.00  0.00    -0.304 N 
ATOM      6  C   UNL d   1      23.271 -17.942  -0.663  0.00  0.00     0.224 C 
ATOM      7  O   UNL d   1      22.491 -16.998  -0.803  0.00  0.00    -0.273 OA
ATOM      8  H   UNL d   1      25.221 -18.640  -0.453  0.00  0.00     0.171 HD
BRANCH   6   9
ATOM      9  C   UNL d   1      22.634 -19.319  -0.522  0.00  0.00     0.113 C 
BRANCH   9  10
ATOM     10  C   UNL d   1      21.213 -19.161   0.114  0.00  0.00     0.120 C 
BRANCH  10  11
ATOM     11  C   UNL d   1      20.103 -19.505  -0.847  0.00  0.00     0.259 C 
ATOM     12  O   UNL d   1      20.286 -19.703  -2.051  0.00  0.00    -0.265 OA
BRANCH  11  13
ATOM     13  O   UNL d   1      18.882 -19.570  -0.235  0.00  0.00    -0.322 OA
BRANCH  13  14
ATOM     14  C   UNL d   1      18.660 -20.787   0.508  0.00  0.00     0.174 C 
ATOM     15  C   UNL d   1      18.778 -20.542   2.006  0.00  0.00     0.034 C 
ENDBRANCH  13  14
ENDBRANCH  11  13
ENDBRANCH  10  11
ENDBRANCH   9  10
ENDBRANCH   6   9
ENDBRANCH   3   5
ENDBRANCH   1   3
BRANCH   1  16
ATOM     16  C   UNL d   1      25.307 -14.835  -2.643  0.00  0.00     0.036 A 
ATOM     17  C   UNL d   1      24.778 -13.661  -3.162  0.00  0.00     0.029 A 
ATOM     18  C   UNL d   1      25.517 -12.923  -4.114  0.00  0.00     0.004 A 
ATOM     19  C   UNL d   1      26.801 -13.336  -4.534  0.00  0.00     0.029 A 
ATOM     20  C   UNL d   1      27.320 -14.540  -4.064  0.00  0.00     0.036 A 
ATOM     21  C   UNL d   1      26.532 -15.262  -3.159  0.00  0.00     0.059 A 
BRANCH  20  22
ATOM     22  N   UNL d   1      28.595 -15.024  -4.491  0.00  0.00    -0.327 N 
ATOM     23  C   UNL d   1      28.900 -15.333  -5.816  0.00  0.00     0.225 C 
ATOM     24  O   UNL d   1      28.131 -15.202  -6.767  0.00  0.00    -0.273 OA
ATOM     25  H   UNL d   1      29.312 -15.132  -3.784  0.00  0.00     0.169 HD
BRANCH  23  26
ATOM     26  C   UNL d   1      30.313 -15.811  -6.126  0.00  0.00     0.070 C 
ATOM     27  C   UNL d   1      31.358 -15.079  -5.303  0.00  0.00     0.019 C 
ATOM     28  C   UNL d   1      30.376 -17.318  -5.796  0.00  0.00     0.019 C 
ENDBRANCH  23  26
ENDBRANCH  20  22
ENDBRANCH   1  16
TORSDOF 10
ENDMDL
MODEL 3
REMARK VINA RESULT:    -7.961      2.094      2.449
REMARK INTER + INTRA:         -12.868
REMARK INTER:                 -10.944
REMARK INTRA:                  -1.923
REMARK CONF_INDEPENDENT:        2.983
REMARK UNBOUND:                -1.923
REMARK  10 active torsions:
REMARK  status: ('A' for Active; 'I' for Inactive)
REMARK    1  A    between atoms: C_2  and  O_3 
REMARK    2  A    between atoms: O_3  and  C_4 
REMARK    3  A    between atoms: C_4  and  C_6 
REMARK    4  A    between atoms: C_6  and  C_7 
REMARK    5  A    between atoms: C_7  and  C_8 
REMARK       I    between atoms: C_8  and  N_10 
REMARK    6  A    between atoms: N_10  and  C_11 
REMARK    7  A    between atoms: C_11  and  N_13 
REMARK    8  A    between atoms: N_13  and  C_14 
REMARK    9  A    between atoms: C_18  and  N_19 
REMARK       I    between atoms: N_19  and  C_20 
REMARK   10  A    between atoms: C_20  and  C_22 
ROOT
ATOM      1  N   UNL d   1      25.234 -15.217  -2.043  0.00  0.00    -0.333 N 
ATOM      2  H   UNL d   1      24.744 -15.334  -2.921  0.00  0.00     0.168 HD
ENDROOT
BRANCH   1   3
ATOM      3  C   UNL d   1      26.096 -14.100  -1.839  0.00  0.00     0.178 C 
ATOM      4  S   UNL d   1      26.623 -13.624  -0.297  0.00  0.00    -0.040 SA
BRANCH   3   5
ATOM      5  N   UNL d   1      26.544 -13.458  -3.028  0.00  0.00    -0.304 N 
ATOM      6  C   UNL d   1      25.828 -13.451  -4.244  0.00  0.00     0.224 C 
ATOM      7  O   UNL d   1      24.780 -14.072  -4.429  0.00  0.00    -0.273 OA
ATOM      8  H   UNL d   1      27.417 -12.948  -2.996  0.00  0.00     0.171 HD
BRANCH   6   9
ATOM      9  C   UNL d   1      26.350 -12.652  -5.432  0.00  0.00     0.113 C 
BRANCH   9  10
ATOM     10  C   UNL d   1      27.618 -13.365  -6.008  0.00  0.00     0.120 C 
BRANCH  10  11
ATOM     11  C   UNL d   1      27.611 -14.853  -5.765  0.00  0.00     0.259 C 
ATOM     12  O   UNL d   1      26.618 -15.563  -5.942  0.00  0.00    -0.265 OA
BRANCH  11  13
ATOM     13  O   UNL d   1      28.820 -15.318  -5.329  0.00  0.00    -0.322 OA
BRANCH  13  14
ATOM     14  C   UNL d   1      29.347 -14.609  -4.188  0.00  0.00     0.174 C 
ATOM     15  C   UNL d   1      29.102 -15.384  -2.901  0.00  0.00     0.034 C 
ENDBRANCH  13  14
ENDBRANCH  11  13
ENDBRANCH  10  11
ENDBRANCH   9  10
ENDBRANCH   6   9
ENDBRANCH   3   5
ENDBRANCH   1   3
BRANCH   1  16
ATOM     16  C   UNL d   1      25.258 -16.388  -1.195  0.00  0.00     0.036 A 
ATOM     17  C   UNL d   1      26.421 -16.928  -0.664  0.00  0.00     0.029 A 
ATOM     18  C   UNL d   1      26.339 -18.025   0.223  0.00  0.00     0.004 A 
ATOM     19  C   UNL d   1      25.096 -18.574   0.606  0.00  0.00     0.029 A 
ATOM     20  C   UNL d   1      23.925 -18.078   0.037  0.00  0.00     0.036 A 
ATOM     21  C   UNL d   1      24.058 -17.022  -0.872  0.00  0.00     0.059 A 
BRANCH  20  22
ATOM     22  N   UNL d   1      22.644 -18.627   0.358  0.00  0.00    -0.327 N 
ATOM     23  C   UNL d   1      21.762 -19.137  -0.593  0.00  0.00     0.225 C 
ATOM     24  O   UNL d   1      21.984 -19.200  -1.801  0.00  0.00    -0.273 OA
ATOM     25  H   UNL d   1      22.382 -18.654   1.336  0.00  0.00     0.169 HD
BRANCH  23  26
ATOM     26  C   UNL d   1      20.444 -19.717  -0.098  0.00  0.00     0.070 C 
ATOM     27  C   UNL d   1      20.228 -19.467   1.384  0.00  0.00     0.019 C 
ATOM     28  C   UNL d   1      19.308 -19.038  -0.895  0.00  0.00     0.019 C 
ENDBRANCH  23  26
ENDBRANCH  20  22
ENDBRANCH   1  16
TORSDOF 10
ENDMDL
MODEL 4
REMARK VINA RESULT:    -7.916      2.086      2.582
REMARK INTER + INTRA:         -12.440
REMARK INTER:                 -10.899
REMARK INTRA:                  -1.541
REMARK CONF_INDEPENDENT:        2.983
REMARK UNBOUND:                -1.541
REMARK  10 active torsions:
REMARK  status: ('A' for Active; 'I' for Inactive)
REMARK    1  A    between atoms: C_2  and  O_3 
REMARK    2  A    between atoms: O_3  and  C_4 
REMARK    3  A    between atoms: C_4  and  C_6 
REMARK    4  A    between atoms: C_6  and  C_7 
REMARK    5  A    between atoms: C_7  and  C_8 
REMARK       I    between atoms: C_8  and  N_10 
REMARK    6  A    between atoms: N_10  and  C_11 
REMARK    7  A    between atoms: C_11  and  N_13 
REMARK    8  A    between atoms: N_13  and  C_14 
REMARK    9  A    between atoms: C_18  and  N_19 
REMARK       I    between atoms: N_19  and  C_20 
REMARK   10  A    between atoms: C_20  and  C_22 
ROOT
ATOM      1  N   UNL d   1      24.559 -15.151  -2.613  0.00  0.00    -0.333 N 
ATOM      2  H   UNL d   1      23.593 -15.071  -2.901  0.00  0.00     0.168 HD
ENDROOT
BRANCH   1   3
ATOM      3  C   UNL d   1      25.586 -14.463  -3.323  0.00  0.00     0.178 C 
ATOM      4  S   UNL d   1      25.544 -12.788  -3.592  0.00  0.00    -0.040 SA
BRANCH   3   5
ATOM      5  N   UNL d   1      26.687 -15.272  -3.727  0.00  0.00    -0.304 N 
ATOM      6  C   UNL d   1      28.011 -15.090  -3.276  0.00  0.00     0.224 C 
ATOM      7  O   UNL d   1      28.371 -14.161  -2.551  0.00  0.00    -0.273 OA
ATOM      8  H   UNL d   1      26.508 -16.044  -4.354  0.00  0.00     0.171 HD
BRANCH   6   9
ATOM      9  C   UNL d   1      29.100 -16.071  -3.693  0.00  0.00     0.113 C 
BRANCH   9  10
ATOM     10  C   UNL d   1      29.474 -15.810  -5.190  0.00  0.00     0.120 C 
BRANCH  10  11
ATOM     11  C   UNL d   1      28.508 -14.880  -5.879  0.00  0.00     0.259 C 
ATOM     12  O   UNL d   1      27.353 -15.200  -6.173  0.00  0.00    -0.265 OA
BRANCH  11  13
ATOM     13  O   UNL d   1      29.055 -13.654  -6.138  0.00  0.00    -0.322 OA
BRANCH  13  14
ATOM     14  C   UNL d   1      29.184 -13.353  -7.543  0.00  0.00     0.174 C 
ATOM     15  C   UNL d   1      29.830 -11.991  -7.754  0.00  0.00     0.034 C 
ENDBRANCH  13  14
ENDBRANCH  11  13
ENDBRANCH  10  11
ENDBRANCH   9  10
ENDBRANCH   6   9
ENDBRANCH   3   5
ENDBRANCH   1   3
BRANCH   1  16
ATOM     16  C   UNL d   1      24.836 -16.233  -1.694  0.00  0.00     0.036 A 
ATOM     17  C   UNL d   1      26.062 -16.416  -1.069  0.00  0.00     0.029 A 
ATOM     18  C   UNL d   1      26.213 -17.455  -0.122  0.00  0.00     0.004 A 
ATOM     19  C   UNL d   1      25.136 -18.298   0.228  0.00  0.00     0.029 A 
ATOM     20  C   UNL d   1      23.918 -18.161  -0.432  0.00  0.00     0.036 A 
ATOM     21  C   UNL d   1      23.827 -17.150  -1.397  0.00  0.00     0.059 A 
BRANCH  20  22
ATOM     22  N   UNL d   1      22.809 -19.019  -0.147  0.00  0.00    -0.327 N 
ATOM     23  C   UNL d   1      21.481 -18.672  -0.391  0.00  0.00     0.225 C 
ATOM     24  O   UNL d   1      21.108 -17.615  -0.899  0.00  0.00    -0.273 OA
ATOM     25  H   UNL d   1      23.015 -19.931   0.242  0.00  0.00     0.169 HD
BRANCH  23  26
ATOM     26  C   UNL d   1      20.408 -19.701  -0.063  0.00  0.00     0.070 C 
ATOM     27  C   UNL d   1      20.043 -19.699   1.410  0.00  0.00     0.019 C 
ATOM     28  C   UNL d   1      19.155 -19.347  -0.893  0.00  0.00     0.019 C 
ENDBRANCH  23  26
ENDBRANCH  20  22
ENDBRANCH   1  16
TORSDOF 10
ENDMDL
MODEL 5
REMARK VINA RESULT:    -7.877      2.437      3.456
REMARK INTER + INTRA:         -12.606
REMARK INTER:                 -10.860
REMARK INTRA:                  -1.747
REMARK CONF_INDEPENDENT:        2.983
REMARK UNBOUND:                -1.747
REMARK  10 active torsions:
REMARK  status: ('A' for Active; 'I' for Inactive)
REMARK    1  A    between atoms: C_2  and  O_3 
REMARK    2  A    between atoms: O_3  and  C_4 
REMARK    3  A    between atoms: C_4  and  C_6 
REMARK    4  A    between atoms: C_6  and  C_7 
REMARK    5  A    between atoms: C_7  and  C_8 
REMARK       I    between atoms: C_8  and  N_10 
REMARK    6  A    between atoms: N_10  and  C_11 
REMARK    7  A    between atoms: C_11  and  N_13 
REMARK    8  A    between atoms: N_13  and  C_14 
REMARK    9  A    between atoms: C_18  and  N_19 
REMARK       I    between atoms: N_19  and  C_20 
REMARK   10  A    between atoms: C_20  and  C_22 
ROOT
ATOM      1  N   UNL d   1      26.962 -17.565  -0.549  0.00  0.00    -0.333 N 
ATOM      2  H   UNL d   1      27.170 -18.410  -0.033  0.00  0.00     0.168 HD
ENDROOT
BRANCH   1   3
ATOM      3  C   UNL d   1      27.993 -16.623  -0.839  0.00  0.00     0.178 C 
ATOM      4  S   UNL d   1      29.425 -16.530   0.068  0.00  0.00    -0.040 SA
BRANCH   3   5
ATOM      5  N   UNL d   1      27.766 -15.816  -1.990  0.00  0.00    -0.304 N 
ATOM      6  C   UNL d   1      28.453 -15.969  -3.213  0.00  0.00     0.224 C 
ATOM      7  O   UNL d   1      29.380 -16.761  -3.388  0.00  0.00    -0.273 OA
ATOM      8  H   UNL d   1      27.049 -15.105  -1.941  0.00  0.00     0.171 HD
BRANCH   6   9
ATOM      9  C   UNL d   1      28.067 -15.116  -4.415  0.00  0.00     0.113 C 
BRANCH   9  10
ATOM     10  C   UNL d   1      26.568 -15.387  -4.773  0.00  0.00     0.120 C 
BRANCH  10  11
ATOM     11  C   UNL d   1      25.619 -14.473  -4.040  0.00  0.00     0.259 C 
ATOM     12  O   UNL d   1      24.406 -14.442  -4.258  0.00  0.00    -0.265 OA
BRANCH  11  13
ATOM     13  O   UNL d   1      26.255 -13.688  -3.119  0.00  0.00    -0.322 OA
BRANCH  13  14
ATOM     14  C   UNL d   1      26.505 -12.340  -3.567  0.00  0.00     0.174 C 
ATOM     15  C   UNL d   1      25.921 -12.106  -4.953  0.00  0.00     0.034 C 
ENDBRANCH  13  14
ENDBRANCH  11  13
ENDBRANCH  10  11
ENDBRANCH   9  10
ENDBRANCH   6   9
ENDBRANCH   3   5
ENDBRANCH   1   3
BRANCH   1  16
ATOM     16  C   UNL d   1      25.557 -17.243  -0.657  0.00  0.00     0.036 A 
ATOM     17  C   UNL d   1      25.077 -16.089  -1.259  0.00  0.00     0.029 A 
ATOM     18  C   UNL d   1      23.682 -15.899  -1.391  0.00  0.00     0.004 A 
ATOM     19  C   UNL d   1      22.759 -16.871  -0.949  0.00  0.00     0.029 A 
ATOM     20  C   UNL d   1      23.225 -18.008  -0.292  0.00  0.00     0.036 A 
ATOM     21  C   UNL d   1      24.612 -18.131  -0.141  0.00  0.00     0.059 A 
BRANCH  20  22
ATOM     22  N   UNL d   1      22.330 -19.001   0.215  0.00  0.00    -0.327 N 
ATOM     23  C   UNL d   1      20.978 -19.064  -0.118  0.00  0.00     0.225 C 
ATOM     24  O   UNL d   1      20.405 -18.303  -0.896  0.00  0.00    -0.273 OA
ATOM     25  H   UNL d   1      22.716 -19.700   0.838  0.00  0.00     0.169 HD
BRANCH  23  26
ATOM     26  C   UNL d   1      20.154 -20.199   0.477  0.00  0.00     0.070 C 
ATOM     27  C   UNL d   1      19.944 -20.032   1.971  0.00  0.00     0.019 C 
ATOM     28  C   UNL d   1      18.780 -20.195  -0.228  0.00  0.00     0.019 C 
ENDBRANCH  23  26
ENDBRANCH  20  22
ENDBRANCH   1  16
TORSDOF 10
ENDMDL
MODEL 6
REMARK VINA RESULT:    -7.822      2.641      4.062
REMARK INTER + INTRA:         -12.889
REMARK INTER:                 -10.805
REMARK INTRA:                  -2.085
REMARK CONF_INDEPENDENT:        2.983
REMARK UNBOUND:                -2.085
REMARK  10 active torsions:
REMARK  status: ('A' for Active; 'I' for Inactive)
REMARK    1  A    between atoms: C_2  and  O_3 
REMARK    2  A    between atoms: O_3  and  C_4 
REMARK    3  A    between atoms: C_4  and  C_6 
REMARK    4  A    between atoms: C_6  and  C_7 
REMARK    5  A    between atoms: C_7  and  C_8 
REMARK       I    between atoms: C_8  and  N_10 
REMARK    6  A    between atoms: N_10  and  C_11 
REMARK    7  A    between atoms: C_11  and  N_13 
REMARK    8  A    between atoms: N_13  and  C_14 
REMARK    9  A    between atoms: C_18  and  N_19 
REMARK       I    between atoms: N_19  and  C_20 
REMARK   10  A    between atoms: C_20  and  C_22 
ROOT
ATOM      1  N   UNL d   1      25.158 -16.236  -3.228  0.00  0.00    -0.333 N 
ATOM      2  H   UNL d   1      24.781 -16.771  -3.999  0.00  0.00     0.168 HD
ENDROOT
BRANCH   1   3
ATOM      3  C   UNL d   1      25.909 -15.049  -3.470  0.00  0.00     0.178 C 
ATOM      4  S   UNL d   1      25.224 -13.499  -3.367  0.00  0.00    -0.040 SA
BRANCH   3   5
ATOM      5  N   UNL d   1      27.294 -15.253  -3.732  0.00  0.00    -0.304 N 
ATOM      6  C   UNL d   1      27.863 -15.270  -5.023  0.00  0.00     0.224 C 
ATOM      7  O   UNL d   1      27.210 -15.195  -6.065  0.00  0.00    -0.273 OA
ATOM      8  H   UNL d   1      27.917 -15.365  -2.943  0.00  0.00     0.171 HD
BRANCH   6   9
ATOM      9  C   UNL d   1      29.372 -15.401  -5.189  0.00  0.00     0.113 C 
BRANCH   9  10
ATOM     10  C   UNL d   1      29.823 -16.804  -4.664  0.00  0.00     0.120 C 
BRANCH  10  11
ATOM     11  C   UNL d   1      30.196 -16.788  -3.203  0.00  0.00     0.259 C 
ATOM     12  O   UNL d   1      31.340 -16.564  -2.799  0.00  0.00    -0.265 OA
BRANCH  11  13
ATOM     13  O   UNL d   1      29.131 -17.051  -2.388  0.00  0.00    -0.322 OA
BRANCH  13  14
ATOM     14  C   UNL d   1      29.382 -16.796  -0.990  0.00  0.00     0.174 C 
ATOM     15  C   UNL d   1      29.188 -15.322  -0.660  0.00  0.00     0.034 C 
ENDBRANCH  13  14
ENDBRANCH  11  13
ENDBRANCH  10  11
ENDBRANCH   9  10
ENDBRANCH   6   9
ENDBRANCH   3   5
ENDBRANCH   1   3
BRANCH   1  16
ATOM     16  C   UNL d   1      25.171 -16.923  -1.956  0.00  0.00     0.036 A 
ATOM     17  C   UNL d   1      26.176 -16.770  -1.010  0.00  0.00     0.029 A 
ATOM     18  C   UNL d   1      26.061 -17.418   0.241  0.00  0.00     0.004 A 
ATOM     19  C   UNL d   1      24.931 -18.200   0.566  0.00  0.00     0.029 A 
ATOM     20  C   UNL d   1      23.943 -18.408  -0.393  0.00  0.00     0.036 A 
ATOM     21  C   UNL d   1      24.122 -17.785  -1.634  0.00  0.00     0.059 A 
BRANCH  20  22
ATOM     22  N   UNL d   1      22.802 -19.227  -0.129  0.00  0.00    -0.327 N 
ATOM     23  C   UNL d   1      21.490 -18.832  -0.391  0.00  0.00     0.225 C 
ATOM     24  O   UNL d   1      21.162 -17.760  -0.897  0.00  0.00    -0.273 OA
ATOM     25  H   UNL d   1      22.969 -20.148   0.257  0.00  0.00     0.169 HD
BRANCH  23  26
ATOM     26  C   UNL d   1      20.377 -19.825  -0.085  0.00  0.00     0.070 C 
ATOM     27  C   UNL d   1      20.020 -19.849   1.391  0.00  0.00     0.019 C 
ATOM     28  C   UNL d   1      19.135 -19.396  -0.896  0.00  0.00     0.019 C 
ENDBRANCH  23  26
ENDBRANCH  20  22
ENDBRANCH   1  16
TORSDOF 10
ENDMDL
MODEL 7
REMARK VINA RESULT:    -7.599      2.157      2.858
REMARK INTER + INTRA:         -12.762
REMARK INTER:                 -10.582
REMARK INTRA:                  -2.180
REMARK CONF_INDEPENDENT:        2.983
REMARK UNBOUND:                -2.180
REMARK  10 active torsions:
REMARK  status: ('A' for Active; 'I' for Inactive)
REMARK    1  A    between atoms: C_2  and  O_3 
REMARK    2  A    between atoms: O_3  and  C_4 
REMARK    3  A    between atoms: C_4  and  C_6 
REMARK    4  A    between atoms: C_6  and  C_7 
REMARK    5  A    between atoms: C_7  and  C_8 
REMARK       I    between atoms: C_8  and  N_10 
REMARK    6  A    between atoms: N_10  and  C_11 
REMARK    7  A    between atoms: C_11  and  N_13 
REMARK    8  A    between atoms: N_13  and  C_14 
REMARK    9  A    between atoms: C_18  and  N_19 
REMARK       I    between atoms: N_19  and  C_20 
REMARK   10  A    between atoms: C_20  and  C_22 
ROOT
ATOM      1  N   UNL d   1      25.039 -15.085  -2.100  0.00  0.00    -0.333 N 
ATOM      2  H   UNL d   1      24.443 -15.024  -2.915  0.00  0.00     0.168 HD
ENDROOT
BRANCH   1   3
ATOM      3  C   UNL d   1      26.132 -14.185  -1.933  0.00  0.00     0.178 C 
ATOM      4  S   UNL d   1      26.639 -13.637  -0.409  0.00  0.00    -0.040 SA
BRANCH   3   5
ATOM      5  N   UNL d   1      26.816 -13.837  -3.133  0.00  0.00    -0.304 N 
ATOM      6  C   UNL d   1      26.252 -13.932  -4.423  0.00  0.00     0.224 C 
ATOM      7  O   UNL d   1      25.139 -14.407  -4.655  0.00  0.00    -0.273 OA
ATOM      8  H   UNL d   1      27.755 -13.470  -3.058  0.00  0.00     0.171 HD
BRANCH   6   9
ATOM      9  C   UNL d   1      27.035 -13.442  -5.635  0.00  0.00     0.113 C 
BRANCH   9  10
ATOM     10  C   UNL d   1      28.565 -13.603  -5.352  0.00  0.00     0.120 C 
BRANCH  10  11
ATOM     11  C   UNL d   1      28.905 -14.927  -4.716  0.00  0.00     0.259 C 
ATOM     12  O   UNL d   1      29.186 -15.052  -3.521  0.00  0.00    -0.265 OA
BRANCH  11  13
ATOM     13  O   UNL d   1      28.866 -15.962  -5.608  0.00  0.00    -0.322 OA
BRANCH  13  14
ATOM     14  C   UNL d   1      29.803 -15.835  -6.697  0.00  0.00     0.174 C 
ATOM     15  C   UNL d   1      31.042 -16.686  -6.456  0.00  0.00     0.034 C 
ENDBRANCH  13  14
ENDBRANCH  11  13
ENDBRANCH  10  11
ENDBRANCH   9  10
ENDBRANCH   6   9
ENDBRANCH   3   5
ENDBRANCH   1   3
BRANCH   1  16
ATOM     16  C   UNL d   1      24.913 -16.309  -1.340  0.00  0.00     0.036 A 
ATOM     17  C   UNL d   1      25.993 -17.100  -0.971  0.00  0.00     0.029 A 
ATOM     18  C   UNL d   1      25.780 -18.235  -0.157  0.00  0.00     0.004 A 
ATOM     19  C   UNL d   1      24.493 -18.573   0.317  0.00  0.00     0.029 A 
ATOM     20  C   UNL d   1      23.395 -17.821  -0.091  0.00  0.00     0.036 A 
ATOM     21  C   UNL d   1      23.647 -16.734  -0.936  0.00  0.00     0.059 A 
BRANCH  20  22
ATOM     22  N   UNL d   1      22.066 -18.148   0.325  0.00  0.00    -0.327 N 
ATOM     23  C   UNL d   1      21.166 -18.867  -0.460  0.00  0.00     0.225 C 
ATOM     24  O   UNL d   1      21.408 -19.324  -1.576  0.00  0.00    -0.273 OA
ATOM     25  H   UNL d   1      21.780 -17.846   1.248  0.00  0.00     0.169 HD
BRANCH  23  26
ATOM     26  C   UNL d   1      19.793 -19.166   0.130  0.00  0.00     0.070 C 
ATOM     27  C   UNL d   1      18.844 -19.755  -0.899  0.00  0.00     0.019 C 
ATOM     28  C   UNL d   1      19.990 -20.184   1.274  0.00  0.00     0.019 C 
ENDBRANCH  23  26
ENDBRANCH  20  22
ENDBRANCH   1  16
TORSDOF 10
ENDMDL
MODEL 8
REMARK VINA RESULT:    -7.427      1.969      2.663
REMARK INTER + INTRA:         -12.460
REMARK INTER:                 -10.410
REMARK INTRA:                  -2.050
REMARK CONF_INDEPENDENT:        2.983
REMARK UNBOUND:                -2.050
REMARK  10 active torsions:
REMARK  status: ('A' for Active; 'I' for Inactive)
REMARK    1  A    between atoms: C_2  and  O_3 
REMARK    2  A    between atoms: O_3  and  C_4 
REMARK    3  A    between atoms: C_4  and  C_6 
REMARK    4  A    between atoms: C_6  and  C_7 
REMARK    5  A    between atoms: C_7  and  C_8 
REMARK       I    between atoms: C_8  and  N_10 
REMARK    6  A    between atoms: N_10  and  C_11 
REMARK    7  A    between atoms: C_11  and  N_13 
REMARK    8  A    between atoms: N_13  and  C_14 
REMARK    9  A    between atoms: C_18  and  N_19 
REMARK       I    between atoms: N_19  and  C_20 
REMARK   10  A    between atoms: C_20  and  C_22 
ROOT
ATOM      1  N   UNL d   1      25.053 -14.963  -2.034  0.00  0.00    -0.333 N 
ATOM      2  H   UNL d   1      24.461 -15.008  -2.853  0.00  0.00     0.168 HD
ENDROOT
BRANCH   1   3
ATOM      3  C   UNL d   1      25.909 -13.842  -1.822  0.00  0.00     0.178 C 
ATOM      4  S   UNL d   1      26.786 -13.623  -0.385  0.00  0.00    -0.040 SA
BRANCH   3   5
ATOM      5  N   UNL d   1      26.032 -12.958  -2.931  0.00  0.00    -0.304 N 
ATOM      6  C   UNL d   1      25.417 -13.167  -4.184  0.00  0.00     0.224 C 
ATOM      7  O   UNL d   1      24.778 -14.179  -4.477  0.00  0.00    -0.273 OA
ATOM      8  H   UNL d   1      26.570 -12.110  -2.809  0.00  0.00     0.171 HD
BRANCH   6   9
ATOM      9  C   UNL d   1      25.533 -12.110  -5.276  0.00  0.00     0.113 C 
BRANCH   9  10
ATOM     10  C   UNL d   1      26.642 -11.082  -4.874  0.00  0.00     0.120 C 
BRANCH  10  11
ATOM     11  C   UNL d   1      26.127  -9.993  -3.968  0.00  0.00     0.259 C 
ATOM     12  O   UNL d   1      25.882 -10.167  -2.772  0.00  0.00    -0.265 OA
BRANCH  11  13
ATOM     13  O   UNL d   1      25.961  -8.803  -4.621  0.00  0.00    -0.322 OA
BRANCH  13  14
ATOM     14  C   UNL d   1      25.279  -8.917  -5.887  0.00  0.00     0.174 C 
ATOM     15  C   UNL d   1      23.835  -8.449  -5.775  0.00  0.00     0.034 C 
ENDBRANCH  13  14
ENDBRANCH  11  13
ENDBRANCH  10  11
ENDBRANCH   9  10
ENDBRANCH   6   9
ENDBRANCH   3   5
ENDBRANCH   1   3
BRANCH   1  16
ATOM     16  C   UNL d   1      25.211 -16.211  -1.322  0.00  0.00     0.036 A 
ATOM     17  C   UNL d   1      26.443 -16.758  -0.991  0.00  0.00     0.029 A 
ATOM     18  C   UNL d   1      26.497 -17.941  -0.221  0.00  0.00     0.004 A 
ATOM     19  C   UNL d   1      25.324 -18.571   0.249  0.00  0.00     0.029 A 
ATOM     20  C   UNL d   1      24.081 -18.065  -0.122  0.00  0.00     0.036 A 
ATOM     21  C   UNL d   1      24.075 -16.918  -0.926  0.00  0.00     0.059 A 
BRANCH  20  22
ATOM     22  N   UNL d   1      22.863 -18.691   0.290  0.00  0.00    -0.327 N 
ATOM     23  C   UNL d   1      21.857 -19.081  -0.594  0.00  0.00     0.225 C 
ATOM     24  O   UNL d   1      21.905 -18.962  -1.817  0.00  0.00    -0.273 OA
ATOM     25  H   UNL d   1      22.742 -18.868   1.279  0.00  0.00     0.169 HD
BRANCH  23  26
ATOM     26  C   UNL d   1      20.628 -19.765  -0.011  0.00  0.00     0.070 C 
ATOM     27  C   UNL d   1      20.350 -19.325   1.416  0.00  0.00     0.019 C 
ATOM     28  C   UNL d   1      19.421 -19.388  -0.898  0.00  0.00     0.019 C 
ENDBRANCH  23  26
ENDBRANCH  20  22
ENDBRANCH   1  16
TORSDOF 10
ENDMDL
MODEL 9
REMARK VINA RESULT:    -7.349      1.688      2.717
REMARK INTER + INTRA:         -12.785
REMARK INTER:                 -10.332
REMARK INTRA:                  -2.453
REMARK CONF_INDEPENDENT:        2.983
REMARK UNBOUND:                -2.453
REMARK  10 active torsions:
REMARK  status: ('A' for Active; 'I' for Inactive)
REMARK    1  A    between atoms: C_2  and  O_3 
REMARK    2  A    between atoms: O_3  and  C_4 
REMARK    3  A    between atoms: C_4  and  C_6 
REMARK    4  A    between atoms: C_6  and  C_7 
REMARK    5  A    between atoms: C_7  and  C_8 
REMARK       I    between atoms: C_8  and  N_10 
REMARK    6  A    between atoms: N_10  and  C_11 
REMARK    7  A    between atoms: C_11  and  N_13 
REMARK    8  A    between atoms: N_13  and  C_14 
REMARK    9  A    between atoms: C_18  and  N_19 
REMARK       I    between atoms: N_19  and  C_20 
REMARK   10  A    between atoms: C_20  and  C_22 
ROOT
ATOM      1  N   UNL d   1      25.555 -15.854  -2.829  0.00  0.00    -0.333 N 
ATOM      2  H   UNL d   1      25.248 -16.228  -3.717  0.00  0.00     0.168 HD
ENDROOT
BRANCH   1   3
ATOM      3  C   UNL d   1      26.427 -14.726  -2.782  0.00  0.00     0.178 C 
ATOM      4  S   UNL d   1      26.281 -13.509  -1.607  0.00  0.00    -0.040 SA
BRANCH   3   5
ATOM      5  N   UNL d   1      27.475 -14.733  -3.745  0.00  0.00    -0.304 N 
ATOM      6  C   UNL d   1      27.315 -15.135  -5.088  0.00  0.00     0.224 C 
ATOM      7  O   UNL d   1      26.272 -15.604  -5.547  0.00  0.00    -0.273 OA
ATOM      8  H   UNL d   1      28.387 -14.401  -3.461  0.00  0.00     0.171 HD
BRANCH   6   9
ATOM      9  C   UNL d   1      28.479 -15.013  -6.064  0.00  0.00     0.113 C 
BRANCH   9  10
ATOM     10  C   UNL d   1      28.450 -13.591  -6.717  0.00  0.00     0.120 C 
BRANCH  10  11
ATOM     11  C   UNL d   1      28.309 -12.486  -5.700  0.00  0.00     0.259 C 
ATOM     12  O   UNL d   1      28.743 -12.567  -4.548  0.00  0.00    -0.265 OA
BRANCH  11  13
ATOM     13  O   UNL d   1      27.649 -11.397  -6.198  0.00  0.00    -0.322 OA
BRANCH  13  14
ATOM     14  C   UNL d   1      26.225 -11.416  -5.967  0.00  0.00     0.174 C 
ATOM     15  C   UNL d   1      25.913 -11.430  -4.477  0.00  0.00     0.034 C 
ENDBRANCH  13  14
ENDBRANCH  11  13
ENDBRANCH  10  11
ENDBRANCH   9  10
ENDBRANCH   6   9
ENDBRANCH   3   5
ENDBRANCH   1   3
BRANCH   1  16
ATOM     16  C   UNL d   1      25.333 -16.717  -1.691  0.00  0.00     0.036 A 
ATOM     17  C   UNL d   1      26.354 -17.225  -0.900  0.00  0.00     0.029 A 
ATOM     18  C   UNL d   1      26.035 -17.994   0.242  0.00  0.00     0.004 A 
ATOM     19  C   UNL d   1      24.696 -18.238   0.619  0.00  0.00     0.029 A 
ATOM     20  C   UNL d   1      23.663 -17.781  -0.196  0.00  0.00     0.036 A 
ATOM     21  C   UNL d   1      24.026 -17.065  -1.343  0.00  0.00     0.059 A 
BRANCH  20  22
ATOM     22  N   UNL d   1      22.292 -18.039   0.116  0.00  0.00    -0.327 N 
ATOM     23  C   UNL d   1      21.430 -18.752  -0.716  0.00  0.00     0.225 C 
ATOM     24  O   UNL d   1      21.746 -19.262  -1.790  0.00  0.00    -0.273 OA
ATOM     25  H   UNL d   1      21.943 -17.691   1.001  0.00  0.00     0.169 HD
BRANCH  23  26
ATOM     26  C   UNL d   1      20.002 -18.974  -0.236  0.00  0.00     0.070 C 
ATOM     27  C   UNL d   1      19.158 -19.702  -1.266  0.00  0.00     0.019 C 
ATOM     28  C   UNL d   1      20.071 -19.824   1.051  0.00  0.00     0.019 C 
ENDBRANCH  23  26
ENDBRANCH  20  22
ENDBRANCH   1  16
TORSDOF 10
ENDMDL
