MODEL 1
REMARK VINA RESULT:    -8.080      0.000      0.000
REMARK INTER + INTRA:         -11.722
REMARK INTER:                 -10.467
REMARK INTRA:                  -1.255
REMARK CONF_INDEPENDENT:        2.386
REMARK UNBOUND:                -1.255
REMARK  8 active torsions:
REMARK  status: ('A' for Active; 'I' for Inactive)
REMARK       I    between atoms: C_2  and  N_3 
REMARK       I    between atoms: C_2  and  N_12 
REMARK    1  A    between atoms: N_3  and  C_4 
REMARK    2  A    between atoms: C_4  and  C_5 
REMARK    3  A    between atoms: C_5  and  C_6 
REMARK    4  A    between atoms: C_6  and  N_7 
REMARK    5  A    between atoms: N_12  and  N_13 
REMARK       I    between atoms: N_13  and  C_14 
REMARK    6  A    between atoms: C_14  and  C_16 
REMARK    7  A    between atoms: C_21  and  S_22 
REMARK    8  A    between atoms: S_22  and  C_23 
ROOT
ATOM      1  N   UNL d   1      27.577 -14.808   2.109  0.00  0.00    -0.262 N 
ATOM      2  C   UNL d   1      27.119 -14.486   0.828  0.00  0.00     0.273 C 
ATOM      3  O   UNL d   1      26.289 -13.608   0.600  0.00  0.00    -0.266 OA
ATOM      4  H   UNL d   1      28.283 -15.516   2.242  0.00  0.00     0.190 HD
ENDROOT
BRANCH   1   5
ATOM      5  N   UNL d   1      27.304 -13.901   3.158  0.00  0.00    -0.249 N 
ATOM      6  C   UNL d   1      28.075 -13.666   4.268  0.00  0.00     0.334 C 
ATOM      7  O   UNL d   1      27.814 -12.765   5.059  0.00  0.00    -0.246 OA
ATOM      8  N   UNL d   1      29.144 -14.501   4.447  0.00  0.00    -0.342 N 
ATOM      9  H   UNL d   1      29.320 -15.196   3.747  0.00  0.00     0.164 HD
ATOM     10  H   UNL d   1      26.544 -13.235   2.982  0.00  0.00     0.192 HD
BRANCH   8  11
ATOM     11  C   UNL d   1      29.938 -14.461   5.663  0.00  0.00     0.126 C 
BRANCH  11  12
ATOM     12  C   UNL d   1      29.047 -14.371   6.894  0.00  0.00     0.040 C 
BRANCH  12  13
ATOM     13  C   UNL d   1      29.838 -14.069   8.163  0.00  0.00     0.130 C 
BRANCH  13  14
ATOM     14  N   UNL d   1      28.961 -13.784   9.317  0.00  0.00    -0.352 N 
ATOM     15  C   UNL d   1      28.562 -12.532   9.779  0.00  0.00     0.108 A 
ATOM     16  C   UNL d   1      27.769 -12.740  10.871  0.00  0.00     0.106 A 
ATOM     17  N   UNL d   1      27.727 -14.099  11.059  0.00  0.00    -0.361 N 
ATOM     18  C   UNL d   1      28.451 -14.728  10.129  0.00  0.00     0.182 A 
ATOM     19  H   UNL d   1      27.223 -14.570  11.806  0.00  0.00     0.166 HD
ENDBRANCH  13  14
ENDBRANCH  12  13
ENDBRANCH  11  12
ENDBRANCH   8  11
ENDBRANCH   1   5
BRANCH   2  20
ATOM     20  C   UNL d   1      27.636 -15.316  -0.281  0.00  0.00     0.069 A 
ATOM     21  C   UNL d   1      28.461 -14.634  -1.189  0.00  0.00     0.021 A 
ATOM     22  C   UNL d   1      29.133 -15.325  -2.189  0.00  0.00     0.020 A 
ATOM     23  C   UNL d   1      28.945 -16.687  -2.266  0.00  0.00     0.118 A 
ATOM     24  N   UNL d   1      28.125 -17.367  -1.432  0.00  0.00    -0.253 NA
ATOM     25  C   UNL d   1      27.477 -16.700  -0.422  0.00  0.00     0.113 A 
BRANCH  25  26
ATOM     26  S   UNL d   1      26.475 -17.825   0.539  0.00  0.00    -0.070 SA
BRANCH  26  27
ATOM     27  C   UNL d   1      24.819 -17.784  -0.096  0.00  0.00     0.007 A 
ATOM     28  C   UNL d   1      24.067 -18.965  -0.154  0.00  0.00     0.019 A 
ATOM     29  C   UNL d   1      22.741 -18.944  -0.598  0.00  0.00     0.001 A 
ATOM     30  C   UNL d   1      22.133 -17.733  -0.918  0.00  0.00     0.000 A 
ATOM     31  C   UNL d   1      22.880 -16.559  -0.891  0.00  0.00     0.001 A 
ATOM     32  C   UNL d   1      24.225 -16.587  -0.510  0.00  0.00     0.019 A 
ENDBRANCH  26  27
ENDBRANCH  25  26
ENDBRANCH   2  20
TORSDOF 8
ENDMDL
MODEL 2
REMARK VINA RESULT:    -7.877      6.686      9.247
REMARK INTER + INTRA:         -11.844
REMARK INTER:                 -10.263
REMARK INTRA:                  -1.581
REMARK CONF_INDEPENDENT:        2.386
REMARK UNBOUND:                -1.581
REMARK  8 active torsions:
REMARK  status: ('A' for Active; 'I' for Inactive)
REMARK       I    between atoms: C_2  and  N_3 
REMARK       I    between atoms: C_2  and  N_12 
REMARK    1  A    between atoms: N_3  and  C_4 
REMARK    2  A    between atoms: C_4  and  C_5 
REMARK    3  A    between atoms: C_5  and  C_6 
REMARK    4  A    between atoms: C_6  and  N_7 
REMARK    5  A    between atoms: N_12  and  N_13 
REMARK       I    between atoms: N_13  and  C_14 
REMARK    6  A    between atoms: C_14  and  C_16 
REMARK    7  A    between atoms: C_21  and  S_22 
REMARK    8  A    between atoms: S_22  and  C_23 
ROOT
ATOM      1  N   UNL d   1      26.944 -13.287  -5.238  0.00  0.00    -0.262 N 
ATOM      2  C   UNL d   1      27.485 -14.434  -5.826  0.00  0.00     0.273 C 
ATOM      3  O   UNL d   1      26.953 -15.542  -5.776  0.00  0.00    -0.266 OA
ATOM      4  H   UNL d   1      27.401 -12.393  -5.333  0.00  0.00     0.190 HD
ENDROOT
BRANCH   1   5
ATOM      5  N   UNL d   1      25.593 -13.330  -4.822  0.00  0.00    -0.249 N 
ATOM      6  C   UNL d   1      25.033 -14.201  -3.923  0.00  0.00     0.334 C 
ATOM      7  O   UNL d   1      23.876 -14.075  -3.533  0.00  0.00    -0.246 OA
ATOM      8  N   UNL d   1      25.834 -15.225  -3.496  0.00  0.00    -0.342 N 
ATOM      9  H   UNL d   1      26.779 -15.252  -3.829  0.00  0.00     0.164 HD
ATOM     10  H   UNL d   1      25.021 -12.523  -5.091  0.00  0.00     0.192 HD
BRANCH   8  11
ATOM     11  C   UNL d   1      25.309 -16.302  -2.675  0.00  0.00     0.126 C 
BRANCH  11  12
ATOM     12  C   UNL d   1      26.134 -16.476  -1.408  0.00  0.00     0.040 C 
BRANCH  12  13
ATOM     13  C   UNL d   1      25.284 -16.396  -0.145  0.00  0.00     0.130 C 
BRANCH  13  14
ATOM     14  N   UNL d   1      24.108 -17.289  -0.202  0.00  0.00    -0.352 N 
ATOM     15  C   UNL d   1      22.820 -16.957  -0.616  0.00  0.00     0.108 A 
ATOM     16  C   UNL d   1      22.055 -18.080  -0.492  0.00  0.00     0.106 A 
ATOM     17  N   UNL d   1      22.882 -19.052   0.014  0.00  0.00    -0.361 N 
ATOM     18  C   UNL d   1      24.116 -18.575   0.198  0.00  0.00     0.182 A 
ATOM     19  H   UNL d   1      22.600 -20.005   0.230  0.00  0.00     0.166 HD
ENDBRANCH  13  14
ENDBRANCH  12  13
ENDBRANCH  11  12
ENDBRANCH   8  11
ENDBRANCH   1   5
BRANCH   2  20
ATOM     20  C   UNL d   1      28.803 -14.278  -6.476  0.00  0.00     0.069 A 
ATOM     21  C   UNL d   1      28.865 -13.259  -7.439  0.00  0.00     0.021 A 
ATOM     22  C   UNL d   1      30.077 -12.906  -8.017  0.00  0.00     0.020 A 
ATOM     23  C   UNL d   1      31.201 -13.600  -7.627  0.00  0.00     0.118 A 
ATOM     24  N   UNL d   1      31.167 -14.615  -6.732  0.00  0.00    -0.253 NA
ATOM     25  C   UNL d   1      29.980 -14.954  -6.134  0.00  0.00     0.113 A 
BRANCH  25  26
ATOM     26  S   UNL d   1      30.212 -16.307  -4.988  0.00  0.00    -0.070 SA
BRANCH  26  27
ATOM     27  C   UNL d   1      30.498 -17.789  -5.921  0.00  0.00     0.007 A 
ATOM     28  C   UNL d   1      30.864 -17.700  -7.271  0.00  0.00     0.019 A 
ATOM     29  C   UNL d   1      31.150 -18.853  -8.008  0.00  0.00     0.001 A 
ATOM     30  C   UNL d   1      31.144 -20.098  -7.384  0.00  0.00     0.000 A 
ATOM     31  C   UNL d   1      30.755 -20.199  -6.052  0.00  0.00     0.001 A 
ATOM     32  C   UNL d   1      30.405 -19.053  -5.331  0.00  0.00     0.019 A 
ENDBRANCH  26  27
ENDBRANCH  25  26
ENDBRANCH   2  20
TORSDOF 8
ENDMDL
MODEL 3
REMARK VINA RESULT:    -7.709      6.073      8.747
REMARK INTER + INTRA:         -11.623
REMARK INTER:                 -10.095
REMARK INTRA:                  -1.527
REMARK CONF_INDEPENDENT:        2.386
REMARK UNBOUND:                -1.527
REMARK  8 active torsions:
REMARK  status: ('A' for Active; 'I' for Inactive)
REMARK       I    between atoms: C_2  and  N_3 
REMARK       I    between atoms: C_2  and  N_12 
REMARK    1  A    between atoms: N_3  and  C_4 
REMARK    2  A    between atoms: C_4  and  C_5 
REMARK    3  A    between atoms: C_5  and  C_6 
REMARK    4  A    between atoms: C_6  and  N_7 
REMARK    5  A    between atoms: N_12  and  N_13 
REMARK       I    between atoms: N_13  and  C_14 
REMARK    6  A    between atoms: C_14  and  C_16 
REMARK    7  A    between atoms: C_21  and  S_22 
REMARK    8  A    between atoms: S_22  and  C_23 
ROOT
ATOM      1  N   UNL d   1      28.227 -17.250  -1.629  0.00  0.00    -0.262 N 
ATOM      2  C   UNL d   1      27.614 -16.101  -2.135  0.00  0.00     0.273 C 
ATOM      3  O   UNL d   1      26.726 -15.485  -1.547  0.00  0.00    -0.266 OA
ATOM      4  H   UNL d   1      28.975 -17.702  -2.134  0.00  0.00     0.190 HD
ENDROOT
BRANCH   1   5
ATOM      5  N   UNL d   1      28.036 -17.557  -0.262  0.00  0.00    -0.249 N 
ATOM      6  C   UNL d   1      26.848 -17.845   0.361  0.00  0.00     0.334 C 
ATOM      7  O   UNL d   1      26.804 -18.222   1.528  0.00  0.00    -0.246 OA
ATOM      8  N   UNL d   1      25.717 -17.676  -0.390  0.00  0.00    -0.342 N 
ATOM      9  H   UNL d   1      25.825 -17.396  -1.346  0.00  0.00     0.164 HD
ATOM     10  H   UNL d   1      28.889 -17.747   0.273  0.00  0.00     0.192 HD
BRANCH   8  11
ATOM     11  C   UNL d   1      24.395 -17.790   0.202  0.00  0.00     0.126 C 
BRANCH  11  12
ATOM     12  C   UNL d   1      23.317 -17.831  -0.872  0.00  0.00     0.040 C 
BRANCH  12  13
ATOM     13  C   UNL d   1      22.732 -19.227  -1.056  0.00  0.00     0.130 C 
BRANCH  13  14
ATOM     14  N   UNL d   1      21.314 -19.300  -0.646  0.00  0.00    -0.352 N 
ATOM     15  C   UNL d   1      20.820 -19.402   0.652  0.00  0.00     0.108 A 
ATOM     16  C   UNL d   1      19.459 -19.454   0.562  0.00  0.00     0.106 A 
ATOM     17  N   UNL d   1      19.163 -19.409  -0.778  0.00  0.00    -0.361 N 
ATOM     18  C   UNL d   1      20.279 -19.325  -1.507  0.00  0.00     0.182 A 
ATOM     19  H   UNL d   1      18.225 -19.442  -1.171  0.00  0.00     0.166 HD
ENDBRANCH  13  14
ENDBRANCH  12  13
ENDBRANCH  11  12
ENDBRANCH   8  11
ENDBRANCH   1   5
BRANCH   2  20
ATOM     20  C   UNL d   1      28.038 -15.672  -3.484  0.00  0.00     0.069 A 
ATOM     21  C   UNL d   1      29.306 -16.129  -3.874  0.00  0.00     0.021 A 
ATOM     22  C   UNL d   1      29.763 -15.926  -5.170  0.00  0.00     0.020 A 
ATOM     23  C   UNL d   1      28.939 -15.251  -6.043  0.00  0.00     0.118 A 
ATOM     24  N   UNL d   1      27.729 -14.761  -5.686  0.00  0.00    -0.253 NA
ATOM     25  C   UNL d   1      27.255 -14.979  -4.416  0.00  0.00     0.113 A 
BRANCH  25  26
ATOM     26  S   UNL d   1      25.637 -14.247  -4.210  0.00  0.00    -0.070 SA
BRANCH  26  27
ATOM     27  C   UNL d   1      25.784 -12.493  -4.428  0.00  0.00     0.007 A 
ATOM     28  C   UNL d   1      26.124 -11.975  -5.685  0.00  0.00     0.019 A 
ATOM     29  C   UNL d   1      26.189 -10.594  -5.893  0.00  0.00     0.001 A 
ATOM     30  C   UNL d   1      25.842  -9.719  -4.867  0.00  0.00     0.000 A 
ATOM     31  C   UNL d   1      25.531 -10.223  -3.607  0.00  0.00     0.001 A 
ATOM     32  C   UNL d   1      25.529 -11.602  -3.380  0.00  0.00     0.019 A 
ENDBRANCH  26  27
ENDBRANCH  25  26
ENDBRANCH   2  20
TORSDOF 8
ENDMDL
MODEL 4
REMARK VINA RESULT:    -7.663      6.137      9.057
REMARK INTER + INTRA:         -11.553
REMARK INTER:                 -10.049
REMARK INTRA:                  -1.503
REMARK CONF_INDEPENDENT:        2.386
REMARK UNBOUND:                -1.503
REMARK  8 active torsions:
REMARK  status: ('A' for Active; 'I' for Inactive)
REMARK       I    between atoms: C_2  and  N_3 
REMARK       I    between atoms: C_2  and  N_12 
REMARK    1  A    between atoms: N_3  and  C_4 
REMARK    2  A    between atoms: C_4  and  C_5 
REMARK    3  A    between atoms: C_5  and  C_6 
REMARK    4  A    between atoms: C_6  and  N_7 
REMARK    5  A    between atoms: N_12  and  N_13 
REMARK       I    between atoms: N_13  and  C_14 
REMARK    6  A    between atoms: C_14  and  C_16 
REMARK    7  A    between atoms: C_21  and  S_22 
REMARK    8  A    between atoms: S_22  and  C_23 
ROOT
ATOM      1  N   UNL d   1      27.800 -17.094  -1.565  0.00  0.00    -0.262 N 
ATOM      2  C   UNL d   1      26.885 -16.140  -2.018  0.00  0.00     0.273 C 
ATOM      3  O   UNL d   1      25.860 -15.835  -1.411  0.00  0.00    -0.266 OA
ATOM      4  H   UNL d   1      28.644 -17.287  -2.083  0.00  0.00     0.190 HD
ENDROOT
BRANCH   1   5
ATOM      5  N   UNL d   1      27.707 -17.515  -0.219  0.00  0.00    -0.249 N 
ATOM      6  C   UNL d   1      26.622 -18.093   0.392  0.00  0.00     0.334 C 
ATOM      7  O   UNL d   1      26.684 -18.539   1.534  0.00  0.00    -0.246 OA
ATOM      8  N   UNL d   1      25.467 -18.131  -0.340  0.00  0.00    -0.342 N 
ATOM      9  H   UNL d   1      25.493 -17.778  -1.278  0.00  0.00     0.164 HD
ATOM     10  H   UNL d   1      28.591 -17.547   0.299  0.00  0.00     0.192 HD
BRANCH   8  11
ATOM     11  C   UNL d   1      24.213 -18.566   0.250  0.00  0.00     0.126 C 
BRANCH  11  12
ATOM     12  C   UNL d   1      23.171 -18.847  -0.823  0.00  0.00     0.040 C 
BRANCH  12  13
ATOM     13  C   UNL d   1      21.897 -18.033  -0.624  0.00  0.00     0.130 C 
BRANCH  13  14
ATOM     14  N   UNL d   1      20.725 -18.886  -0.336  0.00  0.00    -0.352 N 
ATOM     15  C   UNL d   1      20.347 -19.403   0.901  0.00  0.00     0.108 A 
ATOM     16  C   UNL d   1      19.216 -20.140   0.700  0.00  0.00     0.106 A 
ATOM     17  N   UNL d   1      18.952 -20.076  -0.646  0.00  0.00    -0.361 N 
ATOM     18  C   UNL d   1      19.865 -19.328  -1.272  0.00  0.00     0.182 A 
ATOM     19  H   UNL d   1      18.175 -20.538  -1.112  0.00  0.00     0.166 HD
ENDBRANCH  13  14
ENDBRANCH  12  13
ENDBRANCH  11  12
ENDBRANCH   8  11
ENDBRANCH   1   5
BRANCH   2  20
ATOM     20  C   UNL d   1      27.166 -15.537  -3.338  0.00  0.00     0.069 A 
ATOM     21  C   UNL d   1      26.121 -14.762  -3.864  0.00  0.00     0.021 A 
ATOM     22  C   UNL d   1      26.306 -14.018  -5.022  0.00  0.00     0.020 A 
ATOM     23  C   UNL d   1      27.536 -14.085  -5.638  0.00  0.00     0.118 A 
ATOM     24  N   UNL d   1      28.550 -14.855  -5.179  0.00  0.00    -0.253 NA
ATOM     25  C   UNL d   1      28.388 -15.573  -4.021  0.00  0.00     0.113 A 
BRANCH  25  26
ATOM     26  S   UNL d   1      29.874 -16.486  -3.629  0.00  0.00    -0.070 SA
BRANCH  26  27
ATOM     27  C   UNL d   1      30.297 -17.493  -5.027  0.00  0.00     0.007 A 
ATOM     28  C   UNL d   1      30.653 -16.885  -6.239  0.00  0.00     0.019 A 
ATOM     29  C   UNL d   1      31.045 -17.659  -7.336  0.00  0.00     0.001 A 
ATOM     30  C   UNL d   1      31.156 -19.041  -7.208  0.00  0.00     0.000 A 
ATOM     31  C   UNL d   1      30.778 -19.656  -6.018  0.00  0.00     0.001 A 
ATOM     32  C   UNL d   1      30.323 -18.889  -4.942  0.00  0.00     0.019 A 
ENDBRANCH  26  27
ENDBRANCH  25  26
ENDBRANCH   2  20
TORSDOF 8
ENDMDL
MODEL 5
REMARK VINA RESULT:    -7.202      5.786      8.522
REMARK INTER + INTRA:         -11.503
REMARK INTER:                  -9.589
REMARK INTRA:                  -1.914
REMARK CONF_INDEPENDENT:        2.386
REMARK UNBOUND:                -1.914
REMARK  8 active torsions:
REMARK  status: ('A' for Active; 'I' for Inactive)
REMARK       I    between atoms: C_2  and  N_3 
REMARK       I    between atoms: C_2  and  N_12 
REMARK    1  A    between atoms: N_3  and  C_4 
REMARK    2  A    between atoms: C_4  and  C_5 
REMARK    3  A    between atoms: C_5  and  C_6 
REMARK    4  A    between atoms: C_6  and  N_7 
REMARK    5  A    between atoms: N_12  and  N_13 
REMARK       I    between atoms: N_13  and  C_14 
REMARK    6  A    between atoms: C_14  and  C_16 
REMARK    7  A    between atoms: C_21  and  S_22 
REMARK    8  A    between atoms: S_22  and  C_23 
ROOT
ATOM      1  N   UNL d   1      25.728 -15.974  -3.091  0.00  0.00    -0.262 N 
ATOM      2  C   UNL d   1      25.987 -15.108  -4.157  0.00  0.00     0.273 C 
ATOM      3  O   UNL d   1      25.146 -14.351  -4.641  0.00  0.00    -0.266 OA
ATOM      4  H   UNL d   1      26.460 -16.554  -2.708  0.00  0.00     0.190 HD
ENDROOT
BRANCH   1   5
ATOM      5  N   UNL d   1      24.547 -15.769  -2.342  0.00  0.00    -0.249 N 
ATOM      6  C   UNL d   1      24.210 -16.366  -1.154  0.00  0.00     0.334 C 
ATOM      7  O   UNL d   1      23.216 -16.026  -0.517  0.00  0.00    -0.246 OA
ATOM      8  N   UNL d   1      25.036 -17.370  -0.726  0.00  0.00    -0.342 N 
ATOM      9  H   UNL d   1      25.847 -17.577  -1.277  0.00  0.00     0.164 HD
ATOM     10  H   UNL d   1      23.971 -14.972  -2.631  0.00  0.00     0.192 HD
BRANCH   8  11
ATOM     11  C   UNL d   1      24.698 -18.186   0.427  0.00  0.00     0.126 C 
BRANCH  11  12
ATOM     12  C   UNL d   1      23.192 -18.370   0.544  0.00  0.00     0.040 C 
BRANCH  12  13
ATOM     13  C   UNL d   1      22.639 -19.323  -0.511  0.00  0.00     0.130 C 
BRANCH  13  14
ATOM     14  N   UNL d   1      21.176 -19.496  -0.399  0.00  0.00    -0.352 N 
ATOM     15  C   UNL d   1      20.489 -20.237   0.560  0.00  0.00     0.108 A 
ATOM     16  C   UNL d   1      19.158 -20.130   0.274  0.00  0.00     0.106 A 
ATOM     17  N   UNL d   1      19.071 -19.356  -0.857  0.00  0.00    -0.361 N 
ATOM     18  C   UNL d   1      20.286 -18.981  -1.268  0.00  0.00     0.182 A 
ATOM     19  H   UNL d   1      18.206 -19.105  -1.328  0.00  0.00     0.166 HD
ENDBRANCH  13  14
ENDBRANCH  12  13
ENDBRANCH  11  12
ENDBRANCH   8  11
ENDBRANCH   1   5
BRANCH   2  20
ATOM     20  C   UNL d   1      27.338 -15.186  -4.752  0.00  0.00     0.069 A 
ATOM     21  C   UNL d   1      27.438 -14.660  -6.050  0.00  0.00     0.021 A 
ATOM     22  C   UNL d   1      28.676 -14.533  -6.666  0.00  0.00     0.020 A 
ATOM     23  C   UNL d   1      29.787 -14.955  -5.970  0.00  0.00     0.118 A 
ATOM     24  N   UNL d   1      29.718 -15.504  -4.735  0.00  0.00    -0.253 NA
ATOM     25  C   UNL d   1      28.504 -15.610  -4.104  0.00  0.00     0.113 A 
BRANCH  25  26
ATOM     26  S   UNL d   1      28.692 -16.350  -2.488  0.00  0.00    -0.070 SA
BRANCH  26  27
ATOM     27  C   UNL d   1      28.031 -15.231  -1.279  0.00  0.00     0.007 A 
ATOM     28  C   UNL d   1      27.836 -13.885  -1.613  0.00  0.00     0.019 A 
ATOM     29  C   UNL d   1      27.263 -13.000  -0.694  0.00  0.00     0.001 A 
ATOM     30  C   UNL d   1      26.814 -13.468   0.538  0.00  0.00     0.000 A 
ATOM     31  C   UNL d   1      27.030 -14.798   0.889  0.00  0.00     0.001 A 
ATOM     32  C   UNL d   1      27.662 -15.669  -0.004  0.00  0.00     0.019 A 
ENDBRANCH  26  27
ENDBRANCH  25  26
ENDBRANCH   2  20
TORSDOF 8
ENDMDL
MODEL 6
REMARK VINA RESULT:    -6.810      6.305      8.923
REMARK INTER + INTRA:         -11.297
REMARK INTER:                  -9.196
REMARK INTRA:                  -2.101
REMARK CONF_INDEPENDENT:        2.386
REMARK UNBOUND:                -2.101
REMARK  8 active torsions:
REMARK  status: ('A' for Active; 'I' for Inactive)
REMARK       I    between atoms: C_2  and  N_3 
REMARK       I    between atoms: C_2  and  N_12 
REMARK    1  A    between atoms: N_3  and  C_4 
REMARK    2  A    between atoms: C_4  and  C_5 
REMARK    3  A    between atoms: C_5  and  C_6 
REMARK    4  A    between atoms: C_6  and  N_7 
REMARK    5  A    between atoms: N_12  and  N_13 
REMARK       I    between atoms: N_13  and  C_14 
REMARK    6  A    between atoms: C_14  and  C_16 
REMARK    7  A    between atoms: C_21  and  S_22 
REMARK    8  A    between atoms: S_22  and  C_23 
ROOT
ATOM      1  N   UNL d   1      26.811 -13.284  -5.073  0.00  0.00    -0.262 N 
ATOM      2  C   UNL d   1      27.329 -14.397  -5.741  0.00  0.00     0.273 C 
ATOM      3  O   UNL d   1      26.775 -15.495  -5.770  0.00  0.00    -0.266 OA
ATOM      4  H   UNL d   1      27.287 -12.395  -5.104  0.00  0.00     0.190 HD
ENDROOT
BRANCH   1   5
ATOM      5  N   UNL d   1      25.459 -13.328  -4.661  0.00  0.00    -0.249 N 
ATOM      6  C   UNL d   1      24.898 -14.200  -3.763  0.00  0.00     0.334 C 
ATOM      7  O   UNL d   1      23.740 -14.075  -3.376  0.00  0.00    -0.246 OA
ATOM      8  N   UNL d   1      25.699 -15.223  -3.333  0.00  0.00    -0.342 N 
ATOM      9  H   UNL d   1      26.645 -15.249  -3.664  0.00  0.00     0.164 HD
ATOM     10  H   UNL d   1      24.887 -12.522  -4.932  0.00  0.00     0.192 HD
BRANCH   8  11
ATOM     11  C   UNL d   1      25.173 -16.300  -2.513  0.00  0.00     0.126 C 
BRANCH  11  12
ATOM     12  C   UNL d   1      25.135 -15.901  -1.045  0.00  0.00     0.040 C 
BRANCH  12  13
ATOM     13  C   UNL d   1      26.434 -15.247  -0.587  0.00  0.00     0.130 C 
BRANCH  13  14
ATOM     14  N   UNL d   1      27.607 -16.122  -0.790  0.00  0.00    -0.352 N 
ATOM     15  C   UNL d   1      28.565 -16.022  -1.797  0.00  0.00     0.108 A 
ATOM     16  C   UNL d   1      29.454 -17.041  -1.609  0.00  0.00     0.106 A 
ATOM     17  N   UNL d   1      29.005 -17.744  -0.520  0.00  0.00    -0.361 N 
ATOM     18  C   UNL d   1      27.888 -17.198  -0.031  0.00  0.00     0.182 A 
ATOM     19  H   UNL d   1      29.450 -18.574  -0.135  0.00  0.00     0.166 HD
ENDBRANCH  13  14
ENDBRANCH  12  13
ENDBRANCH  11  12
ENDBRANCH   8  11
ENDBRANCH   1   5
BRANCH   2  20
ATOM     20  C   UNL d   1      28.651 -14.223  -6.379  0.00  0.00     0.069 A 
ATOM     21  C   UNL d   1      28.697 -13.231  -7.372  0.00  0.00     0.021 A 
ATOM     22  C   UNL d   1      29.906 -12.861  -7.945  0.00  0.00     0.020 A 
ATOM     23  C   UNL d   1      31.044 -13.510  -7.519  0.00  0.00     0.118 A 
ATOM     24  N   UNL d   1      31.027 -14.498  -6.594  0.00  0.00    -0.253 NA
ATOM     25  C   UNL d   1      29.842 -14.854  -6.001  0.00  0.00     0.113 A 
BRANCH  25  26
ATOM     26  S   UNL d   1      30.097 -16.164  -4.811  0.00  0.00    -0.070 SA
BRANCH  26  27
ATOM     27  C   UNL d   1      30.465 -17.658  -5.694  0.00  0.00     0.007 A 
ATOM     28  C   UNL d   1      30.405 -18.891  -5.030  0.00  0.00     0.019 A 
ATOM     29  C   UNL d   1      30.635 -20.084  -5.721  0.00  0.00     0.001 A 
ATOM     30  C   UNL d   1      30.855 -20.061  -7.096  0.00  0.00     0.000 A 
ATOM     31  C   UNL d   1      30.945 -18.841  -7.759  0.00  0.00     0.001 A 
ATOM     32  C   UNL d   1      30.780 -17.643  -7.057  0.00  0.00     0.019 A 
ENDBRANCH  26  27
ENDBRANCH  25  26
ENDBRANCH   2  20
TORSDOF 8
ENDMDL
MODEL 7
REMARK VINA RESULT:    -6.695      6.609      8.720
REMARK INTER + INTRA:         -11.341
REMARK INTER:                  -9.081
REMARK INTRA:                  -2.260
REMARK CONF_INDEPENDENT:        2.386
REMARK UNBOUND:                -2.260
REMARK  8 active torsions:
REMARK  status: ('A' for Active; 'I' for Inactive)
REMARK       I    between atoms: C_2  and  N_3 
REMARK       I    between atoms: C_2  and  N_12 
REMARK    1  A    between atoms: N_3  and  C_4 
REMARK    2  A    between atoms: C_4  and  C_5 
REMARK    3  A    between atoms: C_5  and  C_6 
REMARK    4  A    between atoms: C_6  and  N_7 
REMARK    5  A    between atoms: N_12  and  N_13 
REMARK       I    between atoms: N_13  and  C_14 
REMARK    6  A    between atoms: C_14  and  C_16 
REMARK    7  A    between atoms: C_21  and  S_22 
REMARK    8  A    between atoms: S_22  and  C_23 
ROOT
ATOM      1  N   UNL d   1      26.879 -13.211  -5.400  0.00  0.00    -0.262 N 
ATOM      2  C   UNL d   1      27.443 -14.350  -5.980  0.00  0.00     0.273 C 
ATOM      3  O   UNL d   1      26.947 -15.473  -5.904  0.00  0.00    -0.266 OA
ATOM      4  H   UNL d   1      27.307 -12.305  -5.517  0.00  0.00     0.190 HD
ENDROOT
BRANCH   1   5
ATOM      5  N   UNL d   1      25.538 -13.288  -4.958  0.00  0.00    -0.249 N 
ATOM      6  C   UNL d   1      25.019 -14.169  -4.044  0.00  0.00     0.334 C 
ATOM      7  O   UNL d   1      23.866 -14.073  -3.633  0.00  0.00    -0.246 OA
ATOM      8  N   UNL d   1      25.856 -15.169  -3.626  0.00  0.00    -0.342 N 
ATOM      9  H   UNL d   1      26.795 -15.172  -3.978  0.00  0.00     0.164 HD
ATOM     10  H   UNL d   1      24.939 -12.499  -5.220  0.00  0.00     0.192 HD
BRANCH   8  11
ATOM     11  C   UNL d   1      25.376 -16.255  -2.790  0.00  0.00     0.126 C 
BRANCH  11  12
ATOM     12  C   UNL d   1      26.181 -16.349  -1.502  0.00  0.00     0.040 C 
BRANCH  12  13
ATOM     13  C   UNL d   1      25.302 -16.262  -0.259  0.00  0.00     0.130 C 
BRANCH  13  14
ATOM     14  N   UNL d   1      24.150 -17.186  -0.320  0.00  0.00    -0.352 N 
ATOM     15  C   UNL d   1      22.888 -16.920  -0.847  0.00  0.00     0.108 A 
ATOM     16  C   UNL d   1      22.138 -18.049  -0.682  0.00  0.00     0.106 A 
ATOM     17  N   UNL d   1      22.945 -18.954  -0.041  0.00  0.00    -0.361 N 
ATOM     18  C   UNL d   1      24.155 -18.433   0.186  0.00  0.00     0.182 A 
ATOM     19  H   UNL d   1      22.667 -19.893   0.236  0.00  0.00     0.166 HD
ENDBRANCH  13  14
ENDBRANCH  12  13
ENDBRANCH  11  12
ENDBRANCH   8  11
ENDBRANCH   1   5
BRANCH   2  20
ATOM     20  C   UNL d   1      28.744 -14.164  -6.658  0.00  0.00     0.069 A 
ATOM     21  C   UNL d   1      28.839 -12.999  -7.436  0.00  0.00     0.021 A 
ATOM     22  C   UNL d   1      30.050 -12.626  -8.003  0.00  0.00     0.020 A 
ATOM     23  C   UNL d   1      31.138 -13.443  -7.791  0.00  0.00     0.118 A 
ATOM     24  N   UNL d   1      31.069 -14.593  -7.081  0.00  0.00    -0.253 NA
ATOM     25  C   UNL d   1      29.884 -14.959  -6.492  0.00  0.00     0.113 A 
BRANCH  25  26
ATOM     26  S   UNL d   1      30.067 -16.500  -5.605  0.00  0.00    -0.070 SA
BRANCH  26  27
ATOM     27  C   UNL d   1      29.748 -16.198  -3.886  0.00  0.00     0.007 A 
ATOM     28  C   UNL d   1      29.837 -17.252  -2.967  0.00  0.00     0.019 A 
ATOM     29  C   UNL d   1      29.646 -17.024  -1.601  0.00  0.00     0.001 A 
ATOM     30  C   UNL d   1      29.436 -15.729  -1.134  0.00  0.00     0.000 A 
ATOM     31  C   UNL d   1      29.317 -14.680  -2.041  0.00  0.00     0.001 A 
ATOM     32  C   UNL d   1      29.444 -14.918  -3.414  0.00  0.00     0.019 A 
ENDBRANCH  26  27
ENDBRANCH  25  26
ENDBRANCH   2  20
TORSDOF 8
ENDMDL
MODEL 8
REMARK VINA RESULT:    -6.472      4.712      8.394
REMARK INTER + INTRA:         -11.311
REMARK INTER:                  -8.858
REMARK INTRA:                  -2.453
REMARK CONF_INDEPENDENT:        2.386
REMARK UNBOUND:                -2.453
REMARK  8 active torsions:
REMARK  status: ('A' for Active; 'I' for Inactive)
REMARK       I    between atoms: C_2  and  N_3 
REMARK       I    between atoms: C_2  and  N_12 
REMARK    1  A    between atoms: N_3  and  C_4 
REMARK    2  A    between atoms: C_4  and  C_5 
REMARK    3  A    between atoms: C_5  and  C_6 
REMARK    4  A    between atoms: C_6  and  N_7 
REMARK    5  A    between atoms: N_12  and  N_13 
REMARK       I    between atoms: N_13  and  C_14 
REMARK    6  A    between atoms: C_14  and  C_16 
REMARK    7  A    between atoms: C_21  and  S_22 
REMARK    8  A    between atoms: S_22  and  C_23 
ROOT
ATOM      1  N   UNL d   1      29.683 -16.893   0.025  0.00  0.00    -0.262 N 
ATOM      2  C   UNL d   1      28.597 -16.245  -0.568  0.00  0.00     0.273 C 
ATOM      3  O   UNL d   1      28.226 -16.450  -1.723  0.00  0.00    -0.266 OA
ATOM      4  H   UNL d   1      29.930 -16.714   0.987  0.00  0.00     0.190 HD
ENDROOT
BRANCH   1   5
ATOM      5  N   UNL d   1      30.200 -18.043  -0.615  0.00  0.00    -0.249 N 
ATOM      6  C   UNL d   1      30.791 -18.104  -1.851  0.00  0.00     0.334 C 
ATOM      7  O   UNL d   1      31.321 -19.131  -2.266  0.00  0.00    -0.246 OA
ATOM      8  N   UNL d   1      30.745 -16.959  -2.600  0.00  0.00    -0.342 N 
ATOM      9  H   UNL d   1      30.325 -16.147  -2.190  0.00  0.00     0.164 HD
ATOM     10  H   UNL d   1      30.292 -18.876  -0.025  0.00  0.00     0.192 HD
BRANCH   8  11
ATOM     11  C   UNL d   1      31.189 -16.943  -3.983  0.00  0.00     0.126 C 
BRANCH  11  12
ATOM     12  C   UNL d   1      30.032 -17.224  -4.931  0.00  0.00     0.040 C 
BRANCH  12  13
ATOM     13  C   UNL d   1      29.601 -15.983  -5.705  0.00  0.00     0.130 C 
BRANCH  13  14
ATOM     14  N   UNL d   1      28.515 -15.247  -5.027  0.00  0.00    -0.352 N 
ATOM     15  C   UNL d   1      27.173 -15.200  -5.399  0.00  0.00     0.108 A 
ATOM     16  C   UNL d   1      26.535 -14.393  -4.501  0.00  0.00     0.106 A 
ATOM     17  N   UNL d   1      27.500 -13.953  -3.629  0.00  0.00    -0.361 N 
ATOM     18  C   UNL d   1      28.694 -14.459  -3.950  0.00  0.00     0.182 A 
ATOM     19  H   UNL d   1      27.338 -13.322  -2.848  0.00  0.00     0.166 HD
ENDBRANCH  13  14
ENDBRANCH  12  13
ENDBRANCH  11  12
ENDBRANCH   8  11
ENDBRANCH   1   5
BRANCH   2  20
ATOM     20  C   UNL d   1      27.925 -15.212   0.248  0.00  0.00     0.069 A 
ATOM     21  C   UNL d   1      28.652 -14.785   1.370  0.00  0.00     0.021 A 
ATOM     22  C   UNL d   1      28.206 -13.716   2.136  0.00  0.00     0.020 A 
ATOM     23  C   UNL d   1      27.026 -13.110   1.767  0.00  0.00     0.118 A 
ATOM     24  N   UNL d   1      26.280 -13.525   0.717  0.00  0.00    -0.253 NA
ATOM     25  C   UNL d   1      26.724 -14.562  -0.065  0.00  0.00     0.113 A 
BRANCH  25  26
ATOM     26  S   UNL d   1      25.569 -14.898  -1.387  0.00  0.00    -0.070 SA
BRANCH  26  27
ATOM     27  C   UNL d   1      24.625 -16.337  -0.954  0.00  0.00     0.007 A 
ATOM     28  C   UNL d   1      25.285 -17.504  -0.546  0.00  0.00     0.019 A 
ATOM     29  C   UNL d   1      24.559 -18.630  -0.145  0.00  0.00     0.001 A 
ATOM     30  C   UNL d   1      23.169 -18.575  -0.080  0.00  0.00     0.000 A 
ATOM     31  C   UNL d   1      22.504 -17.430  -0.510  0.00  0.00     0.001 A 
ATOM     32  C   UNL d   1      23.227 -16.326  -0.973  0.00  0.00     0.019 A 
ENDBRANCH  26  27
ENDBRANCH  25  26
ENDBRANCH   2  20
TORSDOF 8
ENDMDL
MODEL 9
REMARK VINA RESULT:    -5.966      5.393      8.850
REMARK INTER + INTRA:         -11.222
REMARK INTER:                  -8.352
REMARK INTRA:                  -2.870
REMARK CONF_INDEPENDENT:        2.386
REMARK UNBOUND:                -2.870
REMARK  8 active torsions:
REMARK  status: ('A' for Active; 'I' for Inactive)
REMARK       I    between atoms: C_2  and  N_3 
REMARK       I    between atoms: C_2  and  N_12 
REMARK    1  A    between atoms: N_3  and  C_4 
REMARK    2  A    between atoms: C_4  and  C_5 
REMARK    3  A    between atoms: C_5  and  C_6 
REMARK    4  A    between atoms: C_6  and  N_7 
REMARK    5  A    between atoms: N_12  and  N_13 
REMARK       I    between atoms: N_13  and  C_14 
REMARK    6  A    between atoms: C_14  and  C_16 
REMARK    7  A    between atoms: C_21  and  S_22 
REMARK    8  A    between atoms: S_22  and  C_23 
ROOT
ATOM      1  N   UNL d   1      27.274 -17.543  -0.954  0.00  0.00    -0.262 N 
ATOM      2  C   UNL d   1      26.349 -17.881   0.038  0.00  0.00     0.273 C 
ATOM      3  O   UNL d   1      26.659 -18.375   1.121  0.00  0.00    -0.266 OA
ATOM      4  H   UNL d   1      26.974 -17.109  -1.814  0.00  0.00     0.190 HD
ENDROOT
BRANCH   1   5
ATOM      5  N   UNL d   1      28.641 -17.488  -0.594  0.00  0.00    -0.249 N 
ATOM      6  C   UNL d   1      29.640 -16.813  -1.249  0.00  0.00     0.334 C 
ATOM      7  O   UNL d   1      30.773 -16.725  -0.786  0.00  0.00    -0.246 OA
ATOM      8  N   UNL d   1      29.303 -16.256  -2.453  0.00  0.00    -0.342 N 
ATOM      9  H   UNL d   1      28.353 -16.339  -2.759  0.00  0.00     0.164 HD
ATOM     10  H   UNL d   1      28.869 -17.847   0.338  0.00  0.00     0.192 HD
BRANCH   8  11
ATOM     11  C   UNL d   1      30.308 -15.660  -3.316  0.00  0.00     0.126 C 
BRANCH  11  12
ATOM     12  C   UNL d   1      29.661 -14.895  -4.461  0.00  0.00     0.040 C 
BRANCH  12  13
ATOM     13  C   UNL d   1      28.397 -15.575  -4.974  0.00  0.00     0.130 C 
BRANCH  13  14
ATOM     14  N   UNL d   1      27.215 -14.692  -4.901  0.00  0.00    -0.352 N 
ATOM     15  C   UNL d   1      27.202 -13.327  -4.622  0.00  0.00     0.108 A 
ATOM     16  C   UNL d   1      25.898 -12.924  -4.645  0.00  0.00     0.106 A 
ATOM     17  N   UNL d   1      25.155 -14.048  -4.909  0.00  0.00    -0.361 N 
ATOM     18  C   UNL d   1      25.946 -15.114  -5.055  0.00  0.00     0.182 A 
ATOM     19  H   UNL d   1      24.140 -14.075  -4.978  0.00  0.00     0.166 HD
ENDBRANCH  13  14
ENDBRANCH  12  13
ENDBRANCH  11  12
ENDBRANCH   8  11
ENDBRANCH   1   5
BRANCH   2  20
ATOM     20  C   UNL d   1      24.924 -17.680  -0.300  0.00  0.00     0.069 A 
ATOM     21  C   UNL d   1      24.041 -18.574   0.327  0.00  0.00     0.021 A 
ATOM     22  C   UNL d   1      22.668 -18.404   0.217  0.00  0.00     0.020 A 
ATOM     23  C   UNL d   1      22.210 -17.347  -0.538  0.00  0.00     0.118 A 
ATOM     24  N   UNL d   1      23.034 -16.494  -1.189  0.00  0.00    -0.253 NA
ATOM     25  C   UNL d   1      24.394 -16.635  -1.065  0.00  0.00     0.113 A 
BRANCH  25  26
ATOM     26  S   UNL d   1      25.250 -15.377  -2.005  0.00  0.00    -0.070 SA
BRANCH  26  27
ATOM     27  C   UNL d   1      26.436 -14.595  -0.943  0.00  0.00     0.007 A 
ATOM     28  C   UNL d   1      26.280 -14.669   0.448  0.00  0.00     0.019 A 
ATOM     29  C   UNL d   1      27.235 -14.109   1.302  0.00  0.00     0.001 A 
ATOM     30  C   UNL d   1      28.389 -13.535   0.776  0.00  0.00     0.000 A 
ATOM     31  C   UNL d   1      28.539 -13.431  -0.603  0.00  0.00     0.001 A 
ATOM     32  C   UNL d   1      27.554 -13.933  -1.460  0.00  0.00     0.019 A 
ENDBRANCH  26  27
ENDBRANCH  25  26
ENDBRANCH   2  20
TORSDOF 8
ENDMDL
