MODEL 1
REMARK VINA RESULT:   -26.036      0.000      0.000
REMARK INTER + INTRA:         -29.032
REMARK INTER:                 -27.527
REMARK INTRA:                  -1.504
REMARK CONF_INDEPENDENT:        1.492
REMARK UNBOUND:                -1.504
REMARK  5 active torsions:
REMARK  status: ('A' for Active; 'I' for Inactive)
REMARK    1  A    between atoms: C_2  and  C_4 
REMARK    2  A    between atoms: C_4  and  N_5 
REMARK       I    between atoms: N_5  and  C_6 
REMARK       I    between atoms: C_6  and  N_8 
REMARK    3  A    between atoms: N_8  and  N_9 
REMARK       I    between atoms: N_9  and  C_10 
REMARK    4  A    between atoms: C_10  and  C_12 
REMARK    5  A    between atoms: C_14  and  C_15 
ROOT
ATOM      1  N   UNL d   1      24.519 -17.515  -0.567  0.00  0.00    -0.264 N 
ATOM      2  C   UNL d   1      23.141 -17.349  -0.418  0.00  0.00     0.268 C 
ATOM      3  O   UNL d   1      22.686 -16.407   0.237  0.00  0.00    -0.269 OA
ATOM      4  H   UNL d   1      24.957 -18.227  -1.150  0.00  0.00     0.190 HD
ENDROOT
BRANCH   2   5
ATOM      5  C   UNL d   1      22.232 -18.430  -1.076  0.00  0.00     0.253 C 
ATOM      6  C   UNL d   1      21.728 -19.456  -0.071  0.00  0.00     0.107 C 
ATOM      7  C   UNL d   1      20.267 -19.426  -0.359  0.00  0.00     0.075 C 
ATOM      8  N   UNL d   1      19.903 -18.575  -1.261  0.00  0.00    -0.137 NA
ATOM      9  O   UNL d   1      21.053 -17.837  -1.645  0.00  0.00    -0.241 OA
BRANCH   7  10
ATOM     10  C   UNL d   1      19.307 -20.310   0.346  0.00  0.00    -0.009 A 
ATOM     11  C   UNL d   1      18.260 -20.928  -0.352  0.00  0.00     0.013 A 
ATOM     12  C   UNL d   1      17.274 -21.639   0.344  0.00  0.00     0.001 A 
ATOM     13  C   UNL d   1      17.359 -21.781   1.730  0.00  0.00     0.000 A 
ATOM     14  C   UNL d   1      18.409 -21.180   2.425  0.00  0.00     0.001 A 
ATOM     15  C   UNL d   1      19.379 -20.441   1.737  0.00  0.00     0.013 A 
ENDBRANCH   7  10
ENDBRANCH   2   5
BRANCH   1  16
ATOM     16  N   UNL d   1      25.422 -16.557   0.016  0.00  0.00    -0.249 N 
ATOM     17  C   UNL d   1      26.791 -16.769  -0.060  0.00  0.00     0.334 C 
ATOM     18  N   UNL d   1      27.566 -15.809   0.561  0.00  0.00    -0.341 N 
ATOM     19  O   UNL d   1      27.266 -17.753  -0.632  0.00  0.00    -0.246 OA
ATOM     20  H   UNL d   1      27.117 -15.023   1.006  0.00  0.00     0.164 HD
ATOM     21  H   UNL d   1      24.995 -15.739   0.443  0.00  0.00     0.192 HD
BRANCH  18  22
ATOM     22  C   UNL d   1      29.036 -15.878   0.562  0.00  0.00     0.128 C 
BRANCH  22  23
ATOM     23  C   UNL d   1      29.710 -15.409  -0.750  0.00  0.00    -0.005 C 
ATOM     24  C   UNL d   1      30.020 -16.597  -1.677  0.00  0.00     0.011 C 
ATOM     25  C   UNL d   1      28.822 -14.421  -1.507  0.00  0.00     0.011 C 
ENDBRANCH  22  23
ENDBRANCH  18  22
ENDBRANCH   1  16
TORSDOF 5
ENDMDL
MODEL 2
REMARK VINA RESULT:   -25.977      0.690      1.085
REMARK INTER + INTRA:         -28.922
REMARK INTER:                 -27.468
REMARK INTRA:                  -1.454
REMARK CONF_INDEPENDENT:        1.492
REMARK UNBOUND:                -1.454
REMARK  5 active torsions:
REMARK  status: ('A' for Active; 'I' for Inactive)
REMARK    1  A    between atoms: C_2  and  C_4 
REMARK    2  A    between atoms: C_4  and  N_5 
REMARK       I    between atoms: N_5  and  C_6 
REMARK       I    between atoms: C_6  and  N_8 
REMARK    3  A    between atoms: N_8  and  N_9 
REMARK       I    between atoms: N_9  and  C_10 
REMARK    4  A    between atoms: C_10  and  C_12 
REMARK    5  A    between atoms: C_14  and  C_15 
ROOT
ATOM      1  N   UNL d   1      24.528 -17.572  -0.517  0.00  0.00    -0.264 N 
ATOM      2  C   UNL d   1      23.152 -17.351  -0.445  0.00  0.00     0.268 C 
ATOM      3  O   UNL d   1      22.701 -16.370   0.153  0.00  0.00    -0.269 OA
ATOM      4  H   UNL d   1      24.968 -18.320  -1.052  0.00  0.00     0.190 HD
ENDROOT
BRANCH   2   5
ATOM      5  C   UNL d   1      22.236 -18.421  -1.111  0.00  0.00     0.253 C 
ATOM      6  C   UNL d   1      21.758 -19.473  -0.122  0.00  0.00     0.107 C 
ATOM      7  C   UNL d   1      20.291 -19.445  -0.382  0.00  0.00     0.075 C 
ATOM      8  N   UNL d   1      19.905 -18.575  -1.256  0.00  0.00    -0.137 NA
ATOM      9  O   UNL d   1      21.045 -17.822  -1.644  0.00  0.00    -0.241 OA
BRANCH   7  10
ATOM     10  C   UNL d   1      19.349 -20.352   0.320  0.00  0.00    -0.009 A 
ATOM     11  C   UNL d   1      18.207 -20.837  -0.332  0.00  0.00     0.013 A 
ATOM     12  C   UNL d   1      17.249 -21.570   0.381  0.00  0.00     0.001 A 
ATOM     13  C   UNL d   1      17.453 -21.864   1.730  0.00  0.00     0.000 A 
ATOM     14  C   UNL d   1      18.596 -21.394   2.376  0.00  0.00     0.001 A 
ATOM     15  C   UNL d   1      19.541 -20.634   1.676  0.00  0.00     0.013 A 
ENDBRANCH   7  10
ENDBRANCH   2   5
BRANCH   1  16
ATOM     16  N   UNL d   1      25.437 -16.627   0.079  0.00  0.00    -0.249 N 
ATOM     17  C   UNL d   1      26.804 -16.775  -0.110  0.00  0.00     0.334 C 
ATOM     18  N   UNL d   1      27.587 -15.837   0.532  0.00  0.00    -0.341 N 
ATOM     19  O   UNL d   1      27.270 -17.690  -0.794  0.00  0.00    -0.246 OA
ATOM     20  H   UNL d   1      27.145 -15.108   1.071  0.00  0.00     0.164 HD
ATOM     21  H   UNL d   1      25.013 -15.865   0.601  0.00  0.00     0.192 HD
BRANCH  18  22
ATOM     22  C   UNL d   1      29.054 -15.845   0.424  0.00  0.00     0.128 C 
BRANCH  22  23
ATOM     23  C   UNL d   1      29.671 -14.548  -0.152  0.00  0.00    -0.005 C 
ATOM     24  C   UNL d   1      29.133 -13.301   0.570  0.00  0.00     0.011 C 
ATOM     25  C   UNL d   1      31.196 -14.558  -0.034  0.00  0.00     0.011 C 
ENDBRANCH  22  23
ENDBRANCH  18  22
ENDBRANCH   1  16
TORSDOF 5
ENDMDL
MODEL 3
REMARK VINA RESULT:   -25.860      1.671      1.957
REMARK INTER + INTRA:         -28.797
REMARK INTER:                 -27.352
REMARK INTRA:                  -1.445
REMARK CONF_INDEPENDENT:        1.492
REMARK UNBOUND:                -1.445
REMARK  5 active torsions:
REMARK  status: ('A' for Active; 'I' for Inactive)
REMARK    1  A    between atoms: C_2  and  C_4 
REMARK    2  A    between atoms: C_4  and  N_5 
REMARK       I    between atoms: N_5  and  C_6 
REMARK       I    between atoms: C_6  and  N_8 
REMARK    3  A    between atoms: N_8  and  N_9 
REMARK       I    between atoms: N_9  and  C_10 
REMARK    4  A    between atoms: C_10  and  C_12 
REMARK    5  A    between atoms: C_14  and  C_15 
ROOT
ATOM      1  N   UNL d   1      24.046 -16.912  -1.434  0.00  0.00    -0.264 N 
ATOM      2  C   UNL d   1      23.301 -17.713  -0.568  0.00  0.00     0.268 C 
ATOM      3  O   UNL d   1      23.509 -17.691   0.648  0.00  0.00    -0.269 OA
ATOM      4  H   UNL d   1      23.879 -16.830  -2.436  0.00  0.00     0.190 HD
ENDROOT
BRANCH   2   5
ATOM      5  C   UNL d   1      22.245 -18.654  -1.221  0.00  0.00     0.253 C 
ATOM      6  C   UNL d   1      21.725 -19.705  -0.252  0.00  0.00     0.107 C 
ATOM      7  C   UNL d   1      20.255 -19.523  -0.413  0.00  0.00     0.075 C 
ATOM      8  N   UNL d   1      19.905 -18.575  -1.220  0.00  0.00    -0.137 NA
ATOM      9  O   UNL d   1      21.088 -17.916  -1.646  0.00  0.00    -0.241 OA
BRANCH   7  10
ATOM     10  C   UNL d   1      19.272 -20.369   0.307  0.00  0.00    -0.009 A 
ATOM     11  C   UNL d   1      18.162 -20.900  -0.364  0.00  0.00     0.013 A 
ATOM     12  C   UNL d   1      17.163 -21.573   0.354  0.00  0.00     0.001 A 
ATOM     13  C   UNL d   1      17.296 -21.763   1.730  0.00  0.00     0.000 A 
ATOM     14  C   UNL d   1      18.408 -21.248   2.396  0.00  0.00     0.001 A 
ATOM     15  C   UNL d   1      19.392 -20.547   1.689  0.00  0.00     0.013 A 
ENDBRANCH   7  10
ENDBRANCH   2   5
BRANCH   1  16
ATOM     16  N   UNL d   1      25.044 -16.019  -0.903  0.00  0.00    -0.249 N 
ATOM     17  C   UNL d   1      25.530 -14.986  -1.691  0.00  0.00     0.334 C 
ATOM     18  N   UNL d   1      26.508 -14.210  -1.099  0.00  0.00    -0.341 N 
ATOM     19  O   UNL d   1      25.119 -14.793  -2.838  0.00  0.00    -0.246 OA
ATOM     20  H   UNL d   1      26.796 -14.414  -0.154  0.00  0.00     0.164 HD
ATOM     21  H   UNL d   1      25.328 -16.184   0.059  0.00  0.00     0.192 HD
BRANCH  18  22
ATOM     22  C   UNL d   1      27.119 -13.067  -1.794  0.00  0.00     0.128 C 
BRANCH  22  23
ATOM     23  C   UNL d   1      27.993 -13.439  -3.016  0.00  0.00    -0.005 C 
ATOM     24  C   UNL d   1      28.716 -14.780  -2.801  0.00  0.00     0.011 C 
ATOM     25  C   UNL d   1      27.152 -13.539  -4.289  0.00  0.00     0.011 C 
ENDBRANCH  22  23
ENDBRANCH  18  22
ENDBRANCH   1  16
TORSDOF 5
ENDMDL
