MODEL 1
REMARK VINA RESULT:    -9.190      0.000      0.000
REMARK INTER + INTRA:         -12.163
REMARK INTER:                 -11.278
REMARK INTRA:                  -0.886
REMARK CONF_INDEPENDENT:        2.088
REMARK UNBOUND:                -0.886
REMARK  7 active torsions:
REMARK  status: ('A' for Active; 'I' for Inactive)
REMARK    1  A    between atoms: O_2  and  C_3 
REMARK       I    between atoms: C_3  and  N_5 
REMARK    2  A    between atoms: N_5  and  C_6 
REMARK    3  A    between atoms: C_9  and  C_10 
REMARK    4  A    between atoms: C_10  and  N_11 
REMARK       I    between atoms: N_11  and  C_12 
REMARK    5  A    between atoms: C_12  and  C_14 
REMARK       I    between atoms: C_14  and  N_16 
REMARK    6  A    between atoms: N_16  and  C_17 
REMARK    7  A    between atoms: C_20  and  C_21 
ROOT
ATOM      1  N   UNL d   1      26.319 -15.733  -2.364  0.00  0.00    -0.349 N 
ATOM      2  C   UNL d   1      25.926 -15.183  -3.570  0.00  0.00     0.309 C 
ATOM      3  O   UNL d   1      24.923 -14.514  -3.764  0.00  0.00    -0.262 OA
ATOM      4  H   UNL d   1      27.208 -16.218  -2.395  0.00  0.00     0.163 HD
ENDROOT
BRANCH   2   5
ATOM      5  C   UNL d   1      26.908 -15.498  -4.733  0.00  0.00     0.313 C 
ATOM      6  O   UNL d   1      26.445 -15.539  -5.870  0.00  0.00    -0.262 OA
ATOM      7  N   UNL d   1      28.228 -15.751  -4.365  0.00  0.00    -0.319 N 
ATOM      8  H   UNL d   1      28.432 -15.845  -3.374  0.00  0.00     0.169 HD
BRANCH   7   9
ATOM      9  C   UNL d   1      29.266 -15.950  -5.306  0.00  0.00     0.035 A 
ATOM     10  C   UNL d   1      29.521 -15.020  -6.320  0.00  0.00     0.030 A 
ATOM     11  C   UNL d   1      30.545 -15.259  -7.257  0.00  0.00     0.018 A 
ATOM     12  C   UNL d   1      31.345 -16.410  -7.170  0.00  0.00     0.048 A 
ATOM     13  C   UNL d   1      31.051 -17.353  -6.181  0.00  0.00     0.018 A 
ATOM     14  C   UNL d   1      30.030 -17.119  -5.259  0.00  0.00     0.030 A 
BRANCH  12  15
ATOM     15  C   UNL d   1      32.540 -16.601  -8.074  0.00  0.00     0.417 C 
ATOM     16  F   UNL d   1      32.614 -15.670  -9.063  0.00  0.00    -0.166 F 
ATOM     17  F   UNL d   1      33.717 -16.520  -7.393  0.00  0.00    -0.166 F 
ATOM     18  F   UNL d   1      32.561 -17.812  -8.700  0.00  0.00    -0.166 F 
ENDBRANCH  12  15
ENDBRANCH   7   9
ENDBRANCH   2   5
BRANCH   1  19
ATOM     19  C   UNL d   1      25.583 -15.592  -1.116  0.00  0.00     0.161 C 
BRANCH  19  20
ATOM     20  C   UNL d   1      24.524 -16.653  -0.846  0.00  0.00    -0.040 A 
ATOM     21  C   UNL d   1      23.153 -16.319  -0.880  0.00  0.00     0.011 A 
ATOM     22  C   UNL d   1      22.156 -17.256  -0.521  0.00  0.00     0.030 A 
ATOM     23  C   UNL d   1      22.508 -18.555  -0.153  0.00  0.00     0.036 A 
ATOM     24  C   UNL d   1      23.857 -18.897  -0.149  0.00  0.00     0.030 A 
ATOM     25  C   UNL d   1      24.842 -17.973  -0.505  0.00  0.00     0.011 A 
BRANCH  23  26
ATOM     26  N   UNL d   1      21.526 -19.529   0.144  0.00  0.00    -0.303 N 
ATOM     27  C   UNL d   1      20.467 -19.830  -0.685  0.00  0.00     0.364 C 
ATOM     28  O   UNL d   1      20.296 -19.385  -1.822  0.00  0.00    -0.238 OA
ATOM     29  H   UNL d   1      21.627 -20.088   0.981  0.00  0.00     0.171 HD
BRANCH  27  30
ATOM     30  O   UNL d   1      19.628 -20.744  -0.119  0.00  0.00    -0.309 OA
ATOM     31  C   UNL d   1      19.244 -20.405   1.225  0.00  0.00     0.215 C 
ENDBRANCH  27  30
ENDBRANCH  23  26
ENDBRANCH  19  20
ENDBRANCH   1  19
TORSDOF 7
ENDMDL
MODEL 2
REMARK VINA RESULT:    -8.871      7.545      9.566
REMARK INTER + INTRA:         -12.704
REMARK INTER:                 -10.959
REMARK INTRA:                  -1.744
REMARK CONF_INDEPENDENT:        2.088
REMARK UNBOUND:                -1.744
REMARK  7 active torsions:
REMARK  status: ('A' for Active; 'I' for Inactive)
REMARK    1  A    between atoms: O_2  and  C_3 
REMARK       I    between atoms: C_3  and  N_5 
REMARK    2  A    between atoms: N_5  and  C_6 
REMARK    3  A    between atoms: C_9  and  C_10 
REMARK    4  A    between atoms: C_10  and  N_11 
REMARK       I    between atoms: N_11  and  C_12 
REMARK    5  A    between atoms: C_12  and  C_14 
REMARK       I    between atoms: C_14  and  N_16 
REMARK    6  A    between atoms: N_16  and  C_17 
REMARK    7  A    between atoms: C_20  and  C_21 
ROOT
ATOM      1  N   UNL d   1      26.657 -14.634   0.201  0.00  0.00    -0.349 N 
ATOM      2  C   UNL d   1      27.388 -15.239   1.207  0.00  0.00     0.309 C 
ATOM      3  O   UNL d   1      27.771 -16.398   1.221  0.00  0.00    -0.262 OA
ATOM      4  H   UNL d   1      26.473 -13.649   0.352  0.00  0.00     0.163 HD
ENDROOT
BRANCH   2   5
ATOM      5  C   UNL d   1      27.702 -14.283   2.392  0.00  0.00     0.313 C 
ATOM      6  O   UNL d   1      27.484 -13.086   2.228  0.00  0.00    -0.262 OA
ATOM      7  N   UNL d   1      28.251 -14.879   3.526  0.00  0.00    -0.319 N 
ATOM      8  H   UNL d   1      28.530 -15.854   3.459  0.00  0.00     0.169 HD
BRANCH   7   9
ATOM      9  C   UNL d   1      28.497 -14.171   4.726  0.00  0.00     0.035 A 
ATOM     10  C   UNL d   1      29.627 -14.430   5.509  0.00  0.00     0.030 A 
ATOM     11  C   UNL d   1      29.832 -13.726   6.711  0.00  0.00     0.018 A 
ATOM     12  C   UNL d   1      28.928 -12.734   7.126  0.00  0.00     0.048 A 
ATOM     13  C   UNL d   1      27.780 -12.516   6.359  0.00  0.00     0.018 A 
ATOM     14  C   UNL d   1      27.575 -13.220   5.173  0.00  0.00     0.030 A 
BRANCH  12  15
ATOM     15  C   UNL d   1      29.216 -11.870   8.331  0.00  0.00     0.417 C 
ATOM     16  F   UNL d   1      29.234 -10.541   8.043  0.00  0.00    -0.166 F 
ATOM     17  F   UNL d   1      28.282 -12.029   9.311  0.00  0.00    -0.166 F 
ATOM     18  F   UNL d   1      30.415 -12.141   8.921  0.00  0.00    -0.166 F 
ENDBRANCH  12  15
ENDBRANCH   7   9
ENDBRANCH   2   5
BRANCH   1  19
ATOM     19  C   UNL d   1      26.230 -15.300  -1.021  0.00  0.00     0.161 C 
BRANCH  19  20
ATOM     20  C   UNL d   1      25.142 -16.354  -0.857  0.00  0.00    -0.040 A 
ATOM     21  C   UNL d   1      23.796 -16.040  -1.143  0.00  0.00     0.011 A 
ATOM     22  C   UNL d   1      22.754 -16.962  -0.890  0.00  0.00     0.030 A 
ATOM     23  C   UNL d   1      23.040 -18.229  -0.377  0.00  0.00     0.036 A 
ATOM     24  C   UNL d   1      24.369 -18.552  -0.124  0.00  0.00     0.030 A 
ATOM     25  C   UNL d   1      25.400 -17.642  -0.375  0.00  0.00     0.011 A 
BRANCH  23  26
ATOM     26  N   UNL d   1      22.023 -19.192  -0.180  0.00  0.00    -0.303 N 
ATOM     27  C   UNL d   1      20.718 -19.027  -0.592  0.00  0.00     0.364 C 
ATOM     28  O   UNL d   1      20.292 -18.090  -1.271  0.00  0.00    -0.238 OA
ATOM     29  H   UNL d   1      22.266 -20.084   0.230  0.00  0.00     0.171 HD
BRANCH  27  30
ATOM     30  O   UNL d   1      19.931 -20.070  -0.202  0.00  0.00    -0.309 OA
ATOM     31  C   UNL d   1      19.907 -20.259   1.223  0.00  0.00     0.215 C 
ENDBRANCH  27  30
ENDBRANCH  23  26
ENDBRANCH  19  20
ENDBRANCH   1  19
TORSDOF 7
ENDMDL
MODEL 3
REMARK VINA RESULT:    -8.544      7.784      9.915
REMARK INTER + INTRA:         -11.572
REMARK INTER:                 -10.632
REMARK INTRA:                  -0.940
REMARK CONF_INDEPENDENT:        2.088
REMARK UNBOUND:                -0.940
REMARK  7 active torsions:
REMARK  status: ('A' for Active; 'I' for Inactive)
REMARK    1  A    between atoms: O_2  and  C_3 
REMARK       I    between atoms: C_3  and  N_5 
REMARK    2  A    between atoms: N_5  and  C_6 
REMARK    3  A    between atoms: C_9  and  C_10 
REMARK    4  A    between atoms: C_10  and  N_11 
REMARK       I    between atoms: N_11  and  C_12 
REMARK    5  A    between atoms: C_12  and  C_14 
REMARK       I    between atoms: C_14  and  N_16 
REMARK    6  A    between atoms: N_16  and  C_17 
REMARK    7  A    between atoms: C_20  and  C_21 
ROOT
ATOM      1  N   UNL d   1      28.256 -15.615   1.006  0.00  0.00    -0.349 N 
ATOM      2  C   UNL d   1      27.369 -14.596   1.299  0.00  0.00     0.309 C 
ATOM      3  O   UNL d   1      26.394 -14.278   0.636  0.00  0.00    -0.262 OA
ATOM      4  H   UNL d   1      28.979 -15.754   1.704  0.00  0.00     0.163 HD
ENDROOT
BRANCH   2   5
ATOM      5  C   UNL d   1      27.724 -13.834   2.606  0.00  0.00     0.313 C 
ATOM      6  O   UNL d   1      27.654 -12.608   2.584  0.00  0.00    -0.262 OA
ATOM      7  N   UNL d   1      28.136 -14.622   3.678  0.00  0.00    -0.319 N 
ATOM      8  H   UNL d   1      28.305 -15.608   3.502  0.00  0.00     0.169 HD
BRANCH   7   9
ATOM      9  C   UNL d   1      28.394 -14.097   4.967  0.00  0.00     0.035 A 
ATOM     10  C   UNL d   1      29.443 -14.582   5.757  0.00  0.00     0.030 A 
ATOM     11  C   UNL d   1      29.659 -14.056   7.045  0.00  0.00     0.018 A 
ATOM     12  C   UNL d   1      28.853 -13.019   7.543  0.00  0.00     0.048 A 
ATOM     13  C   UNL d   1      27.781 -12.575   6.764  0.00  0.00     0.018 A 
ATOM     14  C   UNL d   1      27.563 -13.104   5.491  0.00  0.00     0.030 A 
BRANCH  12  15
ATOM     15  C   UNL d   1      29.169 -12.347   8.858  0.00  0.00     0.417 C 
ATOM     16  F   UNL d   1      30.272 -12.861   9.468  0.00  0.00    -0.166 F 
ATOM     17  F   UNL d   1      29.410 -11.014   8.708  0.00  0.00    -0.166 F 
ATOM     18  F   UNL d   1      28.162 -12.436   9.772  0.00  0.00    -0.166 F 
ENDBRANCH  12  15
ENDBRANCH   7   9
ENDBRANCH   2   5
BRANCH   1  19
ATOM     19  C   UNL d   1      28.157 -16.484  -0.157  0.00  0.00     0.161 C 
BRANCH  19  20
ATOM     20  C   UNL d   1      26.755 -16.968  -0.507  0.00  0.00    -0.040 A 
ATOM     21  C   UNL d   1      26.142 -17.988   0.253  0.00  0.00     0.011 A 
ATOM     22  C   UNL d   1      24.891 -18.534  -0.119  0.00  0.00     0.030 A 
ATOM     23  C   UNL d   1      24.213 -18.048  -1.238  0.00  0.00     0.036 A 
ATOM     24  C   UNL d   1      24.799 -17.020  -1.970  0.00  0.00     0.030 A 
ATOM     25  C   UNL d   1      26.035 -16.479  -1.602  0.00  0.00     0.011 A 
BRANCH  23  26
ATOM     26  N   UNL d   1      22.930 -18.530  -1.590  0.00  0.00    -0.303 N 
ATOM     27  C   UNL d   1      21.931 -18.791  -0.678  0.00  0.00     0.364 C 
ATOM     28  O   UNL d   1      21.975 -18.540   0.528  0.00  0.00    -0.238 OA
ATOM     29  H   UNL d   1      22.698 -18.635  -2.568  0.00  0.00     0.171 HD
BRANCH  27  30
ATOM     30  O   UNL d   1      20.828 -19.324  -1.278  0.00  0.00    -0.309 OA
ATOM     31  C   UNL d   1      19.906 -19.915  -0.346  0.00  0.00     0.215 C 
ENDBRANCH  27  30
ENDBRANCH  23  26
ENDBRANCH  19  20
ENDBRANCH   1  19
TORSDOF 7
ENDMDL
MODEL 4
REMARK VINA RESULT:    -8.246      7.993     10.021
REMARK INTER + INTRA:         -11.919
REMARK INTER:                 -10.334
REMARK INTRA:                  -1.585
REMARK CONF_INDEPENDENT:        2.088
REMARK UNBOUND:                -1.585
REMARK  7 active torsions:
REMARK  status: ('A' for Active; 'I' for Inactive)
REMARK    1  A    between atoms: O_2  and  C_3 
REMARK       I    between atoms: C_3  and  N_5 
REMARK    2  A    between atoms: N_5  and  C_6 
REMARK    3  A    between atoms: C_9  and  C_10 
REMARK    4  A    between atoms: C_10  and  N_11 
REMARK       I    between atoms: N_11  and  C_12 
REMARK    5  A    between atoms: C_12  and  C_14 
REMARK       I    between atoms: C_14  and  N_16 
REMARK    6  A    between atoms: N_16  and  C_17 
REMARK    7  A    between atoms: C_20  and  C_21 
ROOT
ATOM      1  N   UNL d   1      28.316 -15.787   0.973  0.00  0.00    -0.349 N 
ATOM      2  C   UNL d   1      27.688 -14.777   1.678  0.00  0.00     0.309 C 
ATOM      3  O   UNL d   1      26.660 -14.204   1.353  0.00  0.00    -0.262 OA
ATOM      4  H   UNL d   1      29.137 -16.169   1.429  0.00  0.00     0.163 HD
ENDROOT
BRANCH   2   5
ATOM      5  C   UNL d   1      28.430 -14.396   2.989  0.00  0.00     0.313 C 
ATOM      6  O   UNL d   1      29.657 -14.450   2.982  0.00  0.00    -0.262 OA
ATOM      7  N   UNL d   1      27.621 -14.068   4.074  0.00  0.00    -0.319 N 
ATOM      8  H   UNL d   1      26.621 -14.226   3.982  0.00  0.00     0.169 HD
BRANCH   7   9
ATOM      9  C   UNL d   1      28.135 -13.598   5.306  0.00  0.00     0.035 A 
ATOM     10  C   UNL d   1      27.941 -12.276   5.722  0.00  0.00     0.030 A 
ATOM     11  C   UNL d   1      28.486 -11.831   6.942  0.00  0.00     0.018 A 
ATOM     12  C   UNL d   1      29.201 -12.710   7.773  0.00  0.00     0.048 A 
ATOM     13  C   UNL d   1      29.427 -14.014   7.325  0.00  0.00     0.018 A 
ATOM     14  C   UNL d   1      28.893 -14.450   6.112  0.00  0.00     0.030 A 
BRANCH  12  15
ATOM     15  C   UNL d   1      29.659 -12.285   9.148  0.00  0.00     0.417 C 
ATOM     16  F   UNL d   1      28.636 -11.880   9.949  0.00  0.00    -0.166 F 
ATOM     17  F   UNL d   1      30.281 -13.296   9.817  0.00  0.00    -0.166 F 
ATOM     18  F   UNL d   1      30.550 -11.254   9.131  0.00  0.00    -0.166 F 
ENDBRANCH  12  15
ENDBRANCH   7   9
ENDBRANCH   2   5
BRANCH   1  19
ATOM     19  C   UNL d   1      27.833 -16.335  -0.286  0.00  0.00     0.161 C 
BRANCH  19  20
ATOM     20  C   UNL d   1      26.375 -16.776  -0.303  0.00  0.00    -0.040 A 
ATOM     21  C   UNL d   1      25.402 -15.999  -0.967  0.00  0.00     0.011 A 
ATOM     22  C   UNL d   1      24.027 -16.324  -0.900  0.00  0.00     0.030 A 
ATOM     23  C   UNL d   1      23.601 -17.451  -0.196  0.00  0.00     0.036 A 
ATOM     24  C   UNL d   1      24.561 -18.238   0.434  0.00  0.00     0.030 A 
ATOM     25  C   UNL d   1      25.920 -17.918   0.367  0.00  0.00     0.011 A 
BRANCH  23  26
ATOM     26  N   UNL d   1      22.240 -17.835  -0.171  0.00  0.00    -0.303 N 
ATOM     27  C   UNL d   1      21.658 -18.661  -1.108  0.00  0.00     0.364 C 
ATOM     28  O   UNL d   1      22.252 -19.256  -2.010  0.00  0.00    -0.238 OA
ATOM     29  H   UNL d   1      21.663 -17.545   0.606  0.00  0.00     0.171 HD
BRANCH  27  30
ATOM     30  O   UNL d   1      20.318 -18.800  -0.895  0.00  0.00    -0.309 OA
ATOM     31  C   UNL d   1      19.982 -19.988  -0.157  0.00  0.00     0.215 C 
ENDBRANCH  27  30
ENDBRANCH  23  26
ENDBRANCH  19  20
ENDBRANCH   1  19
TORSDOF 7
ENDMDL
MODEL 5
REMARK VINA RESULT:    -8.012      5.604      6.890
REMARK INTER + INTRA:         -11.880
REMARK INTER:                 -10.100
REMARK INTRA:                  -1.780
REMARK CONF_INDEPENDENT:        2.088
REMARK UNBOUND:                -1.780
REMARK  7 active torsions:
REMARK  status: ('A' for Active; 'I' for Inactive)
REMARK    1  A    between atoms: O_2  and  C_3 
REMARK       I    between atoms: C_3  and  N_5 
REMARK    2  A    between atoms: N_5  and  C_6 
REMARK    3  A    between atoms: C_9  and  C_10 
REMARK    4  A    between atoms: C_10  and  N_11 
REMARK       I    between atoms: N_11  and  C_12 
REMARK    5  A    between atoms: C_12  and  C_14 
REMARK       I    between atoms: C_14  and  N_16 
REMARK    6  A    between atoms: N_16  and  C_17 
REMARK    7  A    between atoms: C_20  and  C_21 
ROOT
ATOM      1  N   UNL d   1      26.101 -14.875  -2.078  0.00  0.00    -0.349 N 
ATOM      2  C   UNL d   1      25.629 -14.096  -3.118  0.00  0.00     0.309 C 
ATOM      3  O   UNL d   1      25.080 -14.503  -4.130  0.00  0.00    -0.262 OA
ATOM      4  H   UNL d   1      26.486 -14.348  -1.301  0.00  0.00     0.163 HD
ENDROOT
BRANCH   2   5
ATOM      5  C   UNL d   1      25.864 -12.575  -2.898  0.00  0.00     0.313 C 
ATOM      6  O   UNL d   1      26.439 -12.234  -1.868  0.00  0.00    -0.262 OA
ATOM      7  N   UNL d   1      25.354 -11.731  -3.882  0.00  0.00    -0.319 N 
ATOM      8  H   UNL d   1      24.758 -12.143  -4.595  0.00  0.00     0.169 HD
BRANCH   7   9
ATOM      9  C   UNL d   1      25.572 -10.333  -3.888  0.00  0.00     0.035 A 
ATOM     10  C   UNL d   1      26.064  -9.666  -2.760  0.00  0.00     0.030 A 
ATOM     11  C   UNL d   1      26.248  -8.270  -2.788  0.00  0.00     0.018 A 
ATOM     12  C   UNL d   1      25.973  -7.532  -3.952  0.00  0.00     0.048 A 
ATOM     13  C   UNL d   1      25.440  -8.203  -5.056  0.00  0.00     0.018 A 
ATOM     14  C   UNL d   1      25.251  -9.585  -5.023  0.00  0.00     0.030 A 
BRANCH  12  15
ATOM     15  C   UNL d   1      26.308  -6.062  -4.041  0.00  0.00     0.417 C 
ATOM     16  F   UNL d   1      26.539  -5.493  -2.828  0.00  0.00    -0.166 F 
ATOM     17  F   UNL d   1      27.430  -5.836  -4.781  0.00  0.00    -0.166 F 
ATOM     18  F   UNL d   1      25.328  -5.315  -4.625  0.00  0.00    -0.166 F 
ENDBRANCH  12  15
ENDBRANCH   7   9
ENDBRANCH   2   5
BRANCH   1  19
ATOM     19  C   UNL d   1      26.008 -16.327  -2.028  0.00  0.00     0.161 C 
BRANCH  19  20
ATOM     20  C   UNL d   1      24.763 -16.890  -1.356  0.00  0.00    -0.040 A 
ATOM     21  C   UNL d   1      24.763 -18.202  -0.836  0.00  0.00     0.011 A 
ATOM     22  C   UNL d   1      23.588 -18.788  -0.312  0.00  0.00     0.030 A 
ATOM     23  C   UNL d   1      22.397 -18.063  -0.265  0.00  0.00     0.036 A 
ATOM     24  C   UNL d   1      22.401 -16.757  -0.747  0.00  0.00     0.030 A 
ATOM     25  C   UNL d   1      23.562 -16.176  -1.264  0.00  0.00     0.011 A 
BRANCH  23  26
ATOM     26  N   UNL d   1      21.226 -18.603   0.317  0.00  0.00    -0.303 N 
ATOM     27  C   UNL d   1      20.286 -19.330  -0.380  0.00  0.00     0.364 C 
ATOM     28  O   UNL d   1      20.387 -19.698  -1.552  0.00  0.00    -0.238 OA
ATOM     29  H   UNL d   1      21.088 -18.511   1.315  0.00  0.00     0.171 HD
BRANCH  27  30
ATOM     30  O   UNL d   1      19.220 -19.658   0.404  0.00  0.00    -0.309 OA
ATOM     31  C   UNL d   1      19.078 -21.075   0.605  0.00  0.00     0.215 C 
ENDBRANCH  27  30
ENDBRANCH  23  26
ENDBRANCH  19  20
ENDBRANCH   1  19
TORSDOF 7
ENDMDL
MODEL 6
REMARK VINA RESULT:    -8.008      8.446     10.250
REMARK INTER + INTRA:         -10.758
REMARK INTER:                 -10.096
REMARK INTRA:                  -0.662
REMARK CONF_INDEPENDENT:        2.088
REMARK UNBOUND:                -0.662
REMARK  7 active torsions:
REMARK  status: ('A' for Active; 'I' for Inactive)
REMARK    1  A    between atoms: O_2  and  C_3 
REMARK       I    between atoms: C_3  and  N_5 
REMARK    2  A    between atoms: N_5  and  C_6 
REMARK    3  A    between atoms: C_9  and  C_10 
REMARK    4  A    between atoms: C_10  and  N_11 
REMARK       I    between atoms: N_11  and  C_12 
REMARK    5  A    between atoms: C_12  and  C_14 
REMARK       I    between atoms: C_14  and  N_16 
REMARK    6  A    between atoms: N_16  and  C_17 
REMARK    7  A    between atoms: C_20  and  C_21 
ROOT
ATOM      1  N   UNL d   1      31.476 -18.024  -0.040  0.00  0.00    -0.349 N 
ATOM      2  C   UNL d   1      31.164 -17.224  -1.122  0.00  0.00     0.309 C 
ATOM      3  O   UNL d   1      31.962 -16.662  -1.856  0.00  0.00    -0.262 OA
ATOM      4  H   UNL d   1      30.673 -18.440   0.420  0.00  0.00     0.163 HD
ENDROOT
BRANCH   2   5
ATOM      5  C   UNL d   1      29.633 -17.076  -1.351  0.00  0.00     0.313 C 
ATOM      6  O   UNL d   1      29.262 -16.645  -2.440  0.00  0.00    -0.262 OA
ATOM      7  N   UNL d   1      28.820 -17.406  -0.270  0.00  0.00    -0.319 N 
ATOM      8  H   UNL d   1      29.272 -17.590   0.622  0.00  0.00     0.169 HD
BRANCH   7   9
ATOM      9  C   UNL d   1      27.407 -17.427  -0.345  0.00  0.00     0.035 A 
ATOM     10  C   UNL d   1      26.716 -16.681  -1.306  0.00  0.00     0.030 A 
ATOM     11  C   UNL d   1      25.308 -16.703  -1.339  0.00  0.00     0.018 A 
ATOM     12  C   UNL d   1      24.580 -17.495  -0.437  0.00  0.00     0.048 A 
ATOM     13  C   UNL d   1      25.279 -18.200   0.546  0.00  0.00     0.018 A 
ATOM     14  C   UNL d   1      26.674 -18.170   0.583  0.00  0.00     0.030 A 
BRANCH  12  15
ATOM     15  C   UNL d   1      23.082 -17.643  -0.561  0.00  0.00     0.417 C 
ATOM     16  F   UNL d   1      22.490 -18.069   0.588  0.00  0.00    -0.166 F 
ATOM     17  F   UNL d   1      22.474 -16.466  -0.883  0.00  0.00    -0.166 F 
ATOM     18  F   UNL d   1      22.701 -18.527  -1.527  0.00  0.00    -0.166 F 
ENDBRANCH  12  15
ENDBRANCH   7   9
ENDBRANCH   2   5
BRANCH   1  19
ATOM     19  C   UNL d   1      32.831 -18.330   0.395  0.00  0.00     0.161 C 
BRANCH  19  20
ATOM     20  C   UNL d   1      32.948 -19.215   1.629  0.00  0.00    -0.040 A 
ATOM     21  C   UNL d   1      32.107 -20.338   1.785  0.00  0.00     0.011 A 
ATOM     22  C   UNL d   1      32.117 -21.108   2.971  0.00  0.00     0.030 A 
ATOM     23  C   UNL d   1      32.990 -20.791   4.012  0.00  0.00     0.036 A 
ATOM     24  C   UNL d   1      33.843 -19.704   3.849  0.00  0.00     0.030 A 
ATOM     25  C   UNL d   1      33.836 -18.943   2.677  0.00  0.00     0.011 A 
BRANCH  23  26
ATOM     26  N   UNL d   1      33.066 -21.586   5.179  0.00  0.00    -0.303 N 
ATOM     27  C   UNL d   1      32.167 -21.511   6.221  0.00  0.00     0.364 C 
ATOM     28  O   UNL d   1      31.134 -20.838   6.230  0.00  0.00    -0.238 OA
ATOM     29  H   UNL d   1      33.781 -22.299   5.241  0.00  0.00     0.171 HD
BRANCH  27  30
ATOM     30  O   UNL d   1      32.522 -22.327   7.254  0.00  0.00    -0.309 OA
ATOM     31  C   UNL d   1      33.941 -22.547   7.340  0.00  0.00     0.215 C 
ENDBRANCH  27  30
ENDBRANCH  23  26
ENDBRANCH  19  20
ENDBRANCH   1  19
TORSDOF 7
ENDMDL
MODEL 7
REMARK VINA RESULT:    -7.841      5.391      6.554
REMARK INTER + INTRA:         -11.577
REMARK INTER:                  -9.929
REMARK INTRA:                  -1.648
REMARK CONF_INDEPENDENT:        2.088
REMARK UNBOUND:                -1.648
REMARK  7 active torsions:
REMARK  status: ('A' for Active; 'I' for Inactive)
REMARK    1  A    between atoms: O_2  and  C_3 
REMARK       I    between atoms: C_3  and  N_5 
REMARK    2  A    between atoms: N_5  and  C_6 
REMARK    3  A    between atoms: C_9  and  C_10 
REMARK    4  A    between atoms: C_10  and  N_11 
REMARK       I    between atoms: N_11  and  C_12 
REMARK    5  A    between atoms: C_12  and  C_14 
REMARK       I    between atoms: C_14  and  N_16 
REMARK    6  A    between atoms: N_16  and  C_17 
REMARK    7  A    between atoms: C_20  and  C_21 
ROOT
ATOM      1  N   UNL d   1      25.425 -14.866  -2.141  0.00  0.00    -0.349 N 
ATOM      2  C   UNL d   1      26.346 -13.937  -2.589  0.00  0.00     0.309 C 
ATOM      3  O   UNL d   1      27.530 -13.896  -2.291  0.00  0.00    -0.262 OA
ATOM      4  H   UNL d   1      24.497 -14.761  -2.537  0.00  0.00     0.163 HD
ENDROOT
BRANCH   2   5
ATOM      5  C   UNL d   1      25.731 -12.882  -3.551  0.00  0.00     0.313 C 
ATOM      6  O   UNL d   1      24.732 -13.209  -4.186  0.00  0.00    -0.262 OA
ATOM      7  N   UNL d   1      26.408 -11.668  -3.636  0.00  0.00    -0.319 N 
ATOM      8  H   UNL d   1      27.313 -11.598  -3.179  0.00  0.00     0.169 HD
BRANCH   7   9
ATOM      9  C   UNL d   1      25.925 -10.567  -4.383  0.00  0.00     0.035 A 
ATOM     10  C   UNL d   1      25.882 -10.595  -5.781  0.00  0.00     0.030 A 
ATOM     11  C   UNL d   1      25.419  -9.474  -6.498  0.00  0.00     0.018 A 
ATOM     12  C   UNL d   1      24.965  -8.328  -5.824  0.00  0.00     0.048 A 
ATOM     13  C   UNL d   1      25.056  -8.295  -4.430  0.00  0.00     0.018 A 
ATOM     14  C   UNL d   1      25.523  -9.403  -3.722  0.00  0.00     0.030 A 
BRANCH  12  15
ATOM     15  C   UNL d   1      24.327  -7.183  -6.574  0.00  0.00     0.417 C 
ATOM     16  F   UNL d   1      24.312  -6.023  -5.864  0.00  0.00    -0.166 F 
ATOM     17  F   UNL d   1      24.983  -6.903  -7.736  0.00  0.00    -0.166 F 
ATOM     18  F   UNL d   1      23.033  -7.420  -6.932  0.00  0.00    -0.166 F 
ENDBRANCH  12  15
ENDBRANCH   7   9
ENDBRANCH   2   5
BRANCH   1  19
ATOM     19  C   UNL d   1      25.734 -15.961  -1.233  0.00  0.00     0.161 C 
BRANCH  19  20
ATOM     20  C   UNL d   1      24.580 -16.902  -0.911  0.00  0.00    -0.040 A 
ATOM     21  C   UNL d   1      23.250 -16.429  -0.917  0.00  0.00     0.011 A 
ATOM     22  C   UNL d   1      22.174 -17.251  -0.511  0.00  0.00     0.030 A 
ATOM     23  C   UNL d   1      22.400 -18.573  -0.123  0.00  0.00     0.036 A 
ATOM     24  C   UNL d   1      23.707 -19.051  -0.147  0.00  0.00     0.030 A 
ATOM     25  C   UNL d   1      24.772 -18.241  -0.549  0.00  0.00     0.011 A 
BRANCH  23  26
ATOM     26  N   UNL d   1      21.333 -19.434   0.221  0.00  0.00    -0.303 N 
ATOM     27  C   UNL d   1      20.323 -19.791  -0.647  0.00  0.00     0.364 C 
ATOM     28  O   UNL d   1      20.272 -19.507  -1.845  0.00  0.00    -0.238 OA
ATOM     29  H   UNL d   1      21.330 -19.870   1.133  0.00  0.00     0.171 HD
BRANCH  27  30
ATOM     30  O   UNL d   1      19.381 -20.562  -0.033  0.00  0.00    -0.309 OA
ATOM     31  C   UNL d   1      19.017 -20.080   1.272  0.00  0.00     0.215 C 
ENDBRANCH  27  30
ENDBRANCH  23  26
ENDBRANCH  19  20
ENDBRANCH   1  19
TORSDOF 7
ENDMDL
MODEL 8
REMARK VINA RESULT:    -6.999      2.484      3.179
REMARK INTER + INTRA:         -10.955
REMARK INTER:                  -9.087
REMARK INTRA:                  -1.869
REMARK CONF_INDEPENDENT:        2.088
REMARK UNBOUND:                -1.869
REMARK  7 active torsions:
REMARK  status: ('A' for Active; 'I' for Inactive)
REMARK    1  A    between atoms: O_2  and  C_3 
REMARK       I    between atoms: C_3  and  N_5 
REMARK    2  A    between atoms: N_5  and  C_6 
REMARK    3  A    between atoms: C_9  and  C_10 
REMARK    4  A    between atoms: C_10  and  N_11 
REMARK       I    between atoms: N_11  and  C_12 
REMARK    5  A    between atoms: C_12  and  C_14 
REMARK       I    between atoms: C_14  and  N_16 
REMARK    6  A    between atoms: N_16  and  C_17 
REMARK    7  A    between atoms: C_20  and  C_21 
ROOT
ATOM      1  N   UNL d   1      29.110 -17.209  -1.487  0.00  0.00    -0.349 N 
ATOM      2  C   UNL d   1      29.159 -16.661  -2.755  0.00  0.00     0.309 C 
ATOM      3  O   UNL d   1      28.601 -15.639  -3.120  0.00  0.00    -0.262 OA
ATOM      4  H   UNL d   1      29.678 -18.040  -1.367  0.00  0.00     0.163 HD
ENDROOT
BRANCH   2   5
ATOM      5  C   UNL d   1      30.024 -17.491  -3.745  0.00  0.00     0.313 C 
ATOM      6  O   UNL d   1      30.793 -18.321  -3.267  0.00  0.00    -0.262 OA
ATOM      7  N   UNL d   1      29.874 -17.178  -5.094  0.00  0.00    -0.319 N 
ATOM      8  H   UNL d   1      29.325 -16.357  -5.331  0.00  0.00     0.169 HD
BRANCH   7   9
ATOM      9  C   UNL d   1      30.507 -17.907  -6.129  0.00  0.00     0.035 A 
ATOM     10  C   UNL d   1      31.302 -17.272  -7.090  0.00  0.00     0.030 A 
ATOM     11  C   UNL d   1      31.898 -18.021  -8.123  0.00  0.00     0.018 A 
ATOM     12  C   UNL d   1      31.734 -19.415  -8.186  0.00  0.00     0.048 A 
ATOM     13  C   UNL d   1      30.901 -20.031  -7.249  0.00  0.00     0.018 A 
ATOM     14  C   UNL d   1      30.304 -19.286  -6.232  0.00  0.00     0.030 A 
BRANCH  12  15
ATOM     15  C   UNL d   1      32.489 -20.244  -9.198  0.00  0.00     0.417 C 
ATOM     16  F   UNL d   1      31.752 -21.269  -9.705  0.00  0.00    -0.166 F 
ATOM     17  F   UNL d   1      32.892 -19.505 -10.269  0.00  0.00    -0.166 F 
ATOM     18  F   UNL d   1      33.623 -20.812  -8.697  0.00  0.00    -0.166 F 
ENDBRANCH  12  15
ENDBRANCH   7   9
ENDBRANCH   2   5
BRANCH   1  19
ATOM     19  C   UNL d   1      28.373 -16.635  -0.370  0.00  0.00     0.161 C 
BRANCH  19  20
ATOM     20  C   UNL d   1      26.881 -16.938  -0.333  0.00  0.00    -0.040 A 
ATOM     21  C   UNL d   1      25.964 -16.093  -0.996  0.00  0.00     0.011 A 
ATOM     22  C   UNL d   1      24.568 -16.286  -0.881  0.00  0.00     0.030 A 
ATOM     23  C   UNL d   1      24.060 -17.348  -0.130  0.00  0.00     0.036 A 
ATOM     24  C   UNL d   1      24.962 -18.201   0.498  0.00  0.00     0.030 A 
ATOM     25  C   UNL d   1      26.343 -18.012   0.385  0.00  0.00     0.011 A 
BRANCH  23  26
ATOM     26  N   UNL d   1      22.671 -17.602  -0.057  0.00  0.00    -0.303 N 
ATOM     27  C   UNL d   1      21.984 -18.379  -0.964  0.00  0.00     0.364 C 
ATOM     28  O   UNL d   1      22.489 -19.036  -1.876  0.00  0.00    -0.238 OA
ATOM     29  H   UNL d   1      22.150 -17.250   0.735  0.00  0.00     0.171 HD
BRANCH  27  30
ATOM     30  O   UNL d   1      20.645 -18.389  -0.705  0.00  0.00    -0.309 OA
ATOM     31  C   UNL d   1      20.057 -19.698  -0.811  0.00  0.00     0.215 C 
ENDBRANCH  27  30
ENDBRANCH  23  26
ENDBRANCH  19  20
ENDBRANCH   1  19
TORSDOF 7
ENDMDL
MODEL 9
REMARK VINA RESULT:    -6.783      6.992     11.065
REMARK INTER + INTRA:         -10.518
REMARK INTER:                  -8.871
REMARK INTRA:                  -1.648
REMARK CONF_INDEPENDENT:        2.088
REMARK UNBOUND:                -1.648
REMARK  7 active torsions:
REMARK  status: ('A' for Active; 'I' for Inactive)
REMARK    1  A    between atoms: O_2  and  C_3 
REMARK       I    between atoms: C_3  and  N_5 
REMARK    2  A    between atoms: N_5  and  C_6 
REMARK    3  A    between atoms: C_9  and  C_10 
REMARK    4  A    between atoms: C_10  and  N_11 
REMARK       I    between atoms: N_11  and  C_12 
REMARK    5  A    between atoms: C_12  and  C_14 
REMARK       I    between atoms: C_14  and  N_16 
REMARK    6  A    between atoms: N_16  and  C_17 
REMARK    7  A    between atoms: C_20  and  C_21 
ROOT
ATOM      1  N   UNL d   1      25.796 -17.307  -0.926  0.00  0.00    -0.349 N 
ATOM      2  C   UNL d   1      24.463 -16.976  -1.080  0.00  0.00     0.309 C 
ATOM      3  O   UNL d   1      24.027 -15.910  -1.488  0.00  0.00    -0.262 OA
ATOM      4  H   UNL d   1      25.959 -18.259  -0.617  0.00  0.00     0.163 HD
ENDROOT
BRANCH   2   5
ATOM      5  C   UNL d   1      23.498 -18.123  -0.667  0.00  0.00     0.313 C 
ATOM      6  O   UNL d   1      23.997 -19.140  -0.194  0.00  0.00    -0.262 OA
ATOM      7  N   UNL d   1      22.146 -17.902  -0.919  0.00  0.00    -0.319 N 
ATOM      8  H   UNL d   1      21.895 -17.083  -1.466  0.00  0.00     0.169 HD
BRANCH   7   9
ATOM      9  C   UNL d   1      21.129 -18.797  -0.510  0.00  0.00     0.035 A 
ATOM     10  C   UNL d   1      21.421 -19.943   0.236  0.00  0.00     0.030 A 
ATOM     11  C   UNL d   1      20.390 -20.828   0.607  0.00  0.00     0.018 A 
ATOM     12  C   UNL d   1      19.055 -20.560   0.265  0.00  0.00     0.048 A 
ATOM     13  C   UNL d   1      18.781 -19.436  -0.519  0.00  0.00     0.018 A 
ATOM     14  C   UNL d   1      19.805 -18.565  -0.893  0.00  0.00     0.030 A 
BRANCH  12  15
ATOM     15  C   UNL d   1      17.927 -21.420   0.785  0.00  0.00     0.417 C 
ATOM     16  F   UNL d   1      18.326 -22.677   1.119  0.00  0.00    -0.166 F 
ATOM     17  F   UNL d   1      17.359 -20.896   1.908  0.00  0.00    -0.166 F 
ATOM     18  F   UNL d   1      16.906 -21.575  -0.104  0.00  0.00    -0.166 F 
ENDBRANCH  12  15
ENDBRANCH   7   9
ENDBRANCH   2   5
BRANCH   1  19
ATOM     19  C   UNL d   1      26.906 -16.418  -1.239  0.00  0.00     0.161 C 
BRANCH  19  20
ATOM     20  C   UNL d   1      26.578 -15.241  -2.149  0.00  0.00    -0.040 A 
ATOM     21  C   UNL d   1      26.633 -13.920  -1.654  0.00  0.00     0.011 A 
ATOM     22  C   UNL d   1      26.223 -12.820  -2.443  0.00  0.00     0.030 A 
ATOM     23  C   UNL d   1      25.781 -13.014  -3.752  0.00  0.00     0.036 A 
ATOM     24  C   UNL d   1      25.756 -14.313  -4.253  0.00  0.00     0.030 A 
ATOM     25  C   UNL d   1      26.163 -15.400  -3.476  0.00  0.00     0.011 A 
BRANCH  23  26
ATOM     26  N   UNL d   1      25.431 -11.924  -4.583  0.00  0.00    -0.303 N 
ATOM     27  C   UNL d   1      25.940 -10.652  -4.435  0.00  0.00     0.364 C 
ATOM     28  O   UNL d   1      26.831 -10.321  -3.651  0.00  0.00    -0.238 OA
ATOM     29  H   UNL d   1      24.821 -12.086  -5.373  0.00  0.00     0.171 HD
BRANCH  27  30
ATOM     30  O   UNL d   1      25.372  -9.778  -5.314  0.00  0.00    -0.309 OA
ATOM     31  C   UNL d   1      24.991  -8.531  -4.707  0.00  0.00     0.215 C 
ENDBRANCH  27  30
ENDBRANCH  23  26
ENDBRANCH  19  20
ENDBRANCH   1  19
TORSDOF 7
ENDMDL
