MODEL 1
REMARK VINA RESULT:    -8.875      0.000      0.000
REMARK INTER + INTRA:         -11.824
REMARK INTER:                 -10.963
REMARK INTRA:                  -0.861
REMARK CONF_INDEPENDENT:        2.088
REMARK UNBOUND:                -0.861
REMARK  7 active torsions:
REMARK  status: ('A' for Active; 'I' for Inactive)
REMARK    1  A    between atoms: O_2  and  C_3 
REMARK    2  A    between atoms: C_6  and  C_7 
REMARK    3  A    between atoms: C_7  and  N_9 
REMARK       I    between atoms: N_9  and  C_10 
REMARK       I    between atoms: C_10  and  N_12 
REMARK    4  A    between atoms: N_12  and  O_13 
REMARK    5  A    between atoms: O_13  and  C_14 
REMARK    6  A    between atoms: C_14  and  C_15 
REMARK    7  A    between atoms: C_22  and  O_23 
ROOT
ATOM      1  N   UNL d   1      24.383 -17.712   0.101  0.00  0.00    -0.333 N 
ATOM      2  C   UNL d   1      23.286 -17.831  -0.717  0.00  0.00     0.340 C 
ATOM      3  O   UNL d   1      23.366 -18.225  -1.885  0.00  0.00    -0.245 OA
ATOM      4  N   UNL d   1      22.106 -17.497  -0.099  0.00  0.00    -0.216 N 
ATOM      5  H   UNL d   1      24.210 -17.378   1.030  0.00  0.00     0.165 HD
ATOM      6  H   UNL d   1      22.029 -17.123   0.836  0.00  0.00     0.199 HD
ENDROOT
BRANCH   1   7
ATOM      7  C   UNL d   1      25.755 -18.064  -0.314  0.00  0.00     0.115 C 
ATOM      8  C   UNL d   1      26.666 -18.148   0.921  0.00  0.00     0.037 C 
BRANCH   7   9
ATOM      9  C   UNL d   1      26.389 -17.075  -1.306  0.00  0.00    -0.033 A 
ATOM     10  C   UNL d   1      27.762 -16.791  -1.283  0.00  0.00     0.012 A 
ATOM     11  C   UNL d   1      28.309 -15.755  -2.072  0.00  0.00     0.040 A 
ATOM     12  C   UNL d   1      27.532 -15.021  -2.994  0.00  0.00     0.101 A 
ATOM     13  C   UNL d   1      26.169 -15.355  -3.074  0.00  0.00     0.102 A 
ATOM     14  C   UNL d   1      25.637 -16.359  -2.237  0.00  0.00     0.049 A 
BRANCH  12  15
ATOM     15  O   UNL d   1      28.291 -14.270  -3.863  0.00  0.00    -0.353 OA
ATOM     16  C   UNL d   1      28.941 -14.838  -5.000  0.00  0.00     0.210 C 
ENDBRANCH  12  15
BRANCH  13  17
ATOM     17  O   UNL d   1      25.150 -14.920  -3.887  0.00  0.00    -0.353 OA
ATOM     18  C   UNL d   1      24.926 -13.545  -3.872  0.00  0.00     0.210 C 
ENDBRANCH  13  17
ENDBRANCH   7   9
ENDBRANCH   1   7
BRANCH   4  19
ATOM     19  O   UNL d   1      20.941 -17.605  -0.904  0.00  0.00    -0.272 OA
BRANCH  19  20
ATOM     20  C   UNL d   1      20.667 -18.970  -1.220  0.00  0.00     0.240 C 
BRANCH  20  21
ATOM     21  C   UNL d   1      20.061 -19.699  -0.042  0.00  0.00    -0.032 A 
ATOM     22  C   UNL d   1      18.854 -20.402  -0.184  0.00  0.00     0.009 A 
ATOM     23  C   UNL d   1      18.174 -20.879   0.940  0.00  0.00     0.001 A 
ATOM     24  C   UNL d   1      18.733 -20.735   2.208  0.00  0.00     0.000 A 
ATOM     25  C   UNL d   1      19.957 -20.085   2.357  0.00  0.00     0.001 A 
ATOM     26  C   UNL d   1      20.612 -19.562   1.241  0.00  0.00     0.009 A 
ENDBRANCH  20  21
ENDBRANCH  19  20
ENDBRANCH   4  19
TORSDOF 7
ENDMDL
MODEL 2
REMARK VINA RESULT:    -8.379      1.290      2.102
REMARK INTER + INTRA:         -11.156
REMARK INTER:                 -10.468
REMARK INTRA:                  -0.688
REMARK CONF_INDEPENDENT:        2.088
REMARK UNBOUND:                -0.688
REMARK  7 active torsions:
REMARK  status: ('A' for Active; 'I' for Inactive)
REMARK    1  A    between atoms: O_2  and  C_3 
REMARK    2  A    between atoms: C_6  and  C_7 
REMARK    3  A    between atoms: C_7  and  N_9 
REMARK       I    between atoms: N_9  and  C_10 
REMARK       I    between atoms: C_10  and  N_12 
REMARK    4  A    between atoms: N_12  and  O_13 
REMARK    5  A    between atoms: O_13  and  C_14 
REMARK    6  A    between atoms: C_14  and  C_15 
REMARK    7  A    between atoms: C_22  and  O_23 
ROOT
ATOM      1  N   UNL d   1      25.495 -17.747  -0.181  0.00  0.00    -0.333 N 
ATOM      2  C   UNL d   1      24.455 -18.077  -1.016  0.00  0.00     0.340 C 
ATOM      3  O   UNL d   1      24.395 -17.693  -2.188  0.00  0.00    -0.245 OA
ATOM      4  N   UNL d   1      23.518 -18.890  -0.425  0.00  0.00    -0.216 N 
ATOM      5  H   UNL d   1      25.445 -18.105   0.754  0.00  0.00     0.165 HD
ATOM      6  H   UNL d   1      23.525 -19.168   0.546  0.00  0.00     0.199 HD
ENDROOT
BRANCH   1   7
ATOM      7  C   UNL d   1      26.650 -16.930  -0.598  0.00  0.00     0.115 C 
ATOM      8  C   UNL d   1      27.166 -16.111   0.597  0.00  0.00     0.037 C 
BRANCH   7   9
ATOM      9  C   UNL d   1      26.354 -15.955  -1.750  0.00  0.00    -0.033 A 
ATOM     10  C   UNL d   1      25.319 -15.013  -1.667  0.00  0.00     0.012 A 
ATOM     11  C   UNL d   1      24.936 -14.245  -2.788  0.00  0.00     0.040 A 
ATOM     12  C   UNL d   1      25.629 -14.308  -4.015  0.00  0.00     0.101 A 
ATOM     13  C   UNL d   1      26.715 -15.198  -4.079  0.00  0.00     0.102 A 
ATOM     14  C   UNL d   1      27.045 -15.991  -2.961  0.00  0.00     0.049 A 
BRANCH  12  15
ATOM     15  O   UNL d   1      25.294 -13.289  -4.878  0.00  0.00    -0.353 OA
ATOM     16  C   UNL d   1      25.903 -11.999  -4.814  0.00  0.00     0.210 C 
ENDBRANCH  12  15
BRANCH  13  17
ATOM     17  O   UNL d   1      27.644 -15.465  -5.057  0.00  0.00    -0.353 OA
ATOM     18  C   UNL d   1      27.812 -14.458  -6.004  0.00  0.00     0.210 C 
ENDBRANCH  13  17
ENDBRANCH   7   9
ENDBRANCH   1   7
BRANCH   4  19
ATOM     19  O   UNL d   1      22.423 -19.261  -1.249  0.00  0.00    -0.272 OA
BRANCH  19  20
ATOM     20  C   UNL d   1      21.238 -18.567  -0.863  0.00  0.00     0.240 C 
BRANCH  20  21
ATOM     21  C   UNL d   1      20.358 -19.424   0.020  0.00  0.00    -0.032 A 
ATOM     22  C   UNL d   1      19.269 -20.123  -0.524  0.00  0.00     0.009 A 
ATOM     23  C   UNL d   1      18.324 -20.724   0.311  0.00  0.00     0.001 A 
ATOM     24  C   UNL d   1      18.501 -20.709   1.693  0.00  0.00     0.000 A 
ATOM     25  C   UNL d   1      19.606 -20.063   2.243  0.00  0.00     0.001 A 
ATOM     26  C   UNL d   1      20.524 -19.416   1.412  0.00  0.00     0.009 A 
ENDBRANCH  20  21
ENDBRANCH  19  20
ENDBRANCH   4  19
TORSDOF 7
ENDMDL
MODEL 3
REMARK VINA RESULT:    -7.640      4.568      8.004
REMARK INTER + INTRA:         -10.635
REMARK INTER:                  -9.728
REMARK INTRA:                  -0.907
REMARK CONF_INDEPENDENT:        2.088
REMARK UNBOUND:                -0.907
REMARK  7 active torsions:
REMARK  status: ('A' for Active; 'I' for Inactive)
REMARK    1  A    between atoms: O_2  and  C_3 
REMARK    2  A    between atoms: C_6  and  C_7 
REMARK    3  A    between atoms: C_7  and  N_9 
REMARK       I    between atoms: N_9  and  C_10 
REMARK       I    between atoms: C_10  and  N_12 
REMARK    4  A    between atoms: N_12  and  O_13 
REMARK    5  A    between atoms: O_13  and  C_14 
REMARK    6  A    between atoms: C_14  and  C_15 
REMARK    7  A    between atoms: C_22  and  O_23 
ROOT
ATOM      1  N   UNL d   1      28.544 -16.445   0.605  0.00  0.00    -0.333 N 
ATOM      2  C   UNL d   1      28.081 -15.226   1.039  0.00  0.00     0.340 C 
ATOM      3  O   UNL d   1      27.175 -14.615   0.464  0.00  0.00    -0.245 OA
ATOM      4  N   UNL d   1      28.703 -14.782   2.180  0.00  0.00    -0.216 N 
ATOM      5  H   UNL d   1      29.286 -16.854   1.141  0.00  0.00     0.165 HD
ATOM      6  H   UNL d   1      29.480 -15.243   2.632  0.00  0.00     0.199 HD
ENDROOT
BRANCH   1   7
ATOM      7  C   UNL d   1      27.998 -17.156  -0.566  0.00  0.00     0.115 C 
ATOM      8  C   UNL d   1      28.547 -16.529  -1.858  0.00  0.00     0.037 C 
BRANCH   7   9
ATOM      9  C   UNL d   1      26.463 -17.152  -0.651  0.00  0.00    -0.033 A 
ATOM     10  C   UNL d   1      25.688 -18.122   0.003  0.00  0.00     0.012 A 
ATOM     11  C   UNL d   1      24.298 -18.222  -0.222  0.00  0.00     0.040 A 
ATOM     12  C   UNL d   1      23.598 -17.301  -1.030  0.00  0.00     0.101 A 
ATOM     13  C   UNL d   1      24.360 -16.282  -1.627  0.00  0.00     0.102 A 
ATOM     14  C   UNL d   1      25.756 -16.235  -1.428  0.00  0.00     0.049 A 
BRANCH  12  15
ATOM     15  O   UNL d   1      22.231 -17.391  -0.891  0.00  0.00    -0.353 OA
ATOM     16  C   UNL d   1      21.558 -18.639  -0.725  0.00  0.00     0.210 C 
ENDBRANCH  12  15
BRANCH  13  17
ATOM     17  O   UNL d   1      24.021 -15.194  -2.395  0.00  0.00    -0.353 OA
ATOM     18  C   UNL d   1      25.082 -14.586  -3.063  0.00  0.00     0.210 C 
ENDBRANCH  13  17
ENDBRANCH   7   9
ENDBRANCH   1   7
BRANCH   4  19
ATOM     19  O   UNL d   1      28.257 -13.526   2.671  0.00  0.00    -0.272 OA
BRANCH  19  20
ATOM     20  C   UNL d   1      27.356 -13.698   3.764  0.00  0.00     0.240 C 
BRANCH  20  21
ATOM     21  C   UNL d   1      28.088 -13.709   5.088  0.00  0.00    -0.032 A 
ATOM     22  C   UNL d   1      27.780 -12.765   6.080  0.00  0.00     0.009 A 
ATOM     23  C   UNL d   1      28.600 -12.621   7.202  0.00  0.00     0.001 A 
ATOM     24  C   UNL d   1      29.685 -13.475   7.388  0.00  0.00     0.000 A 
ATOM     25  C   UNL d   1      29.972 -14.451   6.436  0.00  0.00     0.001 A 
ATOM     26  C   UNL d   1      29.184 -14.561   5.288  0.00  0.00     0.009 A 
ENDBRANCH  20  21
ENDBRANCH  19  20
ENDBRANCH   4  19
TORSDOF 7
ENDMDL
MODEL 4
REMARK VINA RESULT:    -7.533      4.919      8.170
REMARK INTER + INTRA:         -10.496
REMARK INTER:                  -9.621
REMARK INTRA:                  -0.875
REMARK CONF_INDEPENDENT:        2.088
REMARK UNBOUND:                -0.875
REMARK  7 active torsions:
REMARK  status: ('A' for Active; 'I' for Inactive)
REMARK    1  A    between atoms: O_2  and  C_3 
REMARK    2  A    between atoms: C_6  and  C_7 
REMARK    3  A    between atoms: C_7  and  N_9 
REMARK       I    between atoms: N_9  and  C_10 
REMARK       I    between atoms: C_10  and  N_12 
REMARK    4  A    between atoms: N_12  and  O_13 
REMARK    5  A    between atoms: O_13  and  C_14 
REMARK    6  A    between atoms: C_14  and  C_15 
REMARK    7  A    between atoms: C_22  and  O_23 
ROOT
ATOM      1  N   UNL d   1      28.472 -16.075   0.720  0.00  0.00    -0.333 N 
ATOM      2  C   UNL d   1      27.912 -14.992   1.353  0.00  0.00     0.340 C 
ATOM      3  O   UNL d   1      26.970 -14.353   0.872  0.00  0.00    -0.245 OA
ATOM      4  N   UNL d   1      28.482 -14.718   2.572  0.00  0.00    -0.216 N 
ATOM      5  H   UNL d   1      29.235 -16.520   1.193  0.00  0.00     0.165 HD
ATOM      6  H   UNL d   1      29.286 -15.196   2.954  0.00  0.00     0.199 HD
ENDROOT
BRANCH   1   7
ATOM      7  C   UNL d   1      27.997 -16.599  -0.575  0.00  0.00     0.115 C 
ATOM      8  C   UNL d   1      28.444 -15.663  -1.710  0.00  0.00     0.037 C 
BRANCH   7   9
ATOM      9  C   UNL d   1      26.472 -16.767  -0.670  0.00  0.00    -0.033 A 
ATOM     10  C   UNL d   1      25.810 -17.830  -0.040  0.00  0.00     0.012 A 
ATOM     11  C   UNL d   1      24.440 -18.084  -0.275  0.00  0.00     0.040 A 
ATOM     12  C   UNL d   1      23.645 -17.232  -1.071  0.00  0.00     0.101 A 
ATOM     13  C   UNL d   1      24.289 -16.122  -1.644  0.00  0.00     0.102 A 
ATOM     14  C   UNL d   1      25.669 -15.921  -1.435  0.00  0.00     0.049 A 
BRANCH  12  15
ATOM     15  O   UNL d   1      22.296 -17.479  -0.943  0.00  0.00    -0.353 OA
ATOM     16  C   UNL d   1      21.762 -18.801  -0.873  0.00  0.00     0.210 C 
ENDBRANCH  12  15
BRANCH  13  17
ATOM     17  O   UNL d   1      23.832 -15.065  -2.394  0.00  0.00    -0.353 OA
ATOM     18  C   UNL d   1      24.788 -14.456  -3.204  0.00  0.00     0.210 C 
ENDBRANCH  13  17
ENDBRANCH   7   9
ENDBRANCH   1   7
BRANCH   4  19
ATOM     19  O   UNL d   1      27.936 -13.607   3.268  0.00  0.00    -0.272 OA
BRANCH  19  20
ATOM     20  C   UNL d   1      27.335 -14.022   4.495  0.00  0.00     0.240 C 
BRANCH  20  21
ATOM     21  C   UNL d   1      28.146 -13.569   5.688  0.00  0.00    -0.032 A 
ATOM     22  C   UNL d   1      29.173 -14.379   6.201  0.00  0.00     0.009 A 
ATOM     23  C   UNL d   1      29.766 -14.079   7.429  0.00  0.00     0.001 A 
ATOM     24  C   UNL d   1      29.404 -12.923   8.117  0.00  0.00     0.000 A 
ATOM     25  C   UNL d   1      28.423 -12.083   7.594  0.00  0.00     0.001 A 
ATOM     26  C   UNL d   1      27.791 -12.409   6.392  0.00  0.00     0.009 A 
ENDBRANCH  20  21
ENDBRANCH  19  20
ENDBRANCH   4  19
TORSDOF 7
ENDMDL
MODEL 5
REMARK VINA RESULT:    -7.319      4.690      7.424
REMARK INTER + INTRA:         -10.338
REMARK INTER:                  -9.407
REMARK INTRA:                  -0.930
REMARK CONF_INDEPENDENT:        2.088
REMARK UNBOUND:                -0.930
REMARK  7 active torsions:
REMARK  status: ('A' for Active; 'I' for Inactive)
REMARK    1  A    between atoms: O_2  and  C_3 
REMARK    2  A    between atoms: C_6  and  C_7 
REMARK    3  A    between atoms: C_7  and  N_9 
REMARK       I    between atoms: N_9  and  C_10 
REMARK       I    between atoms: C_10  and  N_12 
REMARK    4  A    between atoms: N_12  and  O_13 
REMARK    5  A    between atoms: O_13  and  C_14 
REMARK    6  A    between atoms: C_14  and  C_15 
REMARK    7  A    between atoms: C_22  and  O_23 
ROOT
ATOM      1  N   UNL d   1      27.592 -16.092   0.942  0.00  0.00    -0.333 N 
ATOM      2  C   UNL d   1      27.638 -14.780   1.347  0.00  0.00     0.340 C 
ATOM      3  O   UNL d   1      26.843 -13.928   0.937  0.00  0.00    -0.245 OA
ATOM      4  N   UNL d   1      28.628 -14.527   2.265  0.00  0.00    -0.216 N 
ATOM      5  H   UNL d   1      28.286 -16.701   1.331  0.00  0.00     0.165 HD
ATOM      6  H   UNL d   1      29.318 -15.199   2.570  0.00  0.00     0.199 HD
ENDROOT
BRANCH   1   7
ATOM      7  C   UNL d   1      26.584 -16.622   0.004  0.00  0.00     0.115 C 
ATOM      8  C   UNL d   1      26.522 -18.154   0.119  0.00  0.00     0.037 C 
BRANCH   7   9
ATOM      9  C   UNL d   1      26.841 -16.267  -1.470  0.00  0.00    -0.033 A 
ATOM     10  C   UNL d   1      28.105 -16.428  -2.055  0.00  0.00     0.012 A 
ATOM     11  C   UNL d   1      28.382 -15.935  -3.349  0.00  0.00     0.040 A 
ATOM     12  C   UNL d   1      27.387 -15.349  -4.159  0.00  0.00     0.101 A 
ATOM     13  C   UNL d   1      26.099 -15.254  -3.604  0.00  0.00     0.102 A 
ATOM     14  C   UNL d   1      25.861 -15.707  -2.289  0.00  0.00     0.049 A 
BRANCH  12  15
ATOM     15  O   UNL d   1      27.776 -15.202  -5.472  0.00  0.00    -0.353 OA
ATOM     16  C   UNL d   1      28.018 -13.925  -6.061  0.00  0.00     0.210 C 
ENDBRANCH  12  15
BRANCH  13  17
ATOM     17  O   UNL d   1      24.896 -14.824  -4.110  0.00  0.00    -0.353 OA
ATOM     18  C   UNL d   1      24.780 -13.444  -4.270  0.00  0.00     0.210 C 
ENDBRANCH  13  17
ENDBRANCH   7   9
ENDBRANCH   1   7
BRANCH   4  19
ATOM     19  O   UNL d   1      28.715 -13.184   2.718  0.00  0.00    -0.272 OA
BRANCH  19  20
ATOM     20  C   UNL d   1      27.611 -12.860   3.563  0.00  0.00     0.240 C 
BRANCH  20  21
ATOM     21  C   UNL d   1      27.942 -13.099   5.019  0.00  0.00    -0.032 A 
ATOM     22  C   UNL d   1      27.782 -12.073   5.964  0.00  0.00     0.009 A 
ATOM     23  C   UNL d   1      28.298 -12.210   7.255  0.00  0.00     0.001 A 
ATOM     24  C   UNL d   1      28.902 -13.404   7.643  0.00  0.00     0.000 A 
ATOM     25  C   UNL d   1      29.021 -14.450   6.730  0.00  0.00     0.001 A 
ATOM     26  C   UNL d   1      28.552 -14.295   5.424  0.00  0.00     0.009 A 
ENDBRANCH  20  21
ENDBRANCH  19  20
ENDBRANCH   4  19
TORSDOF 7
ENDMDL
MODEL 6
REMARK VINA RESULT:    -7.119      6.222      8.050
REMARK INTER + INTRA:         -10.172
REMARK INTER:                  -9.207
REMARK INTRA:                  -0.966
REMARK CONF_INDEPENDENT:        2.088
REMARK UNBOUND:                -0.966
REMARK  7 active torsions:
REMARK  status: ('A' for Active; 'I' for Inactive)
REMARK    1  A    between atoms: O_2  and  C_3 
REMARK    2  A    between atoms: C_6  and  C_7 
REMARK    3  A    between atoms: C_7  and  N_9 
REMARK       I    between atoms: N_9  and  C_10 
REMARK       I    between atoms: C_10  and  N_12 
REMARK    4  A    between atoms: N_12  and  O_13 
REMARK    5  A    between atoms: O_13  and  C_14 
REMARK    6  A    between atoms: C_14  and  C_15 
REMARK    7  A    between atoms: C_22  and  O_23 
ROOT
ATOM      1  N   UNL d   1      28.303 -14.821   2.055  0.00  0.00    -0.333 N 
ATOM      2  C   UNL d   1      27.625 -15.381   0.999  0.00  0.00     0.340 C 
ATOM      3  O   UNL d   1      26.624 -14.859   0.497  0.00  0.00    -0.245 OA
ATOM      4  N   UNL d   1      28.189 -16.551   0.548  0.00  0.00    -0.216 N 
ATOM      5  H   UNL d   1      29.100 -15.328   2.390  0.00  0.00     0.165 HD
ATOM      6  H   UNL d   1      28.973 -17.017   0.980  0.00  0.00     0.199 HD
ENDROOT
BRANCH   1   7
ATOM      7  C   UNL d   1      27.926 -13.538   2.678  0.00  0.00     0.115 C 
ATOM      8  C   UNL d   1      28.661 -12.384   1.976  0.00  0.00     0.037 C 
BRANCH   7   9
ATOM      9  C   UNL d   1      28.232 -13.451   4.182  0.00  0.00    -0.033 A 
ATOM     10  C   UNL d   1      28.576 -14.587   4.929  0.00  0.00     0.012 A 
ATOM     11  C   UNL d   1      28.679 -14.535   6.337  0.00  0.00     0.040 A 
ATOM     12  C   UNL d   1      28.544 -13.329   7.056  0.00  0.00     0.101 A 
ATOM     13  C   UNL d   1      28.273 -12.174   6.303  0.00  0.00     0.102 A 
ATOM     14  C   UNL d   1      28.123 -12.262   4.904  0.00  0.00     0.049 A 
BRANCH  12  15
ATOM     15  O   UNL d   1      28.962 -13.431   8.364  0.00  0.00    -0.353 OA
ATOM     16  C   UNL d   1      30.312 -13.736   8.716  0.00  0.00     0.210 C 
ENDBRANCH  12  15
BRANCH  13  17
ATOM     17  O   UNL d   1      28.155 -10.847   6.643  0.00  0.00    -0.353 OA
ATOM     18  C   UNL d   1      29.276 -10.291   7.255  0.00  0.00     0.210 C 
ENDBRANCH  13  17
ENDBRANCH   7   9
ENDBRANCH   1   7
BRANCH   4  19
ATOM     19  O   UNL d   1      27.526 -17.168  -0.545  0.00  0.00    -0.272 OA
BRANCH  19  20
ATOM     20  C   UNL d   1      26.643 -18.194  -0.091  0.00  0.00     0.240 C 
BRANCH  20  21
ATOM     21  C   UNL d   1      25.201 -17.858  -0.397  0.00  0.00    -0.032 A 
ATOM     22  C   UNL d   1      24.881 -16.734  -1.176  0.00  0.00     0.009 A 
ATOM     23  C   UNL d   1      23.561 -16.288  -1.270  0.00  0.00     0.001 A 
ATOM     24  C   UNL d   1      22.535 -17.008  -0.659  0.00  0.00     0.000 A 
ATOM     25  C   UNL d   1      22.833 -18.155   0.074  0.00  0.00     0.001 A 
ATOM     26  C   UNL d   1      24.159 -18.572   0.212  0.00  0.00     0.009 A 
ENDBRANCH  20  21
ENDBRANCH  19  20
ENDBRANCH   4  19
TORSDOF 7
ENDMDL
MODEL 7
REMARK VINA RESULT:    -7.006      4.732      7.377
REMARK INTER + INTRA:         -10.288
REMARK INTER:                  -9.094
REMARK INTRA:                  -1.194
REMARK CONF_INDEPENDENT:        2.088
REMARK UNBOUND:                -1.194
REMARK  7 active torsions:
REMARK  status: ('A' for Active; 'I' for Inactive)
REMARK    1  A    between atoms: O_2  and  C_3 
REMARK    2  A    between atoms: C_6  and  C_7 
REMARK    3  A    between atoms: C_7  and  N_9 
REMARK       I    between atoms: N_9  and  C_10 
REMARK       I    between atoms: C_10  and  N_12 
REMARK    4  A    between atoms: N_12  and  O_13 
REMARK    5  A    between atoms: O_13  and  C_14 
REMARK    6  A    between atoms: C_14  and  C_15 
REMARK    7  A    between atoms: C_22  and  O_23 
ROOT
ATOM      1  N   UNL d   1      28.350 -16.211   0.574  0.00  0.00    -0.333 N 
ATOM      2  C   UNL d   1      28.993 -15.004   0.704  0.00  0.00     0.340 C 
ATOM      3  O   UNL d   1      28.549 -13.957   0.221  0.00  0.00    -0.245 OA
ATOM      4  N   UNL d   1      30.149 -15.079   1.442  0.00  0.00    -0.216 N 
ATOM      5  H   UNL d   1      28.798 -17.001   0.999  0.00  0.00     0.165 HD
ATOM      6  H   UNL d   1      30.553 -15.933   1.798  0.00  0.00     0.199 HD
ENDROOT
BRANCH   1   7
ATOM      7  C   UNL d   1      27.064 -16.380  -0.127  0.00  0.00     0.115 C 
ATOM      8  C   UNL d   1      26.555 -17.820   0.059  0.00  0.00     0.037 C 
BRANCH   7   9
ATOM      9  C   UNL d   1      27.120 -16.088  -1.636  0.00  0.00    -0.033 A 
ATOM     10  C   UNL d   1      28.288 -16.301  -2.382  0.00  0.00     0.012 A 
ATOM     11  C   UNL d   1      28.392 -15.866  -3.721  0.00  0.00     0.040 A 
ATOM     12  C   UNL d   1      27.305 -15.287  -4.410  0.00  0.00     0.101 A 
ATOM     13  C   UNL d   1      26.109 -15.140  -3.687  0.00  0.00     0.102 A 
ATOM     14  C   UNL d   1      26.047 -15.536  -2.335  0.00  0.00     0.049 A 
BRANCH  12  15
ATOM     15  O   UNL d   1      27.512 -15.201  -5.769  0.00  0.00    -0.353 OA
ATOM     16  C   UNL d   1      28.311 -14.175  -6.359  0.00  0.00     0.210 C 
ENDBRANCH  12  15
BRANCH  13  17
ATOM     17  O   UNL d   1      24.855 -14.700  -4.041  0.00  0.00    -0.353 OA
ATOM     18  C   UNL d   1      24.746 -13.327  -4.245  0.00  0.00     0.210 C 
ENDBRANCH  13  17
ENDBRANCH   7   9
ENDBRANCH   1   7
BRANCH   4  19
ATOM     19  O   UNL d   1      30.850 -13.855   1.608  0.00  0.00    -0.272 OA
BRANCH  19  20
ATOM     20  C   UNL d   1      31.084 -13.586   2.991  0.00  0.00     0.240 C 
BRANCH  20  21
ATOM     21  C   UNL d   1      29.822 -13.752   3.807  0.00  0.00    -0.032 A 
ATOM     22  C   UNL d   1      29.809 -14.587   4.936  0.00  0.00     0.009 A 
ATOM     23  C   UNL d   1      28.602 -14.925   5.554  0.00  0.00     0.001 A 
ATOM     24  C   UNL d   1      27.407 -14.366   5.107  0.00  0.00     0.000 A 
ATOM     25  C   UNL d   1      27.413 -13.495   4.019  0.00  0.00     0.001 A 
ATOM     26  C   UNL d   1      28.611 -13.197   3.368  0.00  0.00     0.009 A 
ENDBRANCH  20  21
ENDBRANCH  19  20
ENDBRANCH   4  19
TORSDOF 7
ENDMDL
MODEL 8
REMARK VINA RESULT:    -6.838      3.873      6.808
REMARK INTER + INTRA:          -9.935
REMARK INTER:                  -8.926
REMARK INTRA:                  -1.009
REMARK CONF_INDEPENDENT:        2.088
REMARK UNBOUND:                -1.009
REMARK  7 active torsions:
REMARK  status: ('A' for Active; 'I' for Inactive)
REMARK    1  A    between atoms: O_2  and  C_3 
REMARK    2  A    between atoms: C_6  and  C_7 
REMARK    3  A    between atoms: C_7  and  N_9 
REMARK       I    between atoms: N_9  and  C_10 
REMARK       I    between atoms: C_10  and  N_12 
REMARK    4  A    between atoms: N_12  and  O_13 
REMARK    5  A    between atoms: O_13  and  C_14 
REMARK    6  A    between atoms: C_14  and  C_15 
REMARK    7  A    between atoms: C_22  and  O_23 
ROOT
ATOM      1  N   UNL d   1      28.658 -14.380  -4.627  0.00  0.00    -0.333 N 
ATOM      2  C   UNL d   1      27.376 -14.834  -4.820  0.00  0.00     0.340 C 
ATOM      3  O   UNL d   1      27.061 -15.555  -5.773  0.00  0.00    -0.245 OA
ATOM      4  N   UNL d   1      26.501 -14.430  -3.841  0.00  0.00    -0.216 N 
ATOM      5  H   UNL d   1      28.806 -13.796  -3.826  0.00  0.00     0.165 HD
ATOM      6  H   UNL d   1      26.729 -13.798  -3.087  0.00  0.00     0.199 HD
ENDROOT
BRANCH   1   7
ATOM      7  C   UNL d   1      29.788 -14.722  -5.511  0.00  0.00     0.115 C 
ATOM      8  C   UNL d   1      29.539 -14.152  -6.918  0.00  0.00     0.037 C 
BRANCH   7   9
ATOM      9  C   UNL d   1      30.050 -16.231  -5.650  0.00  0.00    -0.033 A 
ATOM     10  C   UNL d   1      29.999 -17.090  -4.543  0.00  0.00     0.012 A 
ATOM     11  C   UNL d   1      30.413 -18.436  -4.640  0.00  0.00     0.040 A 
ATOM     12  C   UNL d   1      30.803 -19.016  -5.867  0.00  0.00     0.101 A 
ATOM     13  C   UNL d   1      30.783 -18.176  -6.994  0.00  0.00     0.102 A 
ATOM     14  C   UNL d   1      30.414 -16.822  -6.860  0.00  0.00     0.049 A 
BRANCH  12  15
ATOM     15  O   UNL d   1      30.888 -20.389  -5.812  0.00  0.00    -0.353 OA
ATOM     16  C   UNL d   1      30.625 -21.126  -4.618  0.00  0.00     0.210 C 
ENDBRANCH  12  15
BRANCH  13  17
ATOM     17  O   UNL d   1      31.018 -18.405  -8.329  0.00  0.00    -0.353 OA
ATOM     18  C   UNL d   1      31.009 -19.744  -8.712  0.00  0.00     0.210 C 
ENDBRANCH  13  17
ENDBRANCH   7   9
ENDBRANCH   1   7
BRANCH   4  19
ATOM     19  O   UNL d   1      25.162 -14.877  -3.995  0.00  0.00    -0.272 OA
BRANCH  19  20
ATOM     20  C   UNL d   1      24.465 -14.832  -2.750  0.00  0.00     0.240 C 
BRANCH  20  21
ATOM     21  C   UNL d   1      24.765 -16.050  -1.905  0.00  0.00    -0.032 A 
ATOM     22  C   UNL d   1      23.726 -16.750  -1.271  0.00  0.00     0.009 A 
ATOM     23  C   UNL d   1      24.010 -17.725  -0.312  0.00  0.00     0.001 A 
ATOM     24  C   UNL d   1      25.332 -18.072  -0.038  0.00  0.00     0.000 A 
ATOM     25  C   UNL d   1      26.371 -17.421  -0.699  0.00  0.00     0.001 A 
ATOM     26  C   UNL d   1      26.090 -16.410  -1.620  0.00  0.00     0.009 A 
ENDBRANCH  20  21
ENDBRANCH  19  20
ENDBRANCH   4  19
TORSDOF 7
ENDMDL
MODEL 9
REMARK VINA RESULT:    -6.642      3.273      8.615
REMARK INTER + INTRA:          -9.851
REMARK INTER:                  -8.730
REMARK INTRA:                  -1.121
REMARK CONF_INDEPENDENT:        2.088
REMARK UNBOUND:                -1.121
REMARK  7 active torsions:
REMARK  status: ('A' for Active; 'I' for Inactive)
REMARK    1  A    between atoms: O_2  and  C_3 
REMARK    2  A    between atoms: C_6  and  C_7 
REMARK    3  A    between atoms: C_7  and  N_9 
REMARK       I    between atoms: N_9  and  C_10 
REMARK       I    between atoms: C_10  and  N_12 
REMARK    4  A    between atoms: N_12  and  O_13 
REMARK    5  A    between atoms: O_13  and  C_14 
REMARK    6  A    between atoms: C_14  and  C_15 
REMARK    7  A    between atoms: C_22  and  O_23 
ROOT
ATOM      1  N   UNL d   1      27.044 -13.834  -4.289  0.00  0.00    -0.333 N 
ATOM      2  C   UNL d   1      27.379 -14.664  -5.331  0.00  0.00     0.340 C 
ATOM      3  O   UNL d   1      26.639 -15.573  -5.722  0.00  0.00    -0.245 OA
ATOM      4  N   UNL d   1      28.591 -14.361  -5.902  0.00  0.00    -0.216 N 
ATOM      5  H   UNL d   1      27.717 -13.131  -4.047  0.00  0.00     0.165 HD
ATOM      6  H   UNL d   1      29.230 -13.657  -5.562  0.00  0.00     0.199 HD
ENDROOT
BRANCH   1   7
ATOM      7  C   UNL d   1      25.771 -13.922  -3.550  0.00  0.00     0.115 C 
ATOM      8  C   UNL d   1      25.531 -12.619  -2.770  0.00  0.00     0.037 C 
BRANCH   7   9
ATOM      9  C   UNL d   1      25.695 -15.092  -2.555  0.00  0.00    -0.033 A 
ATOM     10  C   UNL d   1      26.841 -15.800  -2.166  0.00  0.00     0.012 A 
ATOM     11  C   UNL d   1      26.746 -16.981  -1.397  0.00  0.00     0.040 A 
ATOM     12  C   UNL d   1      25.515 -17.456  -0.897  0.00  0.00     0.101 A 
ATOM     13  C   UNL d   1      24.372 -16.706  -1.223  0.00  0.00     0.102 A 
ATOM     14  C   UNL d   1      24.488 -15.559  -2.036  0.00  0.00     0.049 A 
BRANCH  12  15
ATOM     15  O   UNL d   1      25.663 -18.438   0.058  0.00  0.00    -0.353 OA
ATOM     16  C   UNL d   1      26.657 -18.370   1.080  0.00  0.00     0.210 C 
ENDBRANCH  12  15
BRANCH  13  17
ATOM     17  O   UNL d   1      23.051 -16.818  -0.861  0.00  0.00    -0.353 OA
ATOM     18  C   UNL d   1      22.539 -18.114  -0.879  0.00  0.00     0.210 C 
ENDBRANCH  13  17
ENDBRANCH   7   9
ENDBRANCH   1   7
BRANCH   4  19
ATOM     19  O   UNL d   1      28.980 -15.190  -6.987  0.00  0.00    -0.272 OA
BRANCH  19  20
ATOM     20  C   UNL d   1      30.366 -15.522  -6.901  0.00  0.00     0.240 C 
BRANCH  20  21
ATOM     21  C   UNL d   1      30.567 -16.910  -6.336  0.00  0.00    -0.032 A 
ATOM     22  C   UNL d   1      30.780 -18.003  -7.191  0.00  0.00     0.009 A 
ATOM     23  C   UNL d   1      30.736 -19.310  -6.697  0.00  0.00     0.001 A 
ATOM     24  C   UNL d   1      30.565 -19.535  -5.332  0.00  0.00     0.000 A 
ATOM     25  C   UNL d   1      30.404 -18.456  -4.465  0.00  0.00     0.001 A 
ATOM     26  C   UNL d   1      30.396 -17.153  -4.965  0.00  0.00     0.009 A 
ENDBRANCH  20  21
ENDBRANCH  19  20
ENDBRANCH   4  19
TORSDOF 7
ENDMDL
