MODEL 1
REMARK VINA RESULT:    -7.391      0.000      0.000
REMARK INTER + INTRA:         -11.447
REMARK INTER:                  -9.479
REMARK INTRA:                  -1.967
REMARK CONF_INDEPENDENT:        2.088
REMARK UNBOUND:                -1.967
REMARK  7 active torsions:
REMARK  status: ('A' for Active; 'I' for Inactive)
REMARK    1  A    between atoms: C_2  and  C_3 
REMARK    2  A    between atoms: C_3  and  C_4 
REMARK    3  A    between atoms: C_4  and  N_5 
REMARK    4  A    between atoms: C_11  and  C_12 
REMARK    5  A    between atoms: C_17  and  O_18 
REMARK    6  A    between atoms: C_20  and  C_21 
REMARK    7  A    between atoms: C_25  and  O_26 
ROOT
ATOM      1  N   UNL d   1      24.704 -16.875  -0.841  0.00  0.00    -0.334 N 
ATOM      2  C   UNL d   1      23.680 -16.019  -1.280  0.00  0.00     0.273 A 
ATOM      3  O   UNL d   1      22.526 -15.951  -0.887  0.00  0.00    -0.266 OA
ATOM      4  C   UNL d   1      24.299 -15.240  -2.291  0.00  0.00     0.129 A 
ATOM      5  N   UNL d   1      24.011 -14.267  -3.172  0.00  0.00    -0.272 N 
ATOM      6  N   UNL d   1      25.103 -13.910  -3.906  0.00  0.00    -0.173 NA
ATOM      7  C   UNL d   1      26.088 -14.744  -3.491  0.00  0.00     0.101 A 
ATOM      8  C   UNL d   1      25.609 -15.564  -2.464  0.00  0.00     0.034 A 
ATOM      9  C   UNL d   1      25.992 -16.659  -1.563  0.00  0.00     0.159 A 
ATOM     10  H   UNL d   1      23.129 -13.795  -3.342  0.00  0.00     0.189 HD
ENDROOT
BRANCH   7  11
ATOM     11  C   UNL d   1      27.435 -14.722  -4.047  0.00  0.00     0.028 A 
ATOM     12  C   UNL d   1      28.509 -14.323  -3.240  0.00  0.00     0.017 A 
ATOM     13  C   UNL d   1      29.818 -14.359  -3.729  0.00  0.00     0.001 A 
ATOM     14  C   UNL d   1      30.062 -14.772  -5.038  0.00  0.00     0.003 A 
ATOM     15  C   UNL d   1      29.000 -15.163  -5.858  0.00  0.00     0.037 A 
ATOM     16  C   UNL d   1      27.694 -15.151  -5.358  0.00  0.00     0.078 A 
BRANCH  16  17
ATOM     17  O   UNL d   1      26.655 -15.575  -6.145  0.00  0.00    -0.360 OA
ATOM     18  H   UNL d   1      25.816 -15.278  -5.762  0.00  0.00     0.217 HD
ENDBRANCH  16  17
ENDBRANCH   7  11
BRANCH   9  19
ATOM     19  C   UNL d   1      27.133 -16.198  -0.693  0.00  0.00    -0.028 A 
ATOM     20  C   UNL d   1      27.023 -15.163   0.249  0.00  0.00     0.010 A 
ATOM     21  C   UNL d   1      28.117 -14.813   1.046  0.00  0.00     0.003 A 
ATOM     22  C   UNL d   1      29.326 -15.506   0.932  0.00  0.00     0.036 A 
ATOM     23  C   UNL d   1      29.431 -16.544   0.016  0.00  0.00     0.066 A 
ATOM     24  C   UNL d   1      28.358 -16.878  -0.797  0.00  0.00     0.046 A 
BRANCH  23  25
ATOM     25  O   UNL d   1      30.565 -17.288  -0.126  0.00  0.00    -0.361 OA
ATOM     26  H   UNL d   1      30.625 -17.920   0.608  0.00  0.00     0.217 HD
ENDBRANCH  23  25
ENDBRANCH   9  19
BRANCH   1  27
ATOM     27  C   UNL d   1      24.556 -17.860   0.228  0.00  0.00     0.127 C 
BRANCH  27  28
ATOM     28  C   UNL d   1      23.609 -19.000  -0.145  0.00  0.00     0.020 C 
BRANCH  28  29
ATOM     29  C   UNL d   1      22.157 -18.736   0.228  0.00  0.00    -0.003 C 
ATOM     30  C   UNL d   1      21.280 -18.818  -1.013  0.00  0.00     0.005 C 
ENDBRANCH  28  29
ENDBRANCH  27  28
ENDBRANCH   1  27
TORSDOF 7
ENDMDL
MODEL 2
REMARK VINA RESULT:    -7.278      2.300      4.721
REMARK INTER + INTRA:         -11.392
REMARK INTER:                  -9.366
REMARK INTRA:                  -2.026
REMARK CONF_INDEPENDENT:        2.088
REMARK UNBOUND:                -2.026
REMARK  7 active torsions:
REMARK  status: ('A' for Active; 'I' for Inactive)
REMARK    1  A    between atoms: C_2  and  C_3 
REMARK    2  A    between atoms: C_3  and  C_4 
REMARK    3  A    between atoms: C_4  and  N_5 
REMARK    4  A    between atoms: C_11  and  C_12 
REMARK    5  A    between atoms: C_17  and  O_18 
REMARK    6  A    between atoms: C_20  and  C_21 
REMARK    7  A    between atoms: C_25  and  O_26 
ROOT
ATOM      1  N   UNL d   1      24.592 -16.757  -0.731  0.00  0.00    -0.334 N 
ATOM      2  C   UNL d   1      25.246 -17.929  -0.317  0.00  0.00     0.273 A 
ATOM      3  O   UNL d   1      24.775 -19.042  -0.144  0.00  0.00    -0.266 OA
ATOM      4  C   UNL d   1      26.595 -17.524  -0.148  0.00  0.00     0.129 A 
ATOM      5  N   UNL d   1      27.786 -18.016   0.233  0.00  0.00    -0.272 N 
ATOM      6  N   UNL d   1      28.768 -17.073   0.164  0.00  0.00    -0.173 NA
ATOM      7  C   UNL d   1      28.134 -15.939  -0.223  0.00  0.00     0.101 A 
ATOM      8  C   UNL d   1      26.781 -16.210  -0.448  0.00  0.00     0.034 A 
ATOM      9  C   UNL d   1      25.509 -15.584  -0.833  0.00  0.00     0.159 A 
ATOM     10  H   UNL d   1      28.024 -18.952   0.545  0.00  0.00     0.189 HD
ENDROOT
BRANCH   7  11
ATOM     11  C   UNL d   1      28.820 -14.665  -0.394  0.00  0.00     0.028 A 
ATOM     12  C   UNL d   1      28.647 -13.941  -1.582  0.00  0.00     0.017 A 
ATOM     13  C   UNL d   1      29.238 -12.685  -1.742  0.00  0.00     0.001 A 
ATOM     14  C   UNL d   1      30.028 -12.151  -0.725  0.00  0.00     0.003 A 
ATOM     15  C   UNL d   1      30.218 -12.866   0.461  0.00  0.00     0.037 A 
ATOM     16  C   UNL d   1      29.604 -14.111   0.629  0.00  0.00     0.078 A 
BRANCH  16  17
ATOM     17  O   UNL d   1      29.753 -14.794   1.808  0.00  0.00    -0.360 OA
ATOM     18  H   UNL d   1      29.644 -15.744   1.648  0.00  0.00     0.217 HD
ENDBRANCH  16  17
ENDBRANCH   7  11
BRANCH   9  19
ATOM     19  C   UNL d   1      25.647 -15.011  -2.220  0.00  0.00    -0.028 A 
ATOM     20  C   UNL d   1      25.835 -15.794  -3.369  0.00  0.00     0.010 A 
ATOM     21  C   UNL d   1      25.920 -15.192  -4.628  0.00  0.00     0.003 A 
ATOM     22  C   UNL d   1      25.794 -13.806  -4.760  0.00  0.00     0.036 A 
ATOM     23  C   UNL d   1      25.587 -13.031  -3.627  0.00  0.00     0.066 A 
ATOM     24  C   UNL d   1      25.530 -13.619  -2.372  0.00  0.00     0.046 A 
BRANCH  23  25
ATOM     25  O   UNL d   1      25.420 -11.679  -3.681  0.00  0.00    -0.361 OA
ATOM     26  H   UNL d   1      24.778 -11.466  -4.376  0.00  0.00     0.217 HD
ENDBRANCH  23  25
ENDBRANCH   9  19
BRANCH   1  27
ATOM     27  C   UNL d   1      23.171 -16.677  -1.061  0.00  0.00     0.127 C 
BRANCH  27  28
ATOM     28  C   UNL d   1      22.320 -17.658  -0.255  0.00  0.00     0.020 C 
BRANCH  28  29
ATOM     29  C   UNL d   1      21.863 -18.871  -1.053  0.00  0.00    -0.003 C 
ATOM     30  C   UNL d   1      20.369 -19.086  -0.862  0.00  0.00     0.005 C 
ENDBRANCH  28  29
ENDBRANCH  27  28
ENDBRANCH   1  27
TORSDOF 7
ENDMDL
MODEL 3
REMARK VINA RESULT:    -7.208      2.683      4.824
REMARK INTER + INTRA:         -11.411
REMARK INTER:                  -9.296
REMARK INTRA:                  -2.115
REMARK CONF_INDEPENDENT:        2.088
REMARK UNBOUND:                -2.115
REMARK  7 active torsions:
REMARK  status: ('A' for Active; 'I' for Inactive)
REMARK    1  A    between atoms: C_2  and  C_3 
REMARK    2  A    between atoms: C_3  and  C_4 
REMARK    3  A    between atoms: C_4  and  N_5 
REMARK    4  A    between atoms: C_11  and  C_12 
REMARK    5  A    between atoms: C_17  and  O_18 
REMARK    6  A    between atoms: C_20  and  C_21 
REMARK    7  A    between atoms: C_25  and  O_26 
ROOT
ATOM      1  N   UNL d   1      25.094 -17.052  -0.846  0.00  0.00    -0.334 N 
ATOM      2  C   UNL d   1      26.132 -17.680  -0.138  0.00  0.00     0.273 A 
ATOM      3  O   UNL d   1      26.261 -18.865   0.130  0.00  0.00    -0.266 OA
ATOM      4  C   UNL d   1      27.007 -16.616   0.197  0.00  0.00     0.129 A 
ATOM      5  N   UNL d   1      28.155 -16.385   0.857  0.00  0.00    -0.272 N 
ATOM      6  N   UNL d   1      28.511 -15.070   0.809  0.00  0.00    -0.173 NA
ATOM      7  C   UNL d   1      27.504 -14.463   0.135  0.00  0.00     0.101 A 
ATOM      8  C   UNL d   1      26.569 -15.418  -0.276  0.00  0.00     0.034 A 
ATOM      9  C   UNL d   1      25.287 -15.578  -0.975  0.00  0.00     0.159 A 
ATOM     10  H   UNL d   1      28.751 -17.038   1.355  0.00  0.00     0.189 HD
ENDROOT
BRANCH   7  11
ATOM     11  C   UNL d   1      27.470 -13.028  -0.118  0.00  0.00     0.028 A 
ATOM     12  C   UNL d   1      27.303 -12.563  -1.430  0.00  0.00     0.017 A 
ATOM     13  C   UNL d   1      27.199 -11.193  -1.691  0.00  0.00     0.001 A 
ATOM     14  C   UNL d   1      27.283 -10.276  -0.644  0.00  0.00     0.003 A 
ATOM     15  C   UNL d   1      27.460 -10.725   0.667  0.00  0.00     0.037 A 
ATOM     16  C   UNL d   1      27.538 -12.096   0.928  0.00  0.00     0.078 A 
BRANCH  16  17
ATOM     17  O   UNL d   1      27.667 -12.541   2.219  0.00  0.00    -0.360 OA
ATOM     18  H   UNL d   1      28.037 -13.438   2.216  0.00  0.00     0.217 HD
ENDBRANCH  16  17
ENDBRANCH   7  11
BRANCH   9  19
ATOM     19  C   UNL d   1      25.439 -15.085  -2.391  0.00  0.00    -0.028 A 
ATOM     20  C   UNL d   1      24.595 -14.128  -2.976  0.00  0.00     0.010 A 
ATOM     21  C   UNL d   1      24.819 -13.693  -4.285  0.00  0.00     0.003 A 
ATOM     22  C   UNL d   1      25.901 -14.188  -5.020  0.00  0.00     0.036 A 
ATOM     23  C   UNL d   1      26.750 -15.120  -4.436  0.00  0.00     0.066 A 
ATOM     24  C   UNL d   1      26.517 -15.575  -3.148  0.00  0.00     0.046 A 
BRANCH  23  25
ATOM     25  O   UNL d   1      27.845 -15.620  -5.078  0.00  0.00    -0.361 OA
ATOM     26  H   UNL d   1      28.635 -15.441  -4.544  0.00  0.00     0.217 HD
ENDBRANCH  23  25
ENDBRANCH   9  19
BRANCH   1  27
ATOM     27  C   UNL d   1      23.951 -17.751  -1.429  0.00  0.00     0.127 C 
BRANCH  27  28
ATOM     28  C   UNL d   1      22.710 -17.705  -0.537  0.00  0.00     0.020 C 
BRANCH  28  29
ATOM     29  C   UNL d   1      22.022 -19.052  -0.376  0.00  0.00    -0.003 C 
ATOM     30  C   UNL d   1      20.571 -18.951  -0.821  0.00  0.00     0.005 C 
ENDBRANCH  28  29
ENDBRANCH  27  28
ENDBRANCH   1  27
TORSDOF 7
ENDMDL
MODEL 4
REMARK VINA RESULT:    -6.749      2.324      6.703
REMARK INTER + INTRA:         -11.117
REMARK INTER:                  -8.837
REMARK INTRA:                  -2.280
REMARK CONF_INDEPENDENT:        2.088
REMARK UNBOUND:                -2.280
REMARK  7 active torsions:
REMARK  status: ('A' for Active; 'I' for Inactive)
REMARK    1  A    between atoms: C_2  and  C_3 
REMARK    2  A    between atoms: C_3  and  C_4 
REMARK    3  A    between atoms: C_4  and  N_5 
REMARK    4  A    between atoms: C_11  and  C_12 
REMARK    5  A    between atoms: C_17  and  O_18 
REMARK    6  A    between atoms: C_20  and  C_21 
REMARK    7  A    between atoms: C_25  and  O_26 
ROOT
ATOM      1  N   UNL d   1      29.559 -15.581  -3.143  0.00  0.00    -0.334 N 
ATOM      2  C   UNL d   1      30.311 -15.816  -1.980  0.00  0.00     0.273 A 
ATOM      3  O   UNL d   1      31.512 -15.676  -1.811  0.00  0.00    -0.266 OA
ATOM      4  C   UNL d   1      29.348 -16.255  -1.035  0.00  0.00     0.129 A 
ATOM      5  N   UNL d   1      29.262 -16.681   0.236  0.00  0.00    -0.272 N 
ATOM      6  N   UNL d   1      27.974 -16.957   0.590  0.00  0.00    -0.173 NA
ATOM      7  C   UNL d   1      27.250 -16.741  -0.535  0.00  0.00     0.101 A 
ATOM      8  C   UNL d   1      28.090 -16.277  -1.553  0.00  0.00     0.034 A 
ATOM      9  C   UNL d   1      28.105 -15.865  -2.963  0.00  0.00     0.159 A 
ATOM     10  H   UNL d   1      29.999 -16.812   0.920  0.00  0.00     0.189 HD
ENDROOT
BRANCH   7  11
ATOM     11  C   UNL d   1      25.810 -16.948  -0.605  0.00  0.00     0.028 A 
ATOM     12  C   UNL d   1      24.989 -15.931  -1.110  0.00  0.00     0.017 A 
ATOM     13  C   UNL d   1      23.613 -16.131  -1.251  0.00  0.00     0.001 A 
ATOM     14  C   UNL d   1      23.042 -17.343  -0.866  0.00  0.00     0.003 A 
ATOM     15  C   UNL d   1      23.846 -18.363  -0.350  0.00  0.00     0.037 A 
ATOM     16  C   UNL d   1      25.226 -18.169  -0.235  0.00  0.00     0.078 A 
BRANCH  16  17
ATOM     17  O   UNL d   1      26.023 -19.184   0.229  0.00  0.00    -0.360 OA
ATOM     18  H   UNL d   1      26.853 -18.814   0.568  0.00  0.00     0.217 HD
ENDBRANCH  16  17
ENDBRANCH   7  11
BRANCH   9  19
ATOM     19  C   UNL d   1      27.203 -14.668  -3.131  0.00  0.00    -0.028 A 
ATOM     20  C   UNL d   1      27.559 -13.367  -2.745  0.00  0.00     0.010 A 
ATOM     21  C   UNL d   1      26.683 -12.301  -2.965  0.00  0.00     0.003 A 
ATOM     22  C   UNL d   1      25.452 -12.513  -3.593  0.00  0.00     0.036 A 
ATOM     23  C   UNL d   1      25.107 -13.797  -3.995  0.00  0.00     0.066 A 
ATOM     24  C   UNL d   1      25.960 -14.863  -3.755  0.00  0.00     0.046 A 
BRANCH  23  25
ATOM     25  O   UNL d   1      23.941 -14.075  -4.645  0.00  0.00    -0.361 OA
ATOM     26  H   UNL d   1      23.500 -13.243  -4.878  0.00  0.00     0.217 HD
ENDBRANCH  23  25
ENDBRANCH   9  19
BRANCH   1  27
ATOM     27  C   UNL d   1      30.114 -15.081  -4.399  0.00  0.00     0.127 C 
BRANCH  27  28
ATOM     28  C   UNL d   1      29.265 -15.459  -5.613  0.00  0.00     0.020 C 
BRANCH  28  29
ATOM     29  C   UNL d   1      28.530 -14.280  -6.234  0.00  0.00    -0.003 C 
ATOM     30  C   UNL d   1      29.415 -13.605  -7.272  0.00  0.00     0.005 C 
ENDBRANCH  28  29
ENDBRANCH  27  28
ENDBRANCH   1  27
TORSDOF 7
ENDMDL
MODEL 5
REMARK VINA RESULT:    -6.550      3.080      5.611
REMARK INTER + INTRA:         -10.553
REMARK INTER:                  -8.638
REMARK INTRA:                  -1.915
REMARK CONF_INDEPENDENT:        2.088
REMARK UNBOUND:                -1.915
REMARK  7 active torsions:
REMARK  status: ('A' for Active; 'I' for Inactive)
REMARK    1  A    between atoms: C_2  and  C_3 
REMARK    2  A    between atoms: C_3  and  C_4 
REMARK    3  A    between atoms: C_4  and  N_5 
REMARK    4  A    between atoms: C_11  and  C_12 
REMARK    5  A    between atoms: C_17  and  O_18 
REMARK    6  A    between atoms: C_20  and  C_21 
REMARK    7  A    between atoms: C_25  and  O_26 
ROOT
ATOM      1  N   UNL d   1      26.374 -16.384  -0.649  0.00  0.00    -0.334 N 
ATOM      2  C   UNL d   1      27.594 -16.917  -0.201  0.00  0.00     0.273 A 
ATOM      3  O   UNL d   1      28.010 -18.060  -0.312  0.00  0.00    -0.266 OA
ATOM      4  C   UNL d   1      28.241 -15.815   0.415  0.00  0.00     0.129 A 
ATOM      5  N   UNL d   1      29.371 -15.513   1.077  0.00  0.00    -0.272 N 
ATOM      6  N   UNL d   1      29.418 -14.195   1.421  0.00  0.00    -0.173 NA
ATOM      7  C   UNL d   1      28.236 -13.683   0.998  0.00  0.00     0.101 A 
ATOM      8  C   UNL d   1      27.500 -14.676   0.345  0.00  0.00     0.034 A 
ATOM      9  C   UNL d   1      26.220 -14.934  -0.329  0.00  0.00     0.159 A 
ATOM     10  H   UNL d   1      30.146 -16.116   1.332  0.00  0.00     0.189 HD
ENDROOT
BRANCH   7  11
ATOM     11  C   UNL d   1      27.858 -12.290   1.196  0.00  0.00     0.028 A 
ATOM     12  C   UNL d   1      26.652 -11.987   1.843  0.00  0.00     0.017 A 
ATOM     13  C   UNL d   1      26.300 -10.660   2.106  0.00  0.00     0.001 A 
ATOM     14  C   UNL d   1      27.140  -9.623   1.703  0.00  0.00     0.003 A 
ATOM     15  C   UNL d   1      28.341  -9.909   1.047  0.00  0.00     0.037 A 
ATOM     16  C   UNL d   1      28.703 -11.238   0.809  0.00  0.00     0.078 A 
BRANCH  16  17
ATOM     17  O   UNL d   1      29.901 -11.524   0.206  0.00  0.00    -0.360 OA
ATOM     18  H   UNL d   1      30.178 -12.422   0.446  0.00  0.00     0.217 HD
ENDBRANCH  16  17
ENDBRANCH   7  11
BRANCH   9  19
ATOM     19  C   UNL d   1      26.111 -14.031  -1.530  0.00  0.00    -0.028 A 
ATOM     20  C   UNL d   1      26.903 -12.888  -1.719  0.00  0.00     0.010 A 
ATOM     21  C   UNL d   1      26.767 -12.118  -2.877  0.00  0.00     0.003 A 
ATOM     22  C   UNL d   1      25.859 -12.490  -3.873  0.00  0.00     0.036 A 
ATOM     23  C   UNL d   1      25.089 -13.632  -3.698  0.00  0.00     0.066 A 
ATOM     24  C   UNL d   1      25.199 -14.385  -2.539  0.00  0.00     0.046 A 
BRANCH  23  25
ATOM     25  O   UNL d   1      24.209 -14.077  -4.641  0.00  0.00    -0.361 OA
ATOM     26  H   UNL d   1      23.563 -13.378  -4.827  0.00  0.00     0.217 HD
ENDBRANCH  23  25
ENDBRANCH   9  19
BRANCH   1  27
ATOM     27  C   UNL d   1      25.361 -17.140  -1.382  0.00  0.00     0.127 C 
BRANCH  27  28
ATOM     28  C   UNL d   1      23.973 -17.036  -0.750  0.00  0.00     0.020 C 
BRANCH  28  29
ATOM     29  C   UNL d   1      23.569 -18.270   0.045  0.00  0.00    -0.003 C 
ATOM     30  C   UNL d   1      22.101 -18.586  -0.198  0.00  0.00     0.005 C 
ENDBRANCH  28  29
ENDBRANCH  27  28
ENDBRANCH   1  27
TORSDOF 7
ENDMDL
MODEL 6
REMARK VINA RESULT:    -6.534      2.346      4.119
REMARK INTER + INTRA:         -11.448
REMARK INTER:                  -8.622
REMARK INTRA:                  -2.826
REMARK CONF_INDEPENDENT:        2.088
REMARK UNBOUND:                -2.826
REMARK  7 active torsions:
REMARK  status: ('A' for Active; 'I' for Inactive)
REMARK    1  A    between atoms: C_2  and  C_3 
REMARK    2  A    between atoms: C_3  and  C_4 
REMARK    3  A    between atoms: C_4  and  N_5 
REMARK    4  A    between atoms: C_11  and  C_12 
REMARK    5  A    between atoms: C_17  and  O_18 
REMARK    6  A    between atoms: C_20  and  C_21 
REMARK    7  A    between atoms: C_25  and  O_26 
ROOT
ATOM      1  N   UNL d   1      25.438 -16.788  -0.504  0.00  0.00    -0.334 N 
ATOM      2  C   UNL d   1      26.326 -17.814  -0.143  0.00  0.00     0.273 A 
ATOM      3  O   UNL d   1      26.068 -18.950   0.222  0.00  0.00    -0.266 OA
ATOM      4  C   UNL d   1      27.608 -17.226  -0.302  0.00  0.00     0.129 A 
ATOM      5  N   UNL d   1      28.910 -17.518  -0.145  0.00  0.00    -0.272 N 
ATOM      6  N   UNL d   1      29.709 -16.473  -0.502  0.00  0.00    -0.173 NA
ATOM      7  C   UNL d   1      28.852 -15.479  -0.840  0.00  0.00     0.101 A 
ATOM      8  C   UNL d   1      27.535 -15.941  -0.745  0.00  0.00     0.034 A 
ATOM      9  C   UNL d   1      26.134 -15.528  -0.899  0.00  0.00     0.159 A 
ATOM     10  H   UNL d   1      29.340 -18.375   0.188  0.00  0.00     0.189 HD
ENDROOT
BRANCH   7  11
ATOM     11  C   UNL d   1      29.295 -14.157  -1.261  0.00  0.00     0.028 A 
ATOM     12  C   UNL d   1      29.378 -13.124  -0.318  0.00  0.00     0.017 A 
ATOM     13  C   UNL d   1      29.866 -11.865  -0.683  0.00  0.00     0.001 A 
ATOM     14  C   UNL d   1      30.252 -11.622  -2.000  0.00  0.00     0.003 A 
ATOM     15  C   UNL d   1      30.164 -12.640  -2.954  0.00  0.00     0.037 A 
ATOM     16  C   UNL d   1      29.701 -13.905  -2.580  0.00  0.00     0.078 A 
BRANCH  16  17
ATOM     17  O   UNL d   1      29.655 -14.918  -3.504  0.00  0.00    -0.360 OA
ATOM     18  H   UNL d   1      29.190 -14.611  -4.298  0.00  0.00     0.217 HD
ENDBRANCH  16  17
ENDBRANCH   7  11
BRANCH   9  19
ATOM     19  C   UNL d   1      25.905 -15.103  -2.327  0.00  0.00    -0.028 A 
ATOM     20  C   UNL d   1      24.859 -14.259  -2.729  0.00  0.00     0.010 A 
ATOM     21  C   UNL d   1      24.731 -13.880  -4.069  0.00  0.00     0.003 A 
ATOM     22  C   UNL d   1      25.657 -14.319  -5.020  0.00  0.00     0.036 A 
ATOM     23  C   UNL d   1      26.705 -15.138  -4.621  0.00  0.00     0.066 A 
ATOM     24  C   UNL d   1      26.822 -15.539  -3.299  0.00  0.00     0.046 A 
BRANCH  23  25
ATOM     25  O   UNL d   1      27.666 -15.575  -5.485  0.00  0.00    -0.361 OA
ATOM     26  H   UNL d   1      28.418 -15.917  -4.976  0.00  0.00     0.217 HD
ENDBRANCH  23  25
ENDBRANCH   9  19
BRANCH   1  27
ATOM     27  C   UNL d   1      23.984 -16.925  -0.528  0.00  0.00     0.127 C 
BRANCH  27  28
ATOM     28  C   UNL d   1      23.517 -18.153  -1.309  0.00  0.00     0.020 C 
BRANCH  28  29
ATOM     29  C   UNL d   1      22.621 -19.084  -0.506  0.00  0.00    -0.003 C 
ATOM     30  C   UNL d   1      21.160 -18.812  -0.838  0.00  0.00     0.005 C 
ENDBRANCH  28  29
ENDBRANCH  27  28
ENDBRANCH   1  27
TORSDOF 7
ENDMDL
MODEL 7
REMARK VINA RESULT:    -6.512      1.297      1.573
REMARK INTER + INTRA:         -10.668
REMARK INTER:                  -8.600
REMARK INTRA:                  -2.068
REMARK CONF_INDEPENDENT:        2.088
REMARK UNBOUND:                -2.068
REMARK  7 active torsions:
REMARK  status: ('A' for Active; 'I' for Inactive)
REMARK    1  A    between atoms: C_2  and  C_3 
REMARK    2  A    between atoms: C_3  and  C_4 
REMARK    3  A    between atoms: C_4  and  N_5 
REMARK    4  A    between atoms: C_11  and  C_12 
REMARK    5  A    between atoms: C_17  and  O_18 
REMARK    6  A    between atoms: C_20  and  C_21 
REMARK    7  A    between atoms: C_25  and  O_26 
ROOT
ATOM      1  N   UNL d   1      25.200 -16.051  -1.589  0.00  0.00    -0.334 N 
ATOM      2  C   UNL d   1      24.403 -15.215  -2.388  0.00  0.00     0.273 A 
ATOM      3  O   UNL d   1      23.264 -14.827  -2.182  0.00  0.00    -0.266 OA
ATOM      4  C   UNL d   1      25.231 -14.918  -3.501  0.00  0.00     0.129 A 
ATOM      5  N   UNL d   1      25.206 -14.241  -4.662  0.00  0.00    -0.272 N 
ATOM      6  N   UNL d   1      26.393 -14.332  -5.326  0.00  0.00    -0.173 NA
ATOM      7  C   UNL d   1      27.158 -15.148  -4.561  0.00  0.00     0.101 A 
ATOM      8  C   UNL d   1      26.456 -15.502  -3.404  0.00  0.00     0.034 A 
ATOM      9  C   UNL d   1      26.549 -16.303  -2.176  0.00  0.00     0.159 A 
ATOM     10  H   UNL d   1      24.451 -13.703  -5.074  0.00  0.00     0.189 HD
ENDROOT
BRANCH   7  11
ATOM     11  C   UNL d   1      28.514 -15.537  -4.925  0.00  0.00     0.028 A 
ATOM     12  C   UNL d   1      29.262 -16.335  -4.048  0.00  0.00     0.017 A 
ATOM     13  C   UNL d   1      30.539 -16.779  -4.405  0.00  0.00     0.001 A 
ATOM     14  C   UNL d   1      31.088 -16.410  -5.632  0.00  0.00     0.003 A 
ATOM     15  C   UNL d   1      30.357 -15.606  -6.512  0.00  0.00     0.037 A 
ATOM     16  C   UNL d   1      29.070 -15.185  -6.164  0.00  0.00     0.078 A 
BRANCH  16  17
ATOM     17  O   UNL d   1      28.335 -14.433  -7.043  0.00  0.00    -0.360 OA
ATOM     18  H   UNL d   1      27.467 -14.238  -6.656  0.00  0.00     0.217 HD
ENDBRANCH  16  17
ENDBRANCH   7  11
BRANCH   9  19
ATOM     19  C   UNL d   1      27.701 -15.794  -1.348  0.00  0.00    -0.028 A 
ATOM     20  C   UNL d   1      27.792 -14.478  -0.869  0.00  0.00     0.010 A 
ATOM     21  C   UNL d   1      28.876 -14.088  -0.076  0.00  0.00     0.003 A 
ATOM     22  C   UNL d   1      29.869 -15.010   0.269  0.00  0.00     0.036 A 
ATOM     23  C   UNL d   1      29.770 -16.318  -0.187  0.00  0.00     0.066 A 
ATOM     24  C   UNL d   1      28.712 -16.704  -0.996  0.00  0.00     0.046 A 
BRANCH  23  25
ATOM     25  O   UNL d   1      30.681 -17.280   0.137  0.00  0.00    -0.361 OA
ATOM     26  H   UNL d   1      30.229 -18.000   0.605  0.00  0.00     0.217 HD
ENDBRANCH  23  25
ENDBRANCH   9  19
BRANCH   1  27
ATOM     27  C   UNL d   1      24.786 -16.603  -0.302  0.00  0.00     0.127 C 
BRANCH  27  28
ATOM     28  C   UNL d   1      24.620 -18.123  -0.335  0.00  0.00     0.020 C 
BRANCH  28  29
ATOM     29  C   UNL d   1      23.371 -18.585  -1.071  0.00  0.00    -0.003 C 
ATOM     30  C   UNL d   1      22.148 -17.865  -0.521  0.00  0.00     0.005 C 
ENDBRANCH  28  29
ENDBRANCH  27  28
ENDBRANCH   1  27
TORSDOF 7
ENDMDL
MODEL 8
REMARK VINA RESULT:    -6.367      3.458      6.189
REMARK INTER + INTRA:         -10.833
REMARK INTER:                  -8.455
REMARK INTRA:                  -2.378
REMARK CONF_INDEPENDENT:        2.088
REMARK UNBOUND:                -2.378
REMARK  7 active torsions:
REMARK  status: ('A' for Active; 'I' for Inactive)
REMARK    1  A    between atoms: C_2  and  C_3 
REMARK    2  A    between atoms: C_3  and  C_4 
REMARK    3  A    between atoms: C_4  and  N_5 
REMARK    4  A    between atoms: C_11  and  C_12 
REMARK    5  A    between atoms: C_17  and  O_18 
REMARK    6  A    between atoms: C_20  and  C_21 
REMARK    7  A    between atoms: C_25  and  O_26 
ROOT
ATOM      1  N   UNL d   1      29.491 -16.023  -4.884  0.00  0.00    -0.334 N 
ATOM      2  C   UNL d   1      29.641 -15.847  -6.270  0.00  0.00     0.273 A 
ATOM      3  O   UNL d   1      30.096 -16.628  -7.090  0.00  0.00    -0.266 OA
ATOM      4  C   UNL d   1      29.133 -14.543  -6.503  0.00  0.00     0.129 A 
ATOM      5  N   UNL d   1      28.954 -13.663  -7.503  0.00  0.00    -0.272 N 
ATOM      6  N   UNL d   1      28.366 -12.514  -7.065  0.00  0.00    -0.173 NA
ATOM      7  C   UNL d   1      28.233 -12.679  -5.727  0.00  0.00     0.101 A 
ATOM      8  C   UNL d   1      28.684 -13.952  -5.363  0.00  0.00     0.034 A 
ATOM      9  C   UNL d   1      28.888 -14.837  -4.209  0.00  0.00     0.159 A 
ATOM     10  H   UNL d   1      29.189 -13.752  -8.486  0.00  0.00     0.189 HD
ENDROOT
BRANCH   7  11
ATOM     11  C   UNL d   1      27.669 -11.659  -4.852  0.00  0.00     0.028 A 
ATOM     12  C   UNL d   1      28.524 -10.777  -4.179  0.00  0.00     0.017 A 
ATOM     13  C   UNL d   1      28.004  -9.747  -3.389  0.00  0.00     0.001 A 
ATOM     14  C   UNL d   1      26.625  -9.605  -3.247  0.00  0.00     0.003 A 
ATOM     15  C   UNL d   1      25.760 -10.485  -3.904  0.00  0.00     0.037 A 
ATOM     16  C   UNL d   1      26.282 -11.497  -4.715  0.00  0.00     0.078 A 
BRANCH  16  17
ATOM     17  O   UNL d   1      25.435 -12.334  -5.395  0.00  0.00    -0.360 OA
ATOM     18  H   UNL d   1      24.518 -12.132  -5.154  0.00  0.00     0.217 HD
ENDBRANCH  16  17
ENDBRANCH   7  11
BRANCH   9  19
ATOM     19  C   UNL d   1      27.557 -15.097  -3.551  0.00  0.00    -0.028 A 
ATOM     20  C   UNL d   1      27.406 -15.824  -2.360  0.00  0.00     0.010 A 
ATOM     21  C   UNL d   1      26.141 -15.994  -1.791  0.00  0.00     0.003 A 
ATOM     22  C   UNL d   1      25.013 -15.422  -2.388  0.00  0.00     0.036 A 
ATOM     23  C   UNL d   1      25.162 -14.684  -3.555  0.00  0.00     0.066 A 
ATOM     24  C   UNL d   1      26.411 -14.535  -4.139  0.00  0.00     0.046 A 
BRANCH  23  25
ATOM     25  O   UNL d   1      24.115 -14.067  -4.174  0.00  0.00    -0.361 OA
ATOM     26  H   UNL d   1      24.416 -13.703  -5.021  0.00  0.00     0.217 HD
ENDBRANCH  23  25
ENDBRANCH   9  19
BRANCH   1  27
ATOM     27  C   UNL d   1      29.854 -17.241  -4.163  0.00  0.00     0.127 C 
BRANCH  27  28
ATOM     28  C   UNL d   1      30.899 -18.078  -4.901  0.00  0.00     0.020 C 
BRANCH  28  29
ATOM     29  C   UNL d   1      30.446 -19.501  -5.195  0.00  0.00    -0.003 C 
ATOM     30  C   UNL d   1      30.382 -19.725  -6.699  0.00  0.00     0.005 C 
ENDBRANCH  28  29
ENDBRANCH  27  28
ENDBRANCH   1  27
TORSDOF 7
ENDMDL
MODEL 9
REMARK VINA RESULT:    -6.253      7.941     10.242
REMARK INTER + INTRA:         -10.598
REMARK INTER:                  -8.341
REMARK INTRA:                  -2.257
REMARK CONF_INDEPENDENT:        2.088
REMARK UNBOUND:                -2.257
REMARK  7 active torsions:
REMARK  status: ('A' for Active; 'I' for Inactive)
REMARK    1  A    between atoms: C_2  and  C_3 
REMARK    2  A    between atoms: C_3  and  C_4 
REMARK    3  A    between atoms: C_4  and  N_5 
REMARK    4  A    between atoms: C_11  and  C_12 
REMARK    5  A    between atoms: C_17  and  O_18 
REMARK    6  A    between atoms: C_20  and  C_21 
REMARK    7  A    between atoms: C_25  and  O_26 
ROOT
ATOM      1  N   UNL d   1      32.724 -21.177   5.594  0.00  0.00    -0.334 N 
ATOM      2  C   UNL d   1      31.352 -21.436   5.746  0.00  0.00     0.273 A 
ATOM      3  O   UNL d   1      30.704 -21.519   6.777  0.00  0.00    -0.266 OA
ATOM      4  C   UNL d   1      30.884 -21.577   4.414  0.00  0.00     0.129 A 
ATOM      5  N   UNL d   1      29.756 -21.846   3.735  0.00  0.00    -0.272 N 
ATOM      6  N   UNL d   1      29.961 -21.824   2.387  0.00  0.00    -0.173 NA
ATOM      7  C   UNL d   1      31.287 -21.586   2.241  0.00  0.00     0.101 A 
ATOM      8  C   UNL d   1      31.874 -21.404   3.498  0.00  0.00     0.034 A 
ATOM      9  C   UNL d   1      33.157 -21.149   4.166  0.00  0.00     0.159 A 
ATOM     10  H   UNL d   1      28.827 -22.049   4.088  0.00  0.00     0.189 HD
ENDROOT
BRANCH   7  11
ATOM     11  C   UNL d   1      31.943 -21.511   0.942  0.00  0.00     0.028 A 
ATOM     12  C   UNL d   1      33.224 -22.057   0.782  0.00  0.00     0.017 A 
ATOM     13  C   UNL d   1      33.845 -22.059  -0.470  0.00  0.00     0.001 A 
ATOM     14  C   UNL d   1      33.200 -21.494  -1.569  0.00  0.00     0.003 A 
ATOM     15  C   UNL d   1      31.927 -20.937  -1.423  0.00  0.00     0.037 A 
ATOM     16  C   UNL d   1      31.297 -20.959  -0.175  0.00  0.00     0.078 A 
BRANCH  16  17
ATOM     17  O   UNL d   1      30.030 -20.453  -0.038  0.00  0.00    -0.360 OA
ATOM     18  H   UNL d   1      29.773 -20.474   0.897  0.00  0.00     0.217 HD
ENDBRANCH  16  17
ENDBRANCH   7  11
BRANCH   9  19
ATOM     19  C   UNL d   1      33.696 -19.822   3.697  0.00  0.00    -0.028 A 
ATOM     20  C   UNL d   1      35.025 -19.412   3.888  0.00  0.00     0.010 A 
ATOM     21  C   UNL d   1      35.462 -18.179   3.393  0.00  0.00     0.003 A 
ATOM     22  C   UNL d   1      34.588 -17.351   2.683  0.00  0.00     0.036 A 
ATOM     23  C   UNL d   1      33.278 -17.764   2.475  0.00  0.00     0.066 A 
ATOM     24  C   UNL d   1      32.831 -18.973   2.986  0.00  0.00     0.046 A 
BRANCH  23  25
ATOM     25  O   UNL d   1      32.379 -17.027   1.761  0.00  0.00    -0.361 OA
ATOM     26  H   UNL d   1      31.519 -17.054   2.210  0.00  0.00     0.217 HD
ENDBRANCH  23  25
ENDBRANCH   9  19
BRANCH   1  27
ATOM     27  C   UNL d   1      33.645 -20.928   6.701  0.00  0.00     0.127 C 
BRANCH  27  28
ATOM     28  C   UNL d   1      34.886 -21.819   6.650  0.00  0.00     0.020 C 
BRANCH  28  29
ATOM     29  C   UNL d   1      34.574 -23.288   6.406  0.00  0.00    -0.003 C 
ATOM     30  C   UNL d   1      34.532 -24.037   7.730  0.00  0.00     0.005 C 
ENDBRANCH  28  29
ENDBRANCH  27  28
ENDBRANCH   1  27
TORSDOF 7
ENDMDL
