MODEL 1
REMARK VINA RESULT:    -9.259      0.000      0.000
REMARK INTER + INTRA:         -14.603
REMARK INTER:                 -12.839
REMARK INTRA:                  -1.764
REMARK CONF_INDEPENDENT:        3.580
REMARK UNBOUND:                -1.764
REMARK  12 active torsions:
REMARK  status: ('A' for Active; 'I' for Inactive)
REMARK    1  A    between atoms: C_2  and  C_3 
REMARK    2  A    between atoms: C_3  and  C_4 
REMARK    3  A    between atoms: C_4  and  O_5 
REMARK    4  A    between atoms: O_5  and  C_6 
REMARK    5  A    between atoms: C_9  and  C_10 
REMARK    6  A    between atoms: C_10  and  O_12 
REMARK    7  A    between atoms: O_12  and  C_13 
REMARK    8  A    between atoms: C_16  and  C_17 
REMARK    9  A    between atoms: N_18  and  N_19 
REMARK       I    between atoms: N_19  and  C_20 
REMARK   10  A    between atoms: C_20  and  C_22 
REMARK   11  A    between atoms: C_25  and  O_26 
REMARK   12  A    between atoms: C_28  and  O_29 
ROOT
ATOM      1  C   UNL d   1      27.579 -15.344  -3.285  0.00  0.00     0.079 A 
ATOM      2  C   UNL d   1      26.350 -14.840  -3.725  0.00  0.00     0.038 A 
ATOM      3  C   UNL d   1      25.150 -15.239  -3.090  0.00  0.00     0.015 A 
ATOM      4  C   UNL d   1      25.172 -16.192  -2.059  0.00  0.00    -0.017 A 
ATOM      5  C   UNL d   1      26.410 -16.666  -1.612  0.00  0.00     0.015 A 
ATOM      6  C   UNL d   1      27.606 -16.229  -2.205  0.00  0.00     0.038 A 
ENDROOT
BRANCH   4   7
ATOM      7  C   UNL d   1      23.904 -16.744  -1.474  0.00  0.00     0.150 C 
ATOM      8  N   UNL d   1      23.825 -17.061  -0.218  0.00  0.00    -0.183 NA
BRANCH   8   9
ATOM      9  N   UNL d   1      22.652 -17.608   0.260  0.00  0.00    -0.243 N 
ATOM     10  C   UNL d   1      22.113 -18.731  -0.376  0.00  0.00     0.274 C 
ATOM     11  O   UNL d   1      22.628 -19.310  -1.334  0.00  0.00    -0.266 OA
ATOM     12  H   UNL d   1      22.136 -17.152   1.006  0.00  0.00     0.192 HD
BRANCH  10  13
ATOM     13  C   UNL d   1      20.822 -19.284   0.147  0.00  0.00     0.067 A 
ATOM     14  C   UNL d   1      20.655 -19.396   1.544  0.00  0.00     0.022 A 
ATOM     15  C   UNL d   1      19.541 -20.052   2.092  0.00  0.00     0.037 A 
ATOM     16  C   UNL d   1      18.568 -20.560   1.240  0.00  0.00     0.068 A 
ATOM     17  C   UNL d   1      18.712 -20.458  -0.142  0.00  0.00     0.074 A 
ATOM     18  C   UNL d   1      19.832 -19.812  -0.685  0.00  0.00     0.084 A 
BRANCH  16  19
ATOM     19  O   UNL d   1      17.437 -21.156   1.719  0.00  0.00    -0.361 OA
ATOM     20  H   UNL d   1      17.098 -21.784   1.060  0.00  0.00     0.217 HD
ENDBRANCH  16  19
BRANCH  18  21
ATOM     21  O   UNL d   1      19.956 -19.700  -2.044  0.00  0.00    -0.360 OA
ATOM     22  H   UNL d   1      20.888 -19.838  -2.287  0.00  0.00     0.217 HD
ENDBRANCH  18  21
ENDBRANCH  10  13
ENDBRANCH   8   9
ENDBRANCH   4   7
BRANCH   1  23
ATOM     23  O   UNL d   1      28.772 -14.867  -3.901  0.00  0.00    -0.275 OA
BRANCH  23  24
ATOM     24  C   UNL d   1      28.970 -15.128  -5.255  0.00  0.00     0.298 C 
ATOM     25  O   UNL d   1      28.400 -14.554  -6.183  0.00  0.00    -0.259 OA
BRANCH  24  26
ATOM     26  C   UNL d   1      29.948 -16.229  -5.530  0.00  0.00     0.040 A 
ATOM     27  C   UNL d   1      30.674 -16.167  -6.734  0.00  0.00     0.020 A 
ATOM     28  C   UNL d   1      31.537 -17.202  -7.117  0.00  0.00     0.038 A 
ATOM     29  C   UNL d   1      31.740 -18.295  -6.278  0.00  0.00     0.068 A 
ATOM     30  C   UNL d   1      31.056 -18.349  -5.061  0.00  0.00     0.038 A 
ATOM     31  C   UNL d   1      30.155 -17.329  -4.690  0.00  0.00     0.020 A 
BRANCH  29  32
ATOM     32  O   UNL d   1      32.696 -19.190  -6.681  0.00  0.00    -0.351 OA
BRANCH  32  33
ATOM     33  C   UNL d   1      32.214 -20.425  -7.217  0.00  0.00     0.175 C 
BRANCH  33  34
ATOM     34  C   UNL d   1      30.789 -20.217  -7.736  0.00  0.00     0.026 C 
BRANCH  34  35
ATOM     35  C   UNL d   1      30.795 -19.683  -9.167  0.00  0.00    -0.002 C 
ATOM     36  C   UNL d   1      32.124 -19.949  -9.853  0.00  0.00     0.005 C 
ENDBRANCH  34  35
ENDBRANCH  33  34
ENDBRANCH  32  33
ENDBRANCH  29  32
ENDBRANCH  24  26
ENDBRANCH  23  24
ENDBRANCH   1  23
TORSDOF 12
ENDMDL
MODEL 2
REMARK VINA RESULT:    -9.249      4.534      7.582
REMARK INTER + INTRA:         -14.555
REMARK INTER:                 -12.828
REMARK INTRA:                  -1.727
REMARK CONF_INDEPENDENT:        3.580
REMARK UNBOUND:                -1.727
REMARK  12 active torsions:
REMARK  status: ('A' for Active; 'I' for Inactive)
REMARK    1  A    between atoms: C_2  and  C_3 
REMARK    2  A    between atoms: C_3  and  C_4 
REMARK    3  A    between atoms: C_4  and  O_5 
REMARK    4  A    between atoms: O_5  and  C_6 
REMARK    5  A    between atoms: C_9  and  C_10 
REMARK    6  A    between atoms: C_10  and  O_12 
REMARK    7  A    between atoms: O_12  and  C_13 
REMARK    8  A    between atoms: C_16  and  C_17 
REMARK    9  A    between atoms: N_18  and  N_19 
REMARK       I    between atoms: N_19  and  C_20 
REMARK   10  A    between atoms: C_20  and  C_22 
REMARK   11  A    between atoms: C_25  and  O_26 
REMARK   12  A    between atoms: C_28  and  O_29 
ROOT
ATOM      1  C   UNL d   1      28.065 -15.738  -1.213  0.00  0.00     0.079 A 
ATOM      2  C   UNL d   1      26.804 -15.203  -1.499  0.00  0.00     0.038 A 
ATOM      3  C   UNL d   1      25.638 -15.822  -0.992  0.00  0.00     0.015 A 
ATOM      4  C   UNL d   1      25.727 -17.014  -0.254  0.00  0.00    -0.017 A 
ATOM      5  C   UNL d   1      26.995 -17.521   0.046  0.00  0.00     0.015 A 
ATOM      6  C   UNL d   1      28.156 -16.877  -0.410  0.00  0.00     0.038 A 
ENDROOT
BRANCH   4   7
ATOM      7  C   UNL d   1      24.500 -17.770   0.164  0.00  0.00     0.150 C 
ATOM      8  N   UNL d   1      24.021 -18.732  -0.566  0.00  0.00    -0.183 NA
BRANCH   8   9
ATOM      9  N   UNL d   1      22.864 -19.365  -0.162  0.00  0.00    -0.243 N 
ATOM     10  C   UNL d   1      21.649 -18.677  -0.233  0.00  0.00     0.274 C 
ATOM     11  O   UNL d   1      21.514 -17.533  -0.669  0.00  0.00    -0.266 OA
ATOM     12  H   UNL d   1      22.902 -20.284   0.267  0.00  0.00     0.192 HD
BRANCH  10  13
ATOM     13  C   UNL d   1      20.414 -19.381   0.242  0.00  0.00     0.067 A 
ATOM     14  C   UNL d   1      20.262 -19.616   1.625  0.00  0.00     0.022 A 
ATOM     15  C   UNL d   1      19.213 -20.408   2.117  0.00  0.00     0.037 A 
ATOM     16  C   UNL d   1      18.285 -20.932   1.225  0.00  0.00     0.068 A 
ATOM     17  C   UNL d   1      18.414 -20.711  -0.145  0.00  0.00     0.074 A 
ATOM     18  C   UNL d   1      19.471 -19.928  -0.632  0.00  0.00     0.084 A 
BRANCH  16  19
ATOM     19  O   UNL d   1      17.212 -21.661   1.653  0.00  0.00    -0.361 OA
ATOM     20  H   UNL d   1      16.846 -22.166   0.907  0.00  0.00     0.217 HD
ENDBRANCH  16  19
BRANCH  18  21
ATOM     21  O   UNL d   1      19.580 -19.700  -1.977  0.00  0.00    -0.360 OA
ATOM     22  H   UNL d   1      20.172 -18.942  -2.121  0.00  0.00     0.217 HD
ENDBRANCH  18  21
ENDBRANCH  10  13
ENDBRANCH   8   9
ENDBRANCH   4   7
BRANCH   1  23
ATOM     23  O   UNL d   1      29.221 -15.049  -1.682  0.00  0.00    -0.275 OA
BRANCH  23  24
ATOM     24  C   UNL d   1      29.707 -13.981  -0.932  0.00  0.00     0.298 C 
ATOM     25  O   UNL d   1      30.580 -13.192  -1.296  0.00  0.00    -0.259 OA
BRANCH  24  26
ATOM     26  C   UNL d   1      29.094 -13.859   0.430  0.00  0.00     0.040 A 
ATOM     27  C   UNL d   1      27.965 -13.030   0.562  0.00  0.00     0.020 A 
ATOM     28  C   UNL d   1      27.387 -12.781   1.814  0.00  0.00     0.038 A 
ATOM     29  C   UNL d   1      27.888 -13.404   2.956  0.00  0.00     0.068 A 
ATOM     30  C   UNL d   1      28.985 -14.261   2.831  0.00  0.00     0.038 A 
ATOM     31  C   UNL d   1      29.594 -14.482   1.579  0.00  0.00     0.020 A 
BRANCH  29  32
ATOM     32  O   UNL d   1      27.180 -13.198   4.110  0.00  0.00    -0.351 OA
BRANCH  32  33
ATOM     33  C   UNL d   1      27.641 -13.902   5.265  0.00  0.00     0.175 C 
BRANCH  33  34
ATOM     34  C   UNL d   1      28.060 -12.886   6.330  0.00  0.00     0.026 C 
BRANCH  34  35
ATOM     35  C   UNL d   1      29.069 -13.492   7.304  0.00  0.00    -0.002 C 
ATOM     36  C   UNL d   1      30.460 -12.919   7.091  0.00  0.00     0.005 C 
ENDBRANCH  34  35
ENDBRANCH  33  34
ENDBRANCH  32  33
ENDBRANCH  29  32
ENDBRANCH  24  26
ENDBRANCH  23  24
ENDBRANCH   1  23
TORSDOF 12
ENDMDL
MODEL 3
REMARK VINA RESULT:    -9.244      6.942     10.643
REMARK INTER + INTRA:         -14.624
REMARK INTER:                 -12.823
REMARK INTRA:                  -1.800
REMARK CONF_INDEPENDENT:        3.580
REMARK UNBOUND:                -1.800
REMARK  12 active torsions:
REMARK  status: ('A' for Active; 'I' for Inactive)
REMARK    1  A    between atoms: C_2  and  C_3 
REMARK    2  A    between atoms: C_3  and  C_4 
REMARK    3  A    between atoms: C_4  and  O_5 
REMARK    4  A    between atoms: O_5  and  C_6 
REMARK    5  A    between atoms: C_9  and  C_10 
REMARK    6  A    between atoms: C_10  and  O_12 
REMARK    7  A    between atoms: O_12  and  C_13 
REMARK    8  A    between atoms: C_16  and  C_17 
REMARK    9  A    between atoms: N_18  and  N_19 
REMARK       I    between atoms: N_19  and  C_20 
REMARK   10  A    between atoms: C_20  and  C_22 
REMARK   11  A    between atoms: C_25  and  O_26 
REMARK   12  A    between atoms: C_28  and  O_29 
ROOT
ATOM      1  C   UNL d   1      27.187 -14.728  -0.979  0.00  0.00     0.079 A 
ATOM      2  C   UNL d   1      27.717 -15.562   0.011  0.00  0.00     0.038 A 
ATOM      3  C   UNL d   1      27.727 -15.143   1.363  0.00  0.00     0.015 A 
ATOM      4  C   UNL d   1      27.268 -13.863   1.715  0.00  0.00    -0.017 A 
ATOM      5  C   UNL d   1      26.718 -13.052   0.719  0.00  0.00     0.015 A 
ATOM      6  C   UNL d   1      26.657 -13.488  -0.614  0.00  0.00     0.038 A 
ENDROOT
BRANCH   4   7
ATOM      7  C   UNL d   1      27.409 -13.339   3.115  0.00  0.00     0.150 C 
ATOM      8  N   UNL d   1      27.903 -14.076   4.064  0.00  0.00    -0.183 NA
BRANCH   8   9
ATOM      9  N   UNL d   1      27.967 -13.563   5.343  0.00  0.00    -0.243 N 
ATOM     10  C   UNL d   1      28.888 -14.100   6.248  0.00  0.00     0.274 C 
ATOM     11  O   UNL d   1      29.693 -14.994   5.983  0.00  0.00    -0.266 OA
ATOM     12  H   UNL d   1      27.296 -12.869   5.654  0.00  0.00     0.192 HD
BRANCH  10  13
ATOM     13  C   UNL d   1      28.913 -13.543   7.639  0.00  0.00     0.067 A 
ATOM     14  C   UNL d   1      29.235 -14.409   8.705  0.00  0.00     0.022 A 
ATOM     15  C   UNL d   1      29.119 -13.991  10.040  0.00  0.00     0.037 A 
ATOM     16  C   UNL d   1      28.720 -12.687  10.311  0.00  0.00     0.068 A 
ATOM     17  C   UNL d   1      28.399 -11.815   9.272  0.00  0.00     0.074 A 
ATOM     18  C   UNL d   1      28.506 -12.240   7.940  0.00  0.00     0.084 A 
BRANCH  16  19
ATOM     19  O   UNL d   1      28.646 -12.210  11.587  0.00  0.00    -0.361 OA
ATOM     20  H   UNL d   1      28.528 -11.246  11.566  0.00  0.00     0.217 HD
ENDBRANCH  16  19
BRANCH  18  21
ATOM     21  O   UNL d   1      28.207 -11.371   6.926  0.00  0.00    -0.360 OA
ATOM     22  H   UNL d   1      27.289 -11.069   7.031  0.00  0.00     0.217 HD
ENDBRANCH  18  21
ENDBRANCH  10  13
ENDBRANCH   8   9
ENDBRANCH   4   7
BRANCH   1  23
ATOM     23  O   UNL d   1      27.130 -15.210  -2.318  0.00  0.00    -0.275 OA
BRANCH  23  24
ATOM     24  C   UNL d   1      25.889 -15.562  -2.845  0.00  0.00     0.298 C 
ATOM     25  O   UNL d   1      25.462 -15.226  -3.950  0.00  0.00    -0.259 OA
BRANCH  24  26
ATOM     26  C   UNL d   1      25.046 -16.392  -1.925  0.00  0.00     0.040 A 
ATOM     27  C   UNL d   1      23.743 -15.938  -1.652  0.00  0.00     0.020 A 
ATOM     28  C   UNL d   1      22.921 -16.597  -0.729  0.00  0.00     0.038 A 
ATOM     29  C   UNL d   1      23.360 -17.763  -0.104  0.00  0.00     0.068 A 
ATOM     30  C   UNL d   1      24.637 -18.247  -0.398  0.00  0.00     0.038 A 
ATOM     31  C   UNL d   1      25.483 -17.562  -1.296  0.00  0.00     0.020 A 
BRANCH  29  32
ATOM     32  O   UNL d   1      22.439 -18.404   0.682  0.00  0.00    -0.351 OA
BRANCH  32  33
ATOM     33  C   UNL d   1      21.516 -19.256   0.001  0.00  0.00     0.175 C 
BRANCH  33  34
ATOM     34  C   UNL d   1      20.367 -19.601   0.951  0.00  0.00     0.026 C 
BRANCH  34  35
ATOM     35  C   UNL d   1      19.398 -20.593   0.308  0.00  0.00    -0.002 C 
ATOM     36  C   UNL d   1      18.320 -21.028   1.286  0.00  0.00     0.005 C 
ENDBRANCH  34  35
ENDBRANCH  33  34
ENDBRANCH  32  33
ENDBRANCH  29  32
ENDBRANCH  24  26
ENDBRANCH  23  24
ENDBRANCH   1  23
TORSDOF 12
ENDMDL
MODEL 4
REMARK VINA RESULT:    -9.036      0.817      1.550
REMARK INTER + INTRA:         -14.412
REMARK INTER:                 -12.616
REMARK INTRA:                  -1.796
REMARK CONF_INDEPENDENT:        3.580
REMARK UNBOUND:                -1.796
REMARK  12 active torsions:
REMARK  status: ('A' for Active; 'I' for Inactive)
REMARK    1  A    between atoms: C_2  and  C_3 
REMARK    2  A    between atoms: C_3  and  C_4 
REMARK    3  A    between atoms: C_4  and  O_5 
REMARK    4  A    between atoms: O_5  and  C_6 
REMARK    5  A    between atoms: C_9  and  C_10 
REMARK    6  A    between atoms: C_10  and  O_12 
REMARK    7  A    between atoms: O_12  and  C_13 
REMARK    8  A    between atoms: C_16  and  C_17 
REMARK    9  A    between atoms: N_18  and  N_19 
REMARK       I    between atoms: N_19  and  C_20 
REMARK   10  A    between atoms: C_20  and  C_22 
REMARK   11  A    between atoms: C_25  and  O_26 
REMARK   12  A    between atoms: C_28  and  O_29 
ROOT
ATOM      1  C   UNL d   1      27.292 -14.742  -2.925  0.00  0.00     0.079 A 
ATOM      2  C   UNL d   1      27.385 -15.906  -2.155  0.00  0.00     0.038 A 
ATOM      3  C   UNL d   1      26.212 -16.560  -1.709  0.00  0.00     0.015 A 
ATOM      4  C   UNL d   1      24.946 -16.014  -1.979  0.00  0.00    -0.017 A 
ATOM      5  C   UNL d   1      24.868 -14.865  -2.773  0.00  0.00     0.015 A 
ATOM      6  C   UNL d   1      26.030 -14.246  -3.261  0.00  0.00     0.038 A 
ENDROOT
BRANCH   4   7
ATOM      7  C   UNL d   1      23.697 -16.604  -1.390  0.00  0.00     0.150 C 
ATOM      8  N   UNL d   1      23.678 -17.065  -0.177  0.00  0.00    -0.183 NA
BRANCH   8   9
ATOM      9  N   UNL d   1      22.519 -17.640   0.301  0.00  0.00    -0.243 N 
ATOM     10  C   UNL d   1      21.977 -18.742  -0.367  0.00  0.00     0.274 C 
ATOM     11  O   UNL d   1      22.479 -19.281  -1.354  0.00  0.00    -0.266 OA
ATOM     12  H   UNL d   1      22.013 -17.216   1.073  0.00  0.00     0.192 HD
BRANCH  10  13
ATOM     13  C   UNL d   1      20.700 -19.325   0.159  0.00  0.00     0.067 A 
ATOM     14  C   UNL d   1      20.553 -19.474   1.555  0.00  0.00     0.022 A 
ATOM     15  C   UNL d   1      19.455 -20.158   2.100  0.00  0.00     0.037 A 
ATOM     16  C   UNL d   1      18.477 -20.658   1.248  0.00  0.00     0.068 A 
ATOM     17  C   UNL d   1      18.603 -20.521  -0.133  0.00  0.00     0.074 A 
ATOM     18  C   UNL d   1      19.707 -19.846  -0.674  0.00  0.00     0.084 A 
BRANCH  16  19
ATOM     19  O   UNL d   1      17.360 -21.281   1.726  0.00  0.00    -0.361 OA
ATOM     20  H   UNL d   1      17.196 -22.090   1.213  0.00  0.00     0.217 HD
ENDBRANCH  16  19
BRANCH  18  21
ATOM     21  O   UNL d   1      19.812 -19.700  -2.031  0.00  0.00    -0.360 OA
ATOM     22  H   UNL d   1      20.613 -19.186  -2.231  0.00  0.00     0.217 HD
ENDBRANCH  18  21
ENDBRANCH  10  13
ENDBRANCH   8   9
ENDBRANCH   4   7
BRANCH   1  23
ATOM     23  O   UNL d   1      28.491 -14.149  -3.414  0.00  0.00    -0.275 OA
BRANCH  23  24
ATOM     24  C   UNL d   1      28.683 -14.077  -4.792  0.00  0.00     0.298 C 
ATOM     25  O   UNL d   1      28.245 -13.192  -5.528  0.00  0.00    -0.259 OA
BRANCH  24  26
ATOM     26  C   UNL d   1      29.469 -15.219  -5.362  0.00  0.00     0.040 A 
ATOM     27  C   UNL d   1      30.073 -15.027  -6.618  0.00  0.00     0.020 A 
ATOM     28  C   UNL d   1      30.743 -16.071  -7.269  0.00  0.00     0.038 A 
ATOM     29  C   UNL d   1      30.879 -17.313  -6.652  0.00  0.00     0.068 A 
ATOM     30  C   UNL d   1      30.319 -17.503  -5.387  0.00  0.00     0.038 A 
ATOM     31  C   UNL d   1      29.607 -16.467  -4.746  0.00  0.00     0.020 A 
BRANCH  29  32
ATOM     32  O   UNL d   1      31.659 -18.227  -7.311  0.00  0.00    -0.351 OA
BRANCH  32  33
ATOM     33  C   UNL d   1      30.961 -19.271  -7.994  0.00  0.00     0.175 C 
BRANCH  33  34
ATOM     34  C   UNL d   1      31.506 -20.621  -7.525  0.00  0.00     0.026 C 
BRANCH  34  35
ATOM     35  C   UNL d   1      31.154 -20.880  -6.061  0.00  0.00    -0.002 C 
ATOM     36  C   UNL d   1      32.402 -20.986  -5.200  0.00  0.00     0.005 C 
ENDBRANCH  34  35
ENDBRANCH  33  34
ENDBRANCH  32  33
ENDBRANCH  29  32
ENDBRANCH  24  26
ENDBRANCH  23  24
ENDBRANCH   1  23
TORSDOF 12
ENDMDL
MODEL 5
REMARK VINA RESULT:    -9.033      5.056     11.352
REMARK INTER + INTRA:         -14.319
REMARK INTER:                 -12.613
REMARK INTRA:                  -1.706
REMARK CONF_INDEPENDENT:        3.580
REMARK UNBOUND:                -1.706
REMARK  12 active torsions:
REMARK  status: ('A' for Active; 'I' for Inactive)
REMARK    1  A    between atoms: C_2  and  C_3 
REMARK    2  A    between atoms: C_3  and  C_4 
REMARK    3  A    between atoms: C_4  and  O_5 
REMARK    4  A    between atoms: O_5  and  C_6 
REMARK    5  A    between atoms: C_9  and  C_10 
REMARK    6  A    between atoms: C_10  and  O_12 
REMARK    7  A    between atoms: O_12  and  C_13 
REMARK    8  A    between atoms: C_16  and  C_17 
REMARK    9  A    between atoms: N_18  and  N_19 
REMARK       I    between atoms: N_19  and  C_20 
REMARK   10  A    between atoms: C_20  and  C_22 
REMARK   11  A    between atoms: C_25  and  O_26 
REMARK   12  A    between atoms: C_28  and  O_29 
ROOT
ATOM      1  C   UNL d   1      26.481 -16.018  -1.875  0.00  0.00     0.079 A 
ATOM      2  C   UNL d   1      26.827 -14.792  -1.297  0.00  0.00     0.038 A 
ATOM      3  C   UNL d   1      26.400 -13.581  -1.891  0.00  0.00     0.015 A 
ATOM      4  C   UNL d   1      25.683 -13.593  -3.098  0.00  0.00    -0.017 A 
ATOM      5  C   UNL d   1      25.321 -14.826  -3.649  0.00  0.00     0.015 A 
ATOM      6  C   UNL d   1      25.698 -16.030  -3.031  0.00  0.00     0.038 A 
ENDROOT
BRANCH   4   7
ATOM      7  C   UNL d   1      25.351 -12.322  -3.825  0.00  0.00     0.150 C 
ATOM      8  N   UNL d   1      25.828 -11.179  -3.435  0.00  0.00    -0.183 NA
BRANCH   8   9
ATOM      9  N   UNL d   1      25.456 -10.034  -4.109  0.00  0.00    -0.243 N 
ATOM     10  C   UNL d   1      25.675  -9.951  -5.487  0.00  0.00     0.274 C 
ATOM     11  O   UNL d   1      26.155 -10.851  -6.177  0.00  0.00    -0.266 OA
ATOM     12  H   UNL d   1      25.111  -9.226  -3.600  0.00  0.00     0.192 HD
BRANCH  10  13
ATOM     13  C   UNL d   1      25.287  -8.683  -6.185  0.00  0.00     0.067 A 
ATOM     14  C   UNL d   1      26.052  -8.264  -7.295  0.00  0.00     0.022 A 
ATOM     15  C   UNL d   1      25.842  -7.010  -7.889  0.00  0.00     0.037 A 
ATOM     16  C   UNL d   1      24.834  -6.188  -7.401  0.00  0.00     0.068 A 
ATOM     17  C   UNL d   1      24.066  -6.583  -6.307  0.00  0.00     0.074 A 
ATOM     18  C   UNL d   1      24.286  -7.832  -5.708  0.00  0.00     0.084 A 
BRANCH  16  19
ATOM     19  O   UNL d   1      24.548  -4.984  -7.977  0.00  0.00    -0.361 OA
ATOM     20  H   UNL d   1      23.692  -5.039  -8.434  0.00  0.00     0.217 HD
ENDBRANCH  16  19
BRANCH  18  21
ATOM     21  O   UNL d   1      23.515  -8.219  -4.646  0.00  0.00    -0.360 OA
ATOM     22  H   UNL d   1      24.033  -8.125  -3.829  0.00  0.00     0.217 HD
ENDBRANCH  18  21
ENDBRANCH  10  13
ENDBRANCH   8   9
ENDBRANCH   4   7
BRANCH   1  23
ATOM     23  O   UNL d   1      26.868 -17.218  -1.213  0.00  0.00    -0.275 OA
BRANCH  23  24
ATOM     24  C   UNL d   1      26.132 -17.634  -0.106  0.00  0.00     0.298 C 
ATOM     25  O   UNL d   1      26.606 -18.011   0.966  0.00  0.00    -0.259 OA
BRANCH  24  26
ATOM     26  C   UNL d   1      24.649 -17.623  -0.317  0.00  0.00     0.040 A 
ATOM     27  C   UNL d   1      24.009 -18.864  -0.492  0.00  0.00     0.020 A 
ATOM     28  C   UNL d   1      22.642 -18.942  -0.791  0.00  0.00     0.038 A 
ATOM     29  C   UNL d   1      21.870 -17.784  -0.862  0.00  0.00     0.068 A 
ATOM     30  C   UNL d   1      22.487 -16.548  -0.651  0.00  0.00     0.038 A 
ATOM     31  C   UNL d   1      23.870 -16.463  -0.389  0.00  0.00     0.020 A 
BRANCH  29  32
ATOM     32  O   UNL d   1      20.524 -17.971  -1.034  0.00  0.00    -0.351 OA
BRANCH  32  33
ATOM     33  C   UNL d   1      20.073 -19.327  -1.024  0.00  0.00     0.175 C 
BRANCH  33  34
ATOM     34  C   UNL d   1      19.450 -19.632   0.340  0.00  0.00     0.026 C 
BRANCH  34  35
ATOM     35  C   UNL d   1      19.273 -21.136   0.542  0.00  0.00    -0.002 C 
ATOM     36  C   UNL d   1      18.027 -21.443   1.355  0.00  0.00     0.005 C 
ENDBRANCH  34  35
ENDBRANCH  33  34
ENDBRANCH  32  33
ENDBRANCH  29  32
ENDBRANCH  24  26
ENDBRANCH  23  24
ENDBRANCH   1  23
TORSDOF 12
ENDMDL
MODEL 6
REMARK VINA RESULT:    -8.911      1.670      2.325
REMARK INTER + INTRA:         -14.205
REMARK INTER:                 -12.490
REMARK INTRA:                  -1.714
REMARK CONF_INDEPENDENT:        3.580
REMARK UNBOUND:                -1.714
REMARK  12 active torsions:
REMARK  status: ('A' for Active; 'I' for Inactive)
REMARK    1  A    between atoms: C_2  and  C_3 
REMARK    2  A    between atoms: C_3  and  C_4 
REMARK    3  A    between atoms: C_4  and  O_5 
REMARK    4  A    between atoms: O_5  and  C_6 
REMARK    5  A    between atoms: C_9  and  C_10 
REMARK    6  A    between atoms: C_10  and  O_12 
REMARK    7  A    between atoms: O_12  and  C_13 
REMARK    8  A    between atoms: C_16  and  C_17 
REMARK    9  A    between atoms: N_18  and  N_19 
REMARK       I    between atoms: N_19  and  C_20 
REMARK   10  A    between atoms: C_20  and  C_22 
REMARK   11  A    between atoms: C_25  and  O_26 
REMARK   12  A    between atoms: C_28  and  O_29 
ROOT
ATOM      1  C   UNL d   1      27.619 -15.327  -3.205  0.00  0.00     0.079 A 
ATOM      2  C   UNL d   1      26.395 -14.887  -3.721  0.00  0.00     0.038 A 
ATOM      3  C   UNL d   1      25.182 -15.284  -3.109  0.00  0.00     0.015 A 
ATOM      4  C   UNL d   1      25.191 -16.173  -2.021  0.00  0.00    -0.017 A 
ATOM      5  C   UNL d   1      26.423 -16.582  -1.501  0.00  0.00     0.015 A 
ATOM      6  C   UNL d   1      27.628 -16.145  -2.074  0.00  0.00     0.038 A 
ENDROOT
BRANCH   4   7
ATOM      7  C   UNL d   1      23.917 -16.728  -1.453  0.00  0.00     0.150 C 
ATOM      8  N   UNL d   1      23.812 -17.015  -0.191  0.00  0.00    -0.183 NA
BRANCH   8   9
ATOM      9  N   UNL d   1      22.636 -17.566   0.274  0.00  0.00    -0.243 N 
ATOM     10  C   UNL d   1      22.136 -18.721  -0.335  0.00  0.00     0.274 C 
ATOM     11  O   UNL d   1      22.688 -19.325  -1.256  0.00  0.00    -0.266 OA
ATOM     12  H   UNL d   1      22.091 -17.092   0.987  0.00  0.00     0.192 HD
BRANCH  10  13
ATOM     13  C   UNL d   1      20.840 -19.278   0.172  0.00  0.00     0.067 A 
ATOM     14  C   UNL d   1      20.655 -19.390   1.566  0.00  0.00     0.022 A 
ATOM     15  C   UNL d   1      19.536 -20.050   2.099  0.00  0.00     0.037 A 
ATOM     16  C   UNL d   1      18.576 -20.562   1.236  0.00  0.00     0.068 A 
ATOM     17  C   UNL d   1      18.738 -20.461  -0.145  0.00  0.00     0.074 A 
ATOM     18  C   UNL d   1      19.863 -19.811  -0.674  0.00  0.00     0.084 A 
BRANCH  16  19
ATOM     19  O   UNL d   1      17.441 -21.162   1.700  0.00  0.00    -0.361 OA
ATOM     20  H   UNL d   1      17.141 -21.828   1.058  0.00  0.00     0.217 HD
ENDBRANCH  16  19
BRANCH  18  21
ATOM     21  O   UNL d   1      20.005 -19.700  -2.031  0.00  0.00    -0.360 OA
ATOM     22  H   UNL d   1      20.951 -19.626  -2.243  0.00  0.00     0.217 HD
ENDBRANCH  18  21
ENDBRANCH  10  13
ENDBRANCH   8   9
ENDBRANCH   4   7
BRANCH   1  23
ATOM     23  O   UNL d   1      28.821 -14.852  -3.804  0.00  0.00    -0.275 OA
BRANCH  23  24
ATOM     24  C   UNL d   1      29.138 -15.281  -5.090  0.00  0.00     0.298 C 
ATOM     25  O   UNL d   1      28.898 -14.664  -6.128  0.00  0.00    -0.259 OA
BRANCH  24  26
ATOM     26  C   UNL d   1      29.794 -16.627  -5.143  0.00  0.00     0.040 A 
ATOM     27  C   UNL d   1      30.102 -17.248  -3.918  0.00  0.00     0.020 A 
ATOM     28  C   UNL d   1      30.803 -18.460  -3.873  0.00  0.00     0.038 A 
ATOM     29  C   UNL d   1      31.158 -19.112  -5.053  0.00  0.00     0.068 A 
ATOM     30  C   UNL d   1      30.822 -18.525  -6.275  0.00  0.00     0.038 A 
ATOM     31  C   UNL d   1      30.153 -17.285  -6.325  0.00  0.00     0.020 A 
BRANCH  29  32
ATOM     32  O   UNL d   1      31.727 -20.349  -4.905  0.00  0.00    -0.351 OA
BRANCH  32  33
ATOM     33  C   UNL d   1      30.850 -21.397  -4.484  0.00  0.00     0.175 C 
BRANCH  33  34
ATOM     34  C   UNL d   1      31.148 -21.735  -3.022  0.00  0.00     0.026 C 
BRANCH  34  35
ATOM     35  C   UNL d   1      30.696 -23.154  -2.680  0.00  0.00    -0.002 C 
ATOM     36  C   UNL d   1      30.744 -24.060  -3.899  0.00  0.00     0.005 C 
ENDBRANCH  34  35
ENDBRANCH  33  34
ENDBRANCH  32  33
ENDBRANCH  29  32
ENDBRANCH  24  26
ENDBRANCH  23  24
ENDBRANCH   1  23
TORSDOF 12
ENDMDL
MODEL 7
REMARK VINA RESULT:    -8.786      7.498     11.120
REMARK INTER + INTRA:         -14.125
REMARK INTER:                 -12.366
REMARK INTRA:                  -1.759
REMARK CONF_INDEPENDENT:        3.580
REMARK UNBOUND:                -1.759
REMARK  12 active torsions:
REMARK  status: ('A' for Active; 'I' for Inactive)
REMARK    1  A    between atoms: C_2  and  C_3 
REMARK    2  A    between atoms: C_3  and  C_4 
REMARK    3  A    between atoms: C_4  and  O_5 
REMARK    4  A    between atoms: O_5  and  C_6 
REMARK    5  A    between atoms: C_9  and  C_10 
REMARK    6  A    between atoms: C_10  and  O_12 
REMARK    7  A    between atoms: O_12  and  C_13 
REMARK    8  A    between atoms: C_16  and  C_17 
REMARK    9  A    between atoms: N_18  and  N_19 
REMARK       I    between atoms: N_19  and  C_20 
REMARK   10  A    between atoms: C_20  and  C_22 
REMARK   11  A    between atoms: C_25  and  O_26 
REMARK   12  A    between atoms: C_28  and  O_29 
ROOT
ATOM      1  C   UNL d   1      26.886 -14.164   0.164  0.00  0.00     0.079 A 
ATOM      2  C   UNL d   1      26.322 -13.264   1.075  0.00  0.00     0.038 A 
ATOM      3  C   UNL d   1      26.883 -13.114   2.365  0.00  0.00     0.015 A 
ATOM      4  C   UNL d   1      27.967 -13.910   2.768  0.00  0.00    -0.017 A 
ATOM      5  C   UNL d   1      28.536 -14.786   1.837  0.00  0.00     0.015 A 
ATOM      6  C   UNL d   1      28.015 -14.896   0.539  0.00  0.00     0.038 A 
ENDROOT
BRANCH   4   7
ATOM      7  C   UNL d   1      28.482 -13.878   4.178  0.00  0.00     0.150 C 
ATOM      8  N   UNL d   1      28.062 -14.726   5.067  0.00  0.00    -0.183 NA
BRANCH   8   9
ATOM      9  N   UNL d   1      28.530 -14.625   6.360  0.00  0.00    -0.243 N 
ATOM     10  C   UNL d   1      28.433 -13.400   7.028  0.00  0.00     0.274 C 
ATOM     11  O   UNL d   1      27.919 -12.384   6.559  0.00  0.00    -0.266 OA
ATOM     12  H   UNL d   1      29.022 -15.400   6.793  0.00  0.00     0.192 HD
BRANCH  10  13
ATOM     13  C   UNL d   1      28.978 -13.314   8.422  0.00  0.00     0.067 A 
ATOM     14  C   UNL d   1      28.348 -12.447   9.339  0.00  0.00     0.022 A 
ATOM     15  C   UNL d   1      28.904 -12.200  10.604  0.00  0.00     0.037 A 
ATOM     16  C   UNL d   1      30.072 -12.856  10.971  0.00  0.00     0.068 A 
ATOM     17  C   UNL d   1      30.710 -13.718  10.081  0.00  0.00     0.074 A 
ATOM     18  C   UNL d   1      30.157 -13.954   8.814  0.00  0.00     0.084 A 
BRANCH  16  19
ATOM     19  O   UNL d   1      30.625 -12.698  12.209  0.00  0.00    -0.361 OA
ATOM     20  H   UNL d   1      31.327 -12.026  12.167  0.00  0.00     0.217 HD
ENDBRANCH  16  19
BRANCH  18  21
ATOM     21  O   UNL d   1      30.780 -14.816   7.953  0.00  0.00    -0.360 OA
ATOM     22  H   UNL d   1      31.027 -15.622   8.439  0.00  0.00     0.217 HD
ENDBRANCH  18  21
ENDBRANCH  10  13
ENDBRANCH   8   9
ENDBRANCH   4   7
BRANCH   1  23
ATOM     23  O   UNL d   1      26.338 -14.239  -1.149  0.00  0.00    -0.275 OA
BRANCH  23  24
ATOM     24  C   UNL d   1      26.343 -15.469  -1.802  0.00  0.00     0.298 C 
ATOM     25  O   UNL d   1      27.058 -15.767  -2.758  0.00  0.00    -0.259 OA
BRANCH  24  26
ATOM     26  C   UNL d   1      25.349 -16.453  -1.262  0.00  0.00     0.040 A 
ATOM     27  C   UNL d   1      23.985 -16.131  -1.385  0.00  0.00     0.020 A 
ATOM     28  C   UNL d   1      22.992 -16.945  -0.823  0.00  0.00     0.038 A 
ATOM     29  C   UNL d   1      23.337 -18.132  -0.178  0.00  0.00     0.068 A 
ATOM     30  C   UNL d   1      24.687 -18.482  -0.085  0.00  0.00     0.038 A 
ATOM     31  C   UNL d   1      25.691 -17.645  -0.614  0.00  0.00     0.020 A 
BRANCH  29  32
ATOM     32  O   UNL d   1      22.292 -18.919   0.225  0.00  0.00    -0.351 OA
BRANCH  32  33
ATOM     33  C   UNL d   1      21.086 -18.799  -0.532  0.00  0.00     0.175 C 
BRANCH  33  34
ATOM     34  C   UNL d   1      20.258 -20.073  -0.353  0.00  0.00     0.026 C 
BRANCH  34  35
ATOM     35  C   UNL d   1      19.161 -19.876   0.692  0.00  0.00    -0.002 C 
ATOM     36  C   UNL d   1      18.363 -21.151   0.906  0.00  0.00     0.005 C 
ENDBRANCH  34  35
ENDBRANCH  33  34
ENDBRANCH  32  33
ENDBRANCH  29  32
ENDBRANCH  24  26
ENDBRANCH  23  24
ENDBRANCH   1  23
TORSDOF 12
ENDMDL
MODEL 8
REMARK VINA RESULT:    -8.742      4.352      7.108
REMARK INTER + INTRA:         -14.313
REMARK INTER:                 -12.321
REMARK INTRA:                  -1.992
REMARK CONF_INDEPENDENT:        3.580
REMARK UNBOUND:                -1.992
REMARK  12 active torsions:
REMARK  status: ('A' for Active; 'I' for Inactive)
REMARK    1  A    between atoms: C_2  and  C_3 
REMARK    2  A    between atoms: C_3  and  C_4 
REMARK    3  A    between atoms: C_4  and  O_5 
REMARK    4  A    between atoms: O_5  and  C_6 
REMARK    5  A    between atoms: C_9  and  C_10 
REMARK    6  A    between atoms: C_10  and  O_12 
REMARK    7  A    between atoms: O_12  and  C_13 
REMARK    8  A    between atoms: C_16  and  C_17 
REMARK    9  A    between atoms: N_18  and  N_19 
REMARK       I    between atoms: N_19  and  C_20 
REMARK   10  A    between atoms: C_20  and  C_22 
REMARK   11  A    between atoms: C_25  and  O_26 
REMARK   12  A    between atoms: C_28  and  O_29 
ROOT
ATOM      1  C   UNL d   1      27.578 -15.171  -2.058  0.00  0.00     0.079 A 
ATOM      2  C   UNL d   1      27.639 -16.278  -1.204  0.00  0.00     0.038 A 
ATOM      3  C   UNL d   1      26.502 -17.100  -1.023  0.00  0.00     0.015 A 
ATOM      4  C   UNL d   1      25.284 -16.778  -1.644  0.00  0.00    -0.017 A 
ATOM      5  C   UNL d   1      25.246 -15.684  -2.516  0.00  0.00     0.015 A 
ATOM      6  C   UNL d   1      26.389 -14.900  -2.739  0.00  0.00     0.038 A 
ENDROOT
BRANCH   4   7
ATOM      7  C   UNL d   1      24.027 -17.543  -1.349  0.00  0.00     0.150 C 
ATOM      8  N   UNL d   1      22.878 -16.944  -1.263  0.00  0.00    -0.183 NA
BRANCH   8   9
ATOM      9  N   UNL d   1      21.760 -17.686  -0.943  0.00  0.00    -0.243 N 
ATOM     10  C   UNL d   1      21.780 -18.493   0.199  0.00  0.00     0.274 C 
ATOM     11  O   UNL d   1      22.725 -18.575   0.985  0.00  0.00    -0.266 OA
ATOM     12  H   UNL d   1      20.965 -17.719  -1.573  0.00  0.00     0.192 HD
BRANCH  10  13
ATOM     13  C   UNL d   1      20.561 -19.310   0.504  0.00  0.00     0.067 A 
ATOM     14  C   UNL d   1      20.239 -19.562   1.854  0.00  0.00     0.022 A 
ATOM     15  C   UNL d   1      19.209 -20.450   2.202  0.00  0.00     0.037 A 
ATOM     16  C   UNL d   1      18.468 -21.056   1.195  0.00  0.00     0.068 A 
ATOM     17  C   UNL d   1      18.768 -20.820  -0.146  0.00  0.00     0.074 A 
ATOM     18  C   UNL d   1      19.805 -19.940  -0.488  0.00  0.00     0.084 A 
BRANCH  16  19
ATOM     19  O   UNL d   1      17.418 -21.882   1.476  0.00  0.00    -0.361 OA
ATOM     20  H   UNL d   1      17.219 -22.429   0.697  0.00  0.00     0.217 HD
ENDBRANCH  16  19
BRANCH  18  21
ATOM     21  O   UNL d   1      20.080 -19.700  -1.807  0.00  0.00    -0.360 OA
ATOM     22  H   UNL d   1      19.242 -19.625  -2.295  0.00  0.00     0.217 HD
ENDBRANCH  18  21
ENDBRANCH  10  13
ENDBRANCH   8   9
ENDBRANCH   4   7
BRANCH   1  23
ATOM     23  O   UNL d   1      28.761 -14.407  -2.271  0.00  0.00    -0.275 OA
BRANCH  23  24
ATOM     24  C   UNL d   1      28.956 -13.258  -1.509  0.00  0.00     0.298 C 
ATOM     25  O   UNL d   1      29.562 -12.252  -1.877  0.00  0.00    -0.259 OA
BRANCH  24  26
ATOM     26  C   UNL d   1      28.379 -13.332  -0.128  0.00  0.00     0.040 A 
ATOM     27  C   UNL d   1      28.975 -14.229   0.777  0.00  0.00     0.020 A 
ATOM     28  C   UNL d   1      28.442 -14.435   2.056  0.00  0.00     0.038 A 
ATOM     29  C   UNL d   1      27.334 -13.703   2.482  0.00  0.00     0.068 A 
ATOM     30  C   UNL d   1      26.758 -12.780   1.606  0.00  0.00     0.038 A 
ATOM     31  C   UNL d   1      27.268 -12.600   0.304  0.00  0.00     0.020 A 
BRANCH  29  32
ATOM     32  O   UNL d   1      26.965 -13.882   3.789  0.00  0.00    -0.351 OA
BRANCH  32  33
ATOM     33  C   UNL d   1      27.782 -13.234   4.767  0.00  0.00     0.175 C 
BRANCH  33  34
ATOM     34  C   UNL d   1      28.153 -14.246   5.853  0.00  0.00     0.026 C 
BRANCH  34  35
ATOM     35  C   UNL d   1      29.667 -14.429   5.942  0.00  0.00    -0.002 C 
ATOM     36  C   UNL d   1      30.263 -14.792   4.593  0.00  0.00     0.005 C 
ENDBRANCH  34  35
ENDBRANCH  33  34
ENDBRANCH  32  33
ENDBRANCH  29  32
ENDBRANCH  24  26
ENDBRANCH  23  24
ENDBRANCH   1  23
TORSDOF 12
ENDMDL
MODEL 9
REMARK VINA RESULT:    -8.302      1.612      2.525
REMARK INTER + INTRA:         -13.897
REMARK INTER:                 -11.882
REMARK INTRA:                  -2.015
REMARK CONF_INDEPENDENT:        3.580
REMARK UNBOUND:                -2.015
REMARK  12 active torsions:
REMARK  status: ('A' for Active; 'I' for Inactive)
REMARK    1  A    between atoms: C_2  and  C_3 
REMARK    2  A    between atoms: C_3  and  C_4 
REMARK    3  A    between atoms: C_4  and  O_5 
REMARK    4  A    between atoms: O_5  and  C_6 
REMARK    5  A    between atoms: C_9  and  C_10 
REMARK    6  A    between atoms: C_10  and  O_12 
REMARK    7  A    between atoms: O_12  and  C_13 
REMARK    8  A    between atoms: C_16  and  C_17 
REMARK    9  A    between atoms: N_18  and  N_19 
REMARK       I    between atoms: N_19  and  C_20 
REMARK   10  A    between atoms: C_20  and  C_22 
REMARK   11  A    between atoms: C_25  and  O_26 
REMARK   12  A    between atoms: C_28  and  O_29 
ROOT
ATOM      1  C   UNL d   1      28.624 -15.800  -1.060  0.00  0.00     0.079 A 
ATOM      2  C   UNL d   1      28.625 -16.878  -0.167  0.00  0.00     0.038 A 
ATOM      3  C   UNL d   1      27.414 -17.535   0.155  0.00  0.00     0.015 A 
ATOM      4  C   UNL d   1      26.193 -17.074  -0.364  0.00  0.00    -0.017 A 
ATOM      5  C   UNL d   1      26.212 -16.013  -1.275  0.00  0.00     0.015 A 
ATOM      6  C   UNL d   1      27.419 -15.395  -1.638  0.00  0.00     0.038 A 
ENDROOT
BRANCH   4   7
ATOM      7  C   UNL d   1      24.883 -17.656   0.081  0.00  0.00     0.150 C 
ATOM      8  N   UNL d   1      23.757 -17.079  -0.209  0.00  0.00    -0.183 NA
BRANCH   8   9
ATOM      9  N   UNL d   1      22.583 -17.629   0.263  0.00  0.00    -0.243 N 
ATOM     10  C   UNL d   1      22.049 -18.752  -0.376  0.00  0.00     0.274 C 
ATOM     11  O   UNL d   1      22.569 -19.330  -1.331  0.00  0.00    -0.266 OA
ATOM     12  H   UNL d   1      22.063 -17.174   1.006  0.00  0.00     0.192 HD
BRANCH  10  13
ATOM     13  C   UNL d   1      20.757 -19.308   0.142  0.00  0.00     0.067 A 
ATOM     14  C   UNL d   1      20.590 -19.436   1.537  0.00  0.00     0.022 A 
ATOM     15  C   UNL d   1      19.475 -20.095   2.078  0.00  0.00     0.037 A 
ATOM     16  C   UNL d   1      18.499 -20.590   1.221  0.00  0.00     0.068 A 
ATOM     17  C   UNL d   1      18.644 -20.473  -0.160  0.00  0.00     0.074 A 
ATOM     18  C   UNL d   1      19.765 -19.824  -0.696  0.00  0.00     0.084 A 
BRANCH  16  19
ATOM     19  O   UNL d   1      17.367 -21.188   1.694  0.00  0.00    -0.361 OA
ATOM     20  H   UNL d   1      17.412 -22.145   1.525  0.00  0.00     0.217 HD
ENDBRANCH  16  19
BRANCH  18  21
ATOM     21  O   UNL d   1      19.889 -19.697  -2.053  0.00  0.00    -0.360 OA
ATOM     22  H   UNL d   1      20.832 -19.733  -2.288  0.00  0.00     0.217 HD
ENDBRANCH  18  21
ENDBRANCH  10  13
ENDBRANCH   8   9
ENDBRANCH   4   7
BRANCH   1  23
ATOM     23  O   UNL d   1      29.869 -15.207  -1.415  0.00  0.00    -0.275 OA
BRANCH  23  24
ATOM     24  C   UNL d   1      30.932 -16.043  -1.750  0.00  0.00     0.298 C 
ATOM     25  O   UNL d   1      32.008 -16.103  -1.156  0.00  0.00    -0.259 OA
BRANCH  24  26
ATOM     26  C   UNL d   1      30.686 -16.890  -2.962  0.00  0.00     0.040 A 
ATOM     27  C   UNL d   1      31.160 -18.215  -2.935  0.00  0.00     0.020 A 
ATOM     28  C   UNL d   1      31.062 -19.045  -4.059  0.00  0.00     0.038 A 
ATOM     29  C   UNL d   1      30.431 -18.592  -5.216  0.00  0.00     0.068 A 
ATOM     30  C   UNL d   1      29.920 -17.292  -5.240  0.00  0.00     0.038 A 
ATOM     31  C   UNL d   1      30.054 -16.439  -4.125  0.00  0.00     0.020 A 
BRANCH  29  32
ATOM     32  O   UNL d   1      30.271 -19.517  -6.213  0.00  0.00    -0.351 OA
BRANCH  32  33
ATOM     33  C   UNL d   1      31.044 -19.305  -7.397  0.00  0.00     0.175 C 
BRANCH  33  34
ATOM     34  C   UNL d   1      32.509 -19.106  -7.003  0.00  0.00     0.026 C 
BRANCH  34  35
ATOM     35  C   UNL d   1      33.027 -17.747  -7.472  0.00  0.00    -0.002 C 
ATOM     36  C   UNL d   1      31.885 -16.794  -7.778  0.00  0.00     0.005 C 
ENDBRANCH  34  35
ENDBRANCH  33  34
ENDBRANCH  32  33
ENDBRANCH  29  32
ENDBRANCH  24  26
ENDBRANCH  23  24
ENDBRANCH   1  23
TORSDOF 12
ENDMDL
