MODEL 1
REMARK VINA RESULT:    -7.642      0.000      0.000
REMARK INTER + INTRA:         -12.429
REMARK INTER:                 -10.923
REMARK INTRA:                  -1.505
REMARK CONF_INDEPENDENT:        3.281
REMARK UNBOUND:                -1.505
REMARK  11 active torsions:
REMARK  status: ('A' for Active; 'I' for Inactive)
REMARK    1  A    between atoms: C_2  and  C_3 
REMARK    2  A    between atoms: C_3  and  C_4 
REMARK    3  A    between atoms: C_4  and  C_5 
REMARK    4  A    between atoms: C_5  and  N_6 
REMARK    5  A    between atoms: N_6  and  C_7 
REMARK    6  A    between atoms: C_7  and  N_9 
REMARK    7  A    between atoms: N_9  and  N_10 
REMARK       I    between atoms: N_10  and  C_11 
REMARK    8  A    between atoms: C_11  and  C_13 
REMARK    9  A    between atoms: C_13  and  O_14 
REMARK   10  A    between atoms: O_14  and  N_15 
REMARK   11  A    between atoms: C_16  and  C_18 
ROOT
ATOM      1  N   UNL d   1      25.656 -13.463  -3.154  0.00  0.00    -0.266 N 
ATOM      2  C   UNL d   1      25.547 -14.696  -3.787  0.00  0.00     0.262 C 
ATOM      3  O   UNL d   1      25.154 -14.767  -4.958  0.00  0.00    -0.269 OA
ATOM      4  H   UNL d   1      25.981 -13.342  -2.196  0.00  0.00     0.190 HD
ENDROOT
BRANCH   2   5
ATOM      5  C   UNL d   1      25.944 -15.946  -2.949  0.00  0.00     0.308 C 
BRANCH   5   6
ATOM      6  O   UNL d   1      26.090 -15.549  -1.579  0.00  0.00    -0.247 OA
BRANCH   6   7
ATOM      7  N   UNL d   1      26.806 -16.494  -0.809  0.00  0.00    -0.138 NA
ATOM      8  C   UNL d   1      26.007 -17.385  -0.272  0.00  0.00     0.068 C 
ATOM      9  C   UNL d   1      26.602 -18.441   0.653  0.00  0.00     0.074 C 
BRANCH   8  10
ATOM     10  C   UNL d   1      24.527 -17.479  -0.498  0.00  0.00    -0.007 A 
ATOM     11  C   UNL d   1      23.775 -16.303  -0.710  0.00  0.00     0.016 A 
ATOM     12  C   UNL d   1      22.385 -16.352  -0.857  0.00  0.00     0.040 A 
ATOM     13  C   UNL d   1      21.780 -17.588  -0.810  0.00  0.00     0.105 A 
ATOM     14  C   UNL d   1      22.509 -18.742  -0.637  0.00  0.00     0.105 A 
ATOM     15  O   UNL d   1      20.445 -17.825  -0.915  0.00  0.00    -0.323 OA
ATOM     16  C   UNL d   1      23.883 -18.726  -0.490  0.00  0.00     0.053 A 
ATOM     17  O   UNL d   1      21.717 -19.849  -0.608  0.00  0.00    -0.323 OA
ATOM     18  C   UNL d   1      20.406 -19.250  -0.694  0.00  0.00     0.352 A 
ENDBRANCH   8  10
ENDBRANCH   6   7
ENDBRANCH   5   6
ENDBRANCH   2   5
BRANCH   1  19
ATOM     19  N   UNL d   1      25.304 -12.244  -3.851  0.00  0.00    -0.274 N 
ATOM     20  H   UNL d   1      24.673 -12.363  -4.643  0.00  0.00     0.189 HD
BRANCH  19  21
ATOM     21  C   UNL d   1      25.804 -11.012  -3.429  0.00  0.00     0.186 C 
ATOM     22  S   UNL d   1      26.910 -10.895  -2.164  0.00  0.00    -0.040 SA
BRANCH  21  23
ATOM     23  N   UNL d   1      25.321  -9.908  -4.132  0.00  0.00    -0.366 N 
ATOM     24  H   UNL d   1      24.627 -10.047  -4.855  0.00  0.00     0.161 HD
BRANCH  23  25
ATOM     25  C   UNL d   1      25.766  -8.522  -3.883  0.00  0.00     0.122 C 
BRANCH  25  26
ATOM     26  C   UNL d   1      25.027  -7.438  -4.674  0.00  0.00     0.020 C 
BRANCH  26  27
ATOM     27  C   UNL d   1      23.603  -7.897  -5.041  0.00  0.00     0.001 C 
BRANCH  27  28
ATOM     28  C   UNL d   1      23.280  -7.619  -6.509  0.00  0.00    -0.004 C 
ATOM     29  C   UNL d   1      23.289  -6.128  -6.808  0.00  0.00     0.005 C 
ENDBRANCH  27  28
ENDBRANCH  26  27
ENDBRANCH  25  26
ENDBRANCH  23  25
ENDBRANCH  21  23
ENDBRANCH  19  21
ENDBRANCH   1  19
TORSDOF 11
ENDMDL
MODEL 2
REMARK VINA RESULT:    -7.389      4.542      9.034
REMARK INTER + INTRA:         -13.212
REMARK INTER:                 -10.671
REMARK INTRA:                  -2.541
REMARK CONF_INDEPENDENT:        3.281
REMARK UNBOUND:                -2.541
REMARK  11 active torsions:
REMARK  status: ('A' for Active; 'I' for Inactive)
REMARK    1  A    between atoms: C_2  and  C_3 
REMARK    2  A    between atoms: C_3  and  C_4 
REMARK    3  A    between atoms: C_4  and  C_5 
REMARK    4  A    between atoms: C_5  and  N_6 
REMARK    5  A    between atoms: N_6  and  C_7 
REMARK    6  A    between atoms: C_7  and  N_9 
REMARK    7  A    between atoms: N_9  and  N_10 
REMARK       I    between atoms: N_10  and  C_11 
REMARK    8  A    between atoms: C_11  and  C_13 
REMARK    9  A    between atoms: C_13  and  O_14 
REMARK   10  A    between atoms: O_14  and  N_15 
REMARK   11  A    between atoms: C_16  and  C_18 
ROOT
ATOM      1  N   UNL d   1      25.818 -15.822  -3.142  0.00  0.00    -0.266 N 
ATOM      2  C   UNL d   1      25.530 -14.877  -4.121  0.00  0.00     0.262 C 
ATOM      3  O   UNL d   1      24.432 -14.305  -4.136  0.00  0.00    -0.269 OA
ATOM      4  H   UNL d   1      26.706 -16.317  -3.075  0.00  0.00     0.190 HD
ENDROOT
BRANCH   2   5
ATOM      5  C   UNL d   1      26.648 -14.592  -5.165  0.00  0.00     0.308 C 
BRANCH   5   6
ATOM      6  O   UNL d   1      27.679 -15.576  -5.008  0.00  0.00    -0.247 OA
BRANCH   6   7
ATOM      7  N   UNL d   1      28.383 -15.443  -3.790  0.00  0.00    -0.138 NA
ATOM      8  C   UNL d   1      29.494 -16.142  -3.793  0.00  0.00     0.068 C 
ATOM      9  C   UNL d   1      30.344 -16.173  -2.529  0.00  0.00     0.074 C 
BRANCH   8  10
ATOM     10  C   UNL d   1      30.030 -16.922  -4.957  0.00  0.00    -0.007 A 
ATOM     11  C   UNL d   1      30.384 -16.249  -6.147  0.00  0.00     0.016 A 
ATOM     12  C   UNL d   1      30.823 -16.954  -7.272  0.00  0.00     0.040 A 
ATOM     13  C   UNL d   1      30.918 -18.324  -7.170  0.00  0.00     0.105 A 
ATOM     14  C   UNL d   1      30.606 -18.985  -6.004  0.00  0.00     0.105 A 
ATOM     15  O   UNL d   1      31.306 -19.171  -8.161  0.00  0.00    -0.323 OA
ATOM     16  C   UNL d   1      30.171 -18.315  -4.876  0.00  0.00     0.053 A 
ATOM     17  O   UNL d   1      30.756 -20.333  -6.122  0.00  0.00    -0.323 OA
ATOM     18  C   UNL d   1      31.113 -20.447  -7.517  0.00  0.00     0.352 A 
ENDBRANCH   8  10
ENDBRANCH   6   7
ENDBRANCH   5   6
ENDBRANCH   2   5
BRANCH   1  19
ATOM     19  N   UNL d   1      24.838 -16.158  -2.131  0.00  0.00    -0.274 N 
ATOM     20  H   UNL d   1      23.896 -15.809  -2.306  0.00  0.00     0.189 HD
BRANCH  19  21
ATOM     21  C   UNL d   1      25.196 -16.917  -1.017  0.00  0.00     0.186 C 
ATOM     22  S   UNL d   1      26.807 -17.135  -0.577  0.00  0.00    -0.040 SA
BRANCH  21  23
ATOM     23  N   UNL d   1      24.125 -17.469  -0.313  0.00  0.00    -0.366 N 
ATOM     24  H   UNL d   1      23.876 -17.085   0.590  0.00  0.00     0.161 HD
BRANCH  23  25
ATOM     25  C   UNL d   1      23.313 -18.597  -0.811  0.00  0.00     0.122 C 
BRANCH  25  26
ATOM     26  C   UNL d   1      21.805 -18.341  -0.895  0.00  0.00     0.020 C 
BRANCH  26  27
ATOM     27  C   UNL d   1      21.022 -19.385  -0.079  0.00  0.00     0.001 C 
BRANCH  27  28
ATOM     28  C   UNL d   1      19.538 -19.394  -0.446  0.00  0.00    -0.004 C 
ATOM     29  C   UNL d   1      18.777 -20.452   0.338  0.00  0.00     0.005 C 
ENDBRANCH  27  28
ENDBRANCH  26  27
ENDBRANCH  25  26
ENDBRANCH  23  25
ENDBRANCH  21  23
ENDBRANCH  19  21
ENDBRANCH   1  19
TORSDOF 11
ENDMDL
MODEL 3
REMARK VINA RESULT:    -7.087      4.685      9.066
REMARK INTER + INTRA:         -13.161
REMARK INTER:                 -10.369
REMARK INTRA:                  -2.792
REMARK CONF_INDEPENDENT:        3.281
REMARK UNBOUND:                -2.792
REMARK  11 active torsions:
REMARK  status: ('A' for Active; 'I' for Inactive)
REMARK    1  A    between atoms: C_2  and  C_3 
REMARK    2  A    between atoms: C_3  and  C_4 
REMARK    3  A    between atoms: C_4  and  C_5 
REMARK    4  A    between atoms: C_5  and  N_6 
REMARK    5  A    between atoms: N_6  and  C_7 
REMARK    6  A    between atoms: C_7  and  N_9 
REMARK    7  A    between atoms: N_9  and  N_10 
REMARK       I    between atoms: N_10  and  C_11 
REMARK    8  A    between atoms: C_11  and  C_13 
REMARK    9  A    between atoms: C_13  and  O_14 
REMARK   10  A    between atoms: O_14  and  N_15 
REMARK   11  A    between atoms: C_16  and  C_18 
ROOT
ATOM      1  N   UNL d   1      26.931 -15.451  -2.970  0.00  0.00    -0.266 N 
ATOM      2  C   UNL d   1      25.935 -15.079  -3.867  0.00  0.00     0.262 C 
ATOM      3  O   UNL d   1      24.795 -14.812  -3.463  0.00  0.00    -0.269 OA
ATOM      4  H   UNL d   1      27.887 -15.673  -3.242  0.00  0.00     0.190 HD
ENDROOT
BRANCH   2   5
ATOM      5  C   UNL d   1      26.338 -15.018  -5.368  0.00  0.00     0.308 C 
BRANCH   5   6
ATOM      6  O   UNL d   1      27.653 -15.573  -5.511  0.00  0.00    -0.247 OA
BRANCH   6   7
ATOM      7  N   UNL d   1      28.668 -14.697  -5.063  0.00  0.00    -0.138 NA
ATOM      8  C   UNL d   1      29.844 -15.279  -5.065  0.00  0.00     0.068 C 
ATOM      9  C   UNL d   1      31.047 -14.501  -4.542  0.00  0.00     0.074 C 
BRANCH   8  10
ATOM     10  C   UNL d   1      30.131 -16.665  -5.560  0.00  0.00    -0.007 A 
ATOM     11  C   UNL d   1      30.079 -17.754  -4.663  0.00  0.00     0.016 A 
ATOM     12  C   UNL d   1      30.407 -19.049  -5.079  0.00  0.00     0.040 A 
ATOM     13  C   UNL d   1      30.760 -19.226  -6.398  0.00  0.00     0.105 A 
ATOM     14  C   UNL d   1      30.782 -18.176  -7.286  0.00  0.00     0.105 A 
ATOM     15  O   UNL d   1      31.126 -20.403  -6.973  0.00  0.00    -0.323 OA
ATOM     16  C   UNL d   1      30.462 -16.886  -6.905  0.00  0.00     0.053 A 
ATOM     17  O   UNL d   1      31.169 -18.566  -8.532  0.00  0.00    -0.323 OA
ATOM     18  C   UNL d   1      31.470 -19.959  -8.301  0.00  0.00     0.352 A 
ENDBRANCH   8  10
ENDBRANCH   6   7
ENDBRANCH   5   6
ENDBRANCH   2   5
BRANCH   1  19
ATOM     19  N   UNL d   1      26.649 -15.541  -1.552  0.00  0.00    -0.274 N 
ATOM     20  H   UNL d   1      27.031 -14.785  -0.984  0.00  0.00     0.189 HD
BRANCH  19  21
ATOM     21  C   UNL d   1      25.893 -16.596  -1.043  0.00  0.00     0.186 C 
ATOM     22  S   UNL d   1      26.584 -17.793  -0.080  0.00  0.00    -0.040 SA
BRANCH  21  23
ATOM     23  N   UNL d   1      24.542 -16.574  -1.391  0.00  0.00    -0.366 N 
ATOM     24  H   UNL d   1      24.260 -16.128  -2.254  0.00  0.00     0.161 HD
BRANCH  23  25
ATOM     25  C   UNL d   1      23.476 -17.174  -0.564  0.00  0.00     0.122 C 
BRANCH  25  26
ATOM     26  C   UNL d   1      22.783 -18.401  -1.167  0.00  0.00     0.020 C 
BRANCH  26  27
ATOM     27  C   UNL d   1      21.710 -18.954  -0.211  0.00  0.00     0.001 C 
BRANCH  27  28
ATOM     28  C   UNL d   1      20.427 -19.325  -0.956  0.00  0.00    -0.004 C 
ATOM     29  C   UNL d   1      19.356 -19.831  -0.001  0.00  0.00     0.005 C 
ENDBRANCH  27  28
ENDBRANCH  26  27
ENDBRANCH  25  26
ENDBRANCH  23  25
ENDBRANCH  21  23
ENDBRANCH  19  21
ENDBRANCH   1  19
TORSDOF 11
ENDMDL
MODEL 4
REMARK VINA RESULT:    -6.860      3.974      6.816
REMARK INTER + INTRA:         -12.861
REMARK INTER:                 -10.142
REMARK INTRA:                  -2.720
REMARK CONF_INDEPENDENT:        3.281
REMARK UNBOUND:                -2.720
REMARK  11 active torsions:
REMARK  status: ('A' for Active; 'I' for Inactive)
REMARK    1  A    between atoms: C_2  and  C_3 
REMARK    2  A    between atoms: C_3  and  C_4 
REMARK    3  A    between atoms: C_4  and  C_5 
REMARK    4  A    between atoms: C_5  and  N_6 
REMARK    5  A    between atoms: N_6  and  C_7 
REMARK    6  A    between atoms: C_7  and  N_9 
REMARK    7  A    between atoms: N_9  and  N_10 
REMARK       I    between atoms: N_10  and  C_11 
REMARK    8  A    between atoms: C_11  and  C_13 
REMARK    9  A    between atoms: C_13  and  O_14 
REMARK   10  A    between atoms: O_14  and  N_15 
REMARK   11  A    between atoms: C_16  and  C_18 
ROOT
ATOM      1  N   UNL d   1      27.674 -15.797  -3.788  0.00  0.00    -0.266 N 
ATOM      2  C   UNL d   1      26.936 -15.261  -4.839  0.00  0.00     0.262 C 
ATOM      3  O   UNL d   1      27.420 -15.200  -5.977  0.00  0.00    -0.269 OA
ATOM      4  H   UNL d   1      27.326 -15.880  -2.835  0.00  0.00     0.190 HD
ENDROOT
BRANCH   2   5
ATOM      5  C   UNL d   1      25.503 -14.761  -4.499  0.00  0.00     0.308 C 
BRANCH   5   6
ATOM      6  O   UNL d   1      25.121 -15.301  -3.227  0.00  0.00    -0.247 OA
BRANCH   6   7
ATOM      7  N   UNL d   1      25.888 -14.782  -2.159  0.00  0.00    -0.138 NA
ATOM      8  C   UNL d   1      25.601 -15.374  -1.024  0.00  0.00     0.068 C 
ATOM      9  C   UNL d   1      26.285 -14.889   0.249  0.00  0.00     0.074 C 
BRANCH   8  10
ATOM     10  C   UNL d   1      24.653 -16.524  -0.856  0.00  0.00    -0.007 A 
ATOM     11  C   UNL d   1      25.159 -17.820  -0.614  0.00  0.00     0.016 A 
ATOM     12  C   UNL d   1      24.305 -18.923  -0.520  0.00  0.00     0.040 A 
ATOM     13  C   UNL d   1      22.953 -18.697  -0.649  0.00  0.00     0.105 A 
ATOM     14  C   UNL d   1      22.448 -17.433  -0.851  0.00  0.00     0.105 A 
ATOM     15  O   UNL d   1      21.979 -19.645  -0.603  0.00  0.00    -0.323 OA
ATOM     16  C   UNL d   1      23.267 -16.323  -0.948  0.00  0.00     0.053 A 
ATOM     17  O   UNL d   1      21.091 -17.433  -0.963  0.00  0.00    -0.323 OA
ATOM     18  C   UNL d   1      20.813 -18.849  -0.894  0.00  0.00     0.352 A 
ENDBRANCH   8  10
ENDBRANCH   6   7
ENDBRANCH   5   6
ENDBRANCH   2   5
BRANCH   1  19
ATOM     19  N   UNL d   1      29.020 -16.283  -4.006  0.00  0.00    -0.274 N 
ATOM     20  H   UNL d   1      29.404 -16.099  -4.932  0.00  0.00     0.189 HD
BRANCH  19  21
ATOM     21  C   UNL d   1      29.712 -16.941  -2.989  0.00  0.00     0.186 C 
ATOM     22  S   UNL d   1      29.360 -16.675  -1.364  0.00  0.00    -0.040 SA
BRANCH  21  23
ATOM     23  N   UNL d   1      30.700 -17.824  -3.427  0.00  0.00    -0.366 N 
ATOM     24  H   UNL d   1      31.604 -17.819  -2.974  0.00  0.00     0.161 HD
BRANCH  23  25
ATOM     25  C   UNL d   1      30.505 -18.787  -4.530  0.00  0.00     0.122 C 
BRANCH  25  26
ATOM     26  C   UNL d   1      30.690 -18.221  -5.942  0.00  0.00     0.020 C 
BRANCH  26  27
ATOM     27  C   UNL d   1      30.733 -19.351  -6.987  0.00  0.00     0.001 C 
BRANCH  27  28
ATOM     28  C   UNL d   1      31.296 -18.864  -8.323  0.00  0.00    -0.004 C 
ATOM     29  C   UNL d   1      30.779 -19.701  -9.483  0.00  0.00     0.005 C 
ENDBRANCH  27  28
ENDBRANCH  26  27
ENDBRANCH  25  26
ENDBRANCH  23  25
ENDBRANCH  21  23
ENDBRANCH  19  21
ENDBRANCH   1  19
TORSDOF 11
ENDMDL
MODEL 5
REMARK VINA RESULT:    -6.806      4.480      8.467
REMARK INTER + INTRA:         -13.373
REMARK INTER:                 -10.087
REMARK INTRA:                  -3.286
REMARK CONF_INDEPENDENT:        3.281
REMARK UNBOUND:                -3.286
REMARK  11 active torsions:
REMARK  status: ('A' for Active; 'I' for Inactive)
REMARK    1  A    between atoms: C_2  and  C_3 
REMARK    2  A    between atoms: C_3  and  C_4 
REMARK    3  A    between atoms: C_4  and  C_5 
REMARK    4  A    between atoms: C_5  and  N_6 
REMARK    5  A    between atoms: N_6  and  C_7 
REMARK    6  A    between atoms: C_7  and  N_9 
REMARK    7  A    between atoms: N_9  and  N_10 
REMARK       I    between atoms: N_10  and  C_11 
REMARK    8  A    between atoms: C_11  and  C_13 
REMARK    9  A    between atoms: C_13  and  O_14 
REMARK   10  A    between atoms: O_14  and  N_15 
REMARK   11  A    between atoms: C_16  and  C_18 
ROOT
ATOM      1  N   UNL d   1      26.408 -15.951  -2.638  0.00  0.00    -0.266 N 
ATOM      2  C   UNL d   1      25.522 -15.008  -3.147  0.00  0.00     0.262 C 
ATOM      3  O   UNL d   1      24.738 -14.414  -2.394  0.00  0.00    -0.269 OA
ATOM      4  H   UNL d   1      27.079 -16.464  -3.206  0.00  0.00     0.190 HD
ENDROOT
BRANCH   2   5
ATOM      5  C   UNL d   1      25.581 -14.752  -4.680  0.00  0.00     0.308 C 
BRANCH   5   6
ATOM      6  O   UNL d   1      26.603 -15.587  -5.242  0.00  0.00    -0.247 OA
BRANCH   6   7
ATOM      7  N   UNL d   1      27.442 -14.893  -6.145  0.00  0.00    -0.138 NA
ATOM      8  C   UNL d   1      28.693 -14.906  -5.750  0.00  0.00     0.068 C 
ATOM      9  C   UNL d   1      29.727 -14.141  -6.569  0.00  0.00     0.074 C 
BRANCH   8  10
ATOM     10  C   UNL d   1      29.221 -15.633  -4.549  0.00  0.00    -0.007 A 
ATOM     11  C   UNL d   1      29.929 -16.843  -4.718  0.00  0.00     0.016 A 
ATOM     12  C   UNL d   1      30.375 -17.578  -3.615  0.00  0.00     0.040 A 
ATOM     13  C   UNL d   1      30.119 -17.069  -2.362  0.00  0.00     0.105 A 
ATOM     14  C   UNL d   1      29.459 -15.874  -2.189  0.00  0.00     0.105 A 
ATOM     15  O   UNL d   1      30.460 -17.651  -1.181  0.00  0.00    -0.323 OA
ATOM     16  C   UNL d   1      29.007 -15.125  -3.259  0.00  0.00     0.053 A 
ATOM     17  O   UNL d   1      29.300 -15.561  -0.873  0.00  0.00    -0.323 OA
ATOM     18  C   UNL d   1      29.857 -16.736  -0.244  0.00  0.00     0.352 A 
ENDBRANCH   8  10
ENDBRANCH   6   7
ENDBRANCH   5   6
ENDBRANCH   2   5
BRANCH   1  19
ATOM     19  N   UNL d   1      26.422 -16.261  -1.224  0.00  0.00    -0.274 N 
ATOM     20  H   UNL d   1      27.129 -15.769  -0.679  0.00  0.00     0.189 HD
BRANCH  19  21
ATOM     21  C   UNL d   1      25.508 -17.165  -0.684  0.00  0.00     0.186 C 
ATOM     22  S   UNL d   1      25.927 -18.198   0.578  0.00  0.00    -0.040 SA
BRANCH  21  23
ATOM     23  N   UNL d   1      24.240 -17.137  -1.266  0.00  0.00    -0.366 N 
ATOM     24  H   UNL d   1      23.918 -16.289  -1.711  0.00  0.00     0.161 HD
BRANCH  23  25
ATOM     25  C   UNL d   1      23.321 -18.293  -1.276  0.00  0.00     0.122 C 
BRANCH  25  26
ATOM     26  C   UNL d   1      22.193 -18.250  -0.240  0.00  0.00     0.020 C 
BRANCH  26  27
ATOM     27  C   UNL d   1      20.927 -18.948  -0.774  0.00  0.00     0.001 C 
BRANCH  27  28
ATOM     28  C   UNL d   1      20.196 -19.713   0.329  0.00  0.00    -0.004 C 
ATOM     29  C   UNL d   1      18.793 -20.108  -0.104  0.00  0.00     0.005 C 
ENDBRANCH  27  28
ENDBRANCH  26  27
ENDBRANCH  25  26
ENDBRANCH  23  25
ENDBRANCH  21  23
ENDBRANCH  19  21
ENDBRANCH   1  19
TORSDOF 11
ENDMDL
MODEL 6
REMARK VINA RESULT:    -6.725      4.216      7.144
REMARK INTER + INTRA:         -12.627
REMARK INTER:                 -10.006
REMARK INTRA:                  -2.621
REMARK CONF_INDEPENDENT:        3.281
REMARK UNBOUND:                -2.621
REMARK  11 active torsions:
REMARK  status: ('A' for Active; 'I' for Inactive)
REMARK    1  A    between atoms: C_2  and  C_3 
REMARK    2  A    between atoms: C_3  and  C_4 
REMARK    3  A    between atoms: C_4  and  C_5 
REMARK    4  A    between atoms: C_5  and  N_6 
REMARK    5  A    between atoms: N_6  and  C_7 
REMARK    6  A    between atoms: C_7  and  N_9 
REMARK    7  A    between atoms: N_9  and  N_10 
REMARK       I    between atoms: N_10  and  C_11 
REMARK    8  A    between atoms: C_11  and  C_13 
REMARK    9  A    between atoms: C_13  and  O_14 
REMARK   10  A    between atoms: O_14  and  N_15 
REMARK   11  A    between atoms: C_16  and  C_18 
ROOT
ATOM      1  N   UNL d   1      28.019 -15.280  -3.970  0.00  0.00    -0.266 N 
ATOM      2  C   UNL d   1      27.082 -15.180  -4.993  0.00  0.00     0.262 C 
ATOM      3  O   UNL d   1      27.442 -15.201  -6.177  0.00  0.00    -0.269 OA
ATOM      4  H   UNL d   1      27.782 -15.277  -2.980  0.00  0.00     0.190 HD
ENDROOT
BRANCH   2   5
ATOM      5  C   UNL d   1      25.593 -15.047  -4.562  0.00  0.00     0.308 C 
BRANCH   5   6
ATOM      6  O   UNL d   1      25.417 -15.731  -3.313  0.00  0.00    -0.247 OA
BRANCH   6   7
ATOM      7  N   UNL d   1      26.114 -15.116  -2.249  0.00  0.00    -0.138 NA
ATOM      8  C   UNL d   1      25.689 -15.541  -1.082  0.00  0.00     0.068 C 
ATOM      9  C   UNL d   1      26.282 -14.928   0.181  0.00  0.00     0.074 C 
BRANCH   8  10
ATOM     10  C   UNL d   1      24.662 -16.612  -0.866  0.00  0.00    -0.007 A 
ATOM     11  C   UNL d   1      25.072 -17.911  -0.495  0.00  0.00     0.016 A 
ATOM     12  C   UNL d   1      24.143 -18.947  -0.351  0.00  0.00     0.040 A 
ATOM     13  C   UNL d   1      22.816 -18.650  -0.563  0.00  0.00     0.105 A 
ATOM     14  C   UNL d   1      22.404 -17.379  -0.892  0.00  0.00     0.105 A 
ATOM     15  O   UNL d   1      21.781 -19.529  -0.487  0.00  0.00    -0.323 OA
ATOM     16  C   UNL d   1      23.297 -16.334  -1.040  0.00  0.00     0.053 A 
ATOM     17  O   UNL d   1      21.056 -17.305  -1.068  0.00  0.00    -0.323 OA
ATOM     18  C   UNL d   1      20.683 -18.690  -0.897  0.00  0.00     0.352 A 
ENDBRANCH   8  10
ENDBRANCH   6   7
ENDBRANCH   5   6
ENDBRANCH   2   5
BRANCH   1  19
ATOM     19  N   UNL d   1      29.430 -15.402  -4.273  0.00  0.00    -0.274 N 
ATOM     20  H   UNL d   1      29.979 -14.554  -4.138  0.00  0.00     0.189 HD
BRANCH  19  21
ATOM     21  C   UNL d   1      29.962 -16.616  -4.706  0.00  0.00     0.186 C 
ATOM     22  S   UNL d   1      30.579 -17.748  -3.622  0.00  0.00    -0.040 SA
BRANCH  21  23
ATOM     23  N   UNL d   1      29.938 -16.810  -6.088  0.00  0.00    -0.366 N 
ATOM     24  H   UNL d   1      29.228 -16.348  -6.640  0.00  0.00     0.161 HD
BRANCH  23  25
ATOM     25  C   UNL d   1      30.904 -17.662  -6.811  0.00  0.00     0.122 C 
BRANCH  25  26
ATOM     26  C   UNL d   1      30.482 -19.121  -7.006  0.00  0.00     0.020 C 
BRANCH  26  27
ATOM     27  C   UNL d   1      31.705 -20.057  -6.982  0.00  0.00     0.001 C 
BRANCH  27  28
ATOM     28  C   UNL d   1      31.698 -20.965  -5.752  0.00  0.00    -0.004 C 
ATOM     29  C   UNL d   1      30.404 -20.825  -4.965  0.00  0.00     0.005 C 
ENDBRANCH  27  28
ENDBRANCH  26  27
ENDBRANCH  25  26
ENDBRANCH  23  25
ENDBRANCH  21  23
ENDBRANCH  19  21
ENDBRANCH   1  19
TORSDOF 11
ENDMDL
MODEL 7
REMARK VINA RESULT:    -6.447      3.014      4.034
REMARK INTER + INTRA:         -12.471
REMARK INTER:                  -9.728
REMARK INTRA:                  -2.742
REMARK CONF_INDEPENDENT:        3.281
REMARK UNBOUND:                -2.742
REMARK  11 active torsions:
REMARK  status: ('A' for Active; 'I' for Inactive)
REMARK    1  A    between atoms: C_2  and  C_3 
REMARK    2  A    between atoms: C_3  and  C_4 
REMARK    3  A    between atoms: C_4  and  C_5 
REMARK    4  A    between atoms: C_5  and  N_6 
REMARK    5  A    between atoms: N_6  and  C_7 
REMARK    6  A    between atoms: C_7  and  N_9 
REMARK    7  A    between atoms: N_9  and  N_10 
REMARK       I    between atoms: N_10  and  C_11 
REMARK    8  A    between atoms: C_11  and  C_13 
REMARK    9  A    between atoms: C_13  and  O_14 
REMARK   10  A    between atoms: O_14  and  N_15 
REMARK   11  A    between atoms: C_16  and  C_18 
ROOT
ATOM      1  N   UNL d   1      27.668 -15.419  -4.136  0.00  0.00    -0.266 N 
ATOM      2  C   UNL d   1      26.556 -15.214  -4.944  0.00  0.00     0.262 C 
ATOM      3  O   UNL d   1      26.567 -15.575  -6.129  0.00  0.00    -0.269 OA
ATOM      4  H   UNL d   1      27.714 -15.151  -3.154  0.00  0.00     0.190 HD
ENDROOT
BRANCH   2   5
ATOM      5  C   UNL d   1      25.329 -14.525  -4.280  0.00  0.00     0.308 C 
BRANCH   5   6
ATOM      6  O   UNL d   1      25.036 -15.203  -3.051  0.00  0.00    -0.247 OA
BRANCH   6   7
ATOM      7  N   UNL d   1      25.960 -14.900  -2.025  0.00  0.00    -0.138 NA
ATOM      8  C   UNL d   1      25.717 -15.589  -0.935  0.00  0.00     0.068 C 
ATOM      9  C   UNL d   1      26.574 -15.334   0.300  0.00  0.00     0.074 C 
BRANCH   8  10
ATOM     10  C   UNL d   1      24.660 -16.644  -0.788  0.00  0.00    -0.007 A 
ATOM     11  C   UNL d   1      25.037 -17.983  -0.549  0.00  0.00     0.016 A 
ATOM     12  C   UNL d   1      24.079 -18.999  -0.474  0.00  0.00     0.040 A 
ATOM     13  C   UNL d   1      22.757 -18.644  -0.619  0.00  0.00     0.105 A 
ATOM     14  C   UNL d   1      22.379 -17.336  -0.820  0.00  0.00     0.105 A 
ATOM     15  O   UNL d   1      21.696 -19.494  -0.594  0.00  0.00    -0.323 OA
ATOM     16  C   UNL d   1      23.302 -16.310  -0.897  0.00  0.00     0.053 A 
ATOM     17  O   UNL d   1      21.030 -17.205  -0.950  0.00  0.00    -0.323 OA
ATOM     18  C   UNL d   1      20.616 -18.588  -0.895  0.00  0.00     0.352 A 
ENDBRANCH   8  10
ENDBRANCH   6   7
ENDBRANCH   5   6
ENDBRANCH   2   5
BRANCH   1  19
ATOM     19  N   UNL d   1      28.860 -16.047  -4.667  0.00  0.00    -0.274 N 
ATOM     20  H   UNL d   1      29.199 -16.851  -4.139  0.00  0.00     0.189 HD
BRANCH  19  21
ATOM     21  C   UNL d   1      29.462 -15.564  -5.828  0.00  0.00     0.186 C 
ATOM     22  S   UNL d   1      30.690 -16.414  -6.606  0.00  0.00    -0.040 SA
BRANCH  21  23
ATOM     23  N   UNL d   1      28.966 -14.341  -6.282  0.00  0.00    -0.366 N 
ATOM     24  H   UNL d   1      28.078 -14.316  -6.766  0.00  0.00     0.161 HD
BRANCH  23  25
ATOM     25  C   UNL d   1      29.668 -13.055  -6.097  0.00  0.00     0.122 C 
BRANCH  25  26
ATOM     26  C   UNL d   1      28.769 -11.842  -5.838  0.00  0.00     0.020 C 
BRANCH  26  27
ATOM     27  C   UNL d   1      27.345 -12.089  -6.370  0.00  0.00     0.001 C 
BRANCH  27  28
ATOM     28  C   UNL d   1      26.331 -11.137  -5.733  0.00  0.00    -0.004 C 
ATOM     29  C   UNL d   1      26.215 -11.370  -4.234  0.00  0.00     0.005 C 
ENDBRANCH  27  28
ENDBRANCH  26  27
ENDBRANCH  25  26
ENDBRANCH  23  25
ENDBRANCH  21  23
ENDBRANCH  19  21
ENDBRANCH   1  19
TORSDOF 11
ENDMDL
MODEL 8
REMARK VINA RESULT:    -6.443      2.026      2.944
REMARK INTER + INTRA:         -12.192
REMARK INTER:                  -9.724
REMARK INTRA:                  -2.468
REMARK CONF_INDEPENDENT:        3.281
REMARK UNBOUND:                -2.468
REMARK  11 active torsions:
REMARK  status: ('A' for Active; 'I' for Inactive)
REMARK    1  A    between atoms: C_2  and  C_3 
REMARK    2  A    between atoms: C_3  and  C_4 
REMARK    3  A    between atoms: C_4  and  C_5 
REMARK    4  A    between atoms: C_5  and  N_6 
REMARK    5  A    between atoms: N_6  and  C_7 
REMARK    6  A    between atoms: C_7  and  N_9 
REMARK    7  A    between atoms: N_9  and  N_10 
REMARK       I    between atoms: N_10  and  C_11 
REMARK    8  A    between atoms: C_11  and  C_13 
REMARK    9  A    between atoms: C_13  and  O_14 
REMARK   10  A    between atoms: O_14  and  N_15 
REMARK   11  A    between atoms: C_16  and  C_18 
ROOT
ATOM      1  N   UNL d   1      26.498 -13.483  -4.534  0.00  0.00    -0.266 N 
ATOM      2  C   UNL d   1      26.482 -14.816  -4.929  0.00  0.00     0.262 C 
ATOM      3  O   UNL d   1      27.202 -15.202  -5.860  0.00  0.00    -0.269 OA
ATOM      4  H   UNL d   1      25.935 -13.110  -3.771  0.00  0.00     0.190 HD
ENDROOT
BRANCH   2   5
ATOM      5  C   UNL d   1      25.531 -15.764  -4.144  0.00  0.00     0.308 C 
BRANCH   5   6
ATOM      6  O   UNL d   1      24.840 -14.996  -3.150  0.00  0.00    -0.247 OA
BRANCH   6   7
ATOM      7  N   UNL d   1      25.695 -14.535  -2.122  0.00  0.00    -0.138 NA
ATOM      8  C   UNL d   1      25.527 -15.215  -1.013  0.00  0.00     0.068 C 
ATOM      9  C   UNL d   1      26.318 -14.805   0.225  0.00  0.00     0.074 C 
BRANCH   8  10
ATOM     10  C   UNL d   1      24.621 -16.399  -0.843  0.00  0.00    -0.007 A 
ATOM     11  C   UNL d   1      25.175 -17.677  -0.615  0.00  0.00     0.016 A 
ATOM     12  C   UNL d   1      24.360 -18.810  -0.519  0.00  0.00     0.040 A 
ATOM     13  C   UNL d   1      23.000 -18.630  -0.635  0.00  0.00     0.105 A 
ATOM     14  C   UNL d   1      22.450 -17.383  -0.824  0.00  0.00     0.105 A 
ATOM     15  O   UNL d   1      22.060 -19.612  -0.586  0.00  0.00    -0.323 OA
ATOM     16  C   UNL d   1      23.229 -16.246  -0.921  0.00  0.00     0.053 A 
ATOM     17  O   UNL d   1      21.093 -17.430  -0.924  0.00  0.00    -0.323 OA
ATOM     18  C   UNL d   1      20.864 -18.855  -0.862  0.00  0.00     0.352 A 
ENDBRANCH   8  10
ENDBRANCH   6   7
ENDBRANCH   5   6
ENDBRANCH   2   5
BRANCH   1  19
ATOM     19  N   UNL d   1      27.348 -12.524  -5.209  0.00  0.00    -0.274 N 
ATOM     20  H   UNL d   1      28.329 -12.546  -4.936  0.00  0.00     0.189 HD
BRANCH  19  21
ATOM     21  C   UNL d   1      26.822 -11.659  -6.168  0.00  0.00     0.186 C 
ATOM     22  S   UNL d   1      27.699 -11.218  -7.536  0.00  0.00    -0.040 SA
BRANCH  21  23
ATOM     23  N   UNL d   1      25.531 -11.200  -5.901  0.00  0.00    -0.366 N 
ATOM     24  H   UNL d   1      24.758 -11.853  -5.929  0.00  0.00     0.161 HD
BRANCH  23  25
ATOM     25  C   UNL d   1      25.214  -9.796  -5.573  0.00  0.00     0.122 C 
BRANCH  25  26
ATOM     26  C   UNL d   1      26.018  -9.190  -4.417  0.00  0.00     0.020 C 
BRANCH  26  27
ATOM     27  C   UNL d   1      25.955 -10.091  -3.170  0.00  0.00     0.001 C 
BRANCH  27  28
ATOM     28  C   UNL d   1      26.654  -9.448  -1.972  0.00  0.00    -0.004 C 
ATOM     29  C   UNL d   1      26.388  -7.952  -1.910  0.00  0.00     0.005 C 
ENDBRANCH  27  28
ENDBRANCH  26  27
ENDBRANCH  25  26
ENDBRANCH  23  25
ENDBRANCH  21  23
ENDBRANCH  19  21
ENDBRANCH   1  19
TORSDOF 11
ENDMDL
MODEL 9
REMARK VINA RESULT:    -5.730      4.223      7.876
REMARK INTER + INTRA:         -13.033
REMARK INTER:                  -9.012
REMARK INTRA:                  -4.021
REMARK CONF_INDEPENDENT:        3.281
REMARK UNBOUND:                -4.021
REMARK  11 active torsions:
REMARK  status: ('A' for Active; 'I' for Inactive)
REMARK    1  A    between atoms: C_2  and  C_3 
REMARK    2  A    between atoms: C_3  and  C_4 
REMARK    3  A    between atoms: C_4  and  C_5 
REMARK    4  A    between atoms: C_5  and  N_6 
REMARK    5  A    between atoms: N_6  and  C_7 
REMARK    6  A    between atoms: C_7  and  N_9 
REMARK    7  A    between atoms: N_9  and  N_10 
REMARK       I    between atoms: N_10  and  C_11 
REMARK    8  A    between atoms: C_11  and  C_13 
REMARK    9  A    between atoms: C_13  and  O_14 
REMARK   10  A    between atoms: O_14  and  N_15 
REMARK   11  A    between atoms: C_16  and  C_18 
ROOT
ATOM      1  N   UNL d   1      26.107 -15.366  -2.675  0.00  0.00    -0.266 N 
ATOM      2  C   UNL d   1      25.312 -14.634  -3.551  0.00  0.00     0.262 C 
ATOM      3  O   UNL d   1      24.266 -14.104  -3.153  0.00  0.00    -0.269 OA
ATOM      4  H   UNL d   1      26.980 -15.816  -2.943  0.00  0.00     0.190 HD
ENDROOT
BRANCH   2   5
ATOM      5  C   UNL d   1      25.812 -14.525  -5.020  0.00  0.00     0.308 C 
BRANCH   5   6
ATOM      6  O   UNL d   1      26.759 -15.574  -5.258  0.00  0.00    -0.247 OA
BRANCH   6   7
ATOM      7  N   UNL d   1      27.773 -15.200  -6.170  0.00  0.00    -0.138 NA
ATOM      8  C   UNL d   1      28.920 -15.004  -5.565  0.00  0.00     0.068 C 
ATOM      9  C   UNL d   1      30.110 -14.523  -6.387  0.00  0.00     0.074 C 
BRANCH   8  10
ATOM     10  C   UNL d   1      29.186 -15.228  -4.105  0.00  0.00    -0.007 A 
ATOM     11  C   UNL d   1      29.213 -14.127  -3.221  0.00  0.00     0.016 A 
ATOM     12  C   UNL d   1      29.524 -14.296  -1.868  0.00  0.00     0.040 A 
ATOM     13  C   UNL d   1      29.782 -15.574  -1.426  0.00  0.00     0.105 A 
ATOM     14  C   UNL d   1      29.725 -16.656  -2.274  0.00  0.00     0.105 A 
ATOM     15  O   UNL d   1      30.117 -15.924  -0.155  0.00  0.00    -0.323 OA
ATOM     16  C   UNL d   1      29.419 -16.521  -3.615  0.00  0.00     0.053 A 
ATOM     17  O   UNL d   1      30.025 -17.822  -1.638  0.00  0.00    -0.323 OA
ATOM     18  C   UNL d   1      30.359 -17.336  -0.320  0.00  0.00     0.352 A 
ENDBRANCH   8  10
ENDBRANCH   6   7
ENDBRANCH   5   6
ENDBRANCH   2   5
BRANCH   1  19
ATOM     19  N   UNL d   1      25.720 -15.527  -1.289  0.00  0.00    -0.274 N 
ATOM     20  H   UNL d   1      24.718 -15.478  -1.109  0.00  0.00     0.189 HD
BRANCH  19  21
ATOM     21  C   UNL d   1      26.682 -15.746  -0.303  0.00  0.00     0.186 C 
ATOM     22  S   UNL d   1      27.082 -14.557   0.821  0.00  0.00    -0.040 SA
BRANCH  21  23
ATOM     23  N   UNL d   1      27.272 -17.011  -0.327  0.00  0.00    -0.366 N 
ATOM     24  H   UNL d   1      28.268 -17.090  -0.481  0.00  0.00     0.161 HD
BRANCH  23  25
ATOM     25  C   UNL d   1      26.519 -18.266  -0.135  0.00  0.00     0.122 C 
BRANCH  25  26
ATOM     26  C   UNL d   1      25.085 -18.105   0.381  0.00  0.00     0.020 C 
BRANCH  26  27
ATOM     27  C   UNL d   1      24.070 -18.204  -0.773  0.00  0.00     0.001 C 
BRANCH  27  28
ATOM     28  C   UNL d   1      22.686 -17.708  -0.353  0.00  0.00    -0.004 C 
ATOM     29  C   UNL d   1      21.585 -18.607  -0.895  0.00  0.00     0.005 C 
ENDBRANCH  27  28
ENDBRANCH  26  27
ENDBRANCH  25  26
ENDBRANCH  23  25
ENDBRANCH  21  23
ENDBRANCH  19  21
ENDBRANCH   1  19
TORSDOF 11
ENDMDL
