MODEL 1
REMARK VINA RESULT:    -8.754      0.000      0.000
REMARK INTER + INTRA:         -12.889
REMARK INTER:                 -11.141
REMARK INTRA:                  -1.748
REMARK CONF_INDEPENDENT:        2.386
REMARK UNBOUND:                -1.748
REMARK  8 active torsions:
REMARK  status: ('A' for Active; 'I' for Inactive)
REMARK    1  A    between atoms: C_2  and  C_3 
REMARK       I    between atoms: C_3  and  N_5 
REMARK    2  A    between atoms: N_5  and  C_6 
REMARK    3  A    between atoms: C_10  and  N_11 
REMARK       I    between atoms: N_11  and  C_12 
REMARK       I    between atoms: C_12  and  N_14 
REMARK    4  A    between atoms: N_14  and  C_15 
REMARK    5  A    between atoms: C_15  and  C_16 
REMARK    6  A    between atoms: C_16  and  N_17 
REMARK    7  A    between atoms: N_17  and  C_18 
REMARK    8  A    between atoms: C_23  and  N_24 
ROOT
ATOM      1  N   UNL d   1      26.236 -17.659   0.085  0.00  0.00    -0.309 N 
ATOM      2  C   UNL d   1      27.246 -17.442  -0.841  0.00  0.00     0.320 C 
ATOM      3  O   UNL d   1      27.115 -17.073  -1.997  0.00  0.00    -0.247 OA
ATOM      4  N   UNL d   1      28.524 -17.610  -0.369  0.00  0.00    -0.341 N 
ATOM      5  H   UNL d   1      26.484 -17.942   1.021  0.00  0.00     0.170 HD
ATOM      6  H   UNL d   1      28.699 -18.091   0.498  0.00  0.00     0.164 HD
ENDROOT
BRANCH   1   7
ATOM      7  C   UNL d   1      24.852 -17.432  -0.192  0.00  0.00     0.038 A 
ATOM      8  C   UNL d   1      24.425 -16.328  -0.938  0.00  0.00     0.029 A 
ATOM      9  C   UNL d   1      23.060 -16.188  -1.270  0.00  0.00     0.004 A 
ATOM     10  C   UNL d   1      22.107 -17.119  -0.830  0.00  0.00     0.029 A 
ATOM     11  C   UNL d   1      22.515 -18.197  -0.061  0.00  0.00     0.036 A 
ATOM     12  C   UNL d   1      23.870 -18.328   0.239  0.00  0.00     0.059 A 
BRANCH  11  13
ATOM     13  N   UNL d   1      21.605 -19.186   0.384  0.00  0.00    -0.327 N 
ATOM     14  C   UNL d   1      20.622 -19.704  -0.454  0.00  0.00     0.221 C 
ATOM     15  O   UNL d   1      20.506 -19.416  -1.642  0.00  0.00    -0.273 OA
ATOM     16  H   UNL d   1      21.782 -19.625   1.276  0.00  0.00     0.169 HD
BRANCH  14  17
ATOM     17  C   UNL d   1      19.714 -20.744   0.182  0.00  0.00     0.098 C 
ATOM     18  C   UNL d   1      18.816 -20.078   1.224  0.00  0.00     0.014 C 
ENDBRANCH  14  17
ENDBRANCH  11  13
ENDBRANCH   1   7
BRANCH   4  19
ATOM     19  C   UNL d   1      29.603 -17.439  -1.350  0.00  0.00     0.144 C 
BRANCH  19  20
ATOM     20  C   UNL d   1      29.862 -15.980  -1.682  0.00  0.00     0.139 C 
BRANCH  20  21
ATOM     21  N   UNL d   1      29.212 -15.550  -2.915  0.00  0.00    -0.386 N 
ATOM     22  H   UNL d   1      29.699 -15.657  -3.802  0.00  0.00     0.159 HD
BRANCH  21  23
ATOM     23  C   UNL d   1      28.074 -14.753  -2.902  0.00  0.00     0.061 A 
ATOM     24  C   UNL d   1      27.781 -14.085  -1.692  0.00  0.00     0.031 A 
ATOM     25  C   UNL d   1      26.694 -13.208  -1.569  0.00  0.00     0.002 A 
ATOM     26  C   UNL d   1      25.901 -12.928  -2.672  0.00  0.00     0.003 A 
ATOM     27  C   UNL d   1      26.143 -13.588  -3.872  0.00  0.00     0.038 A 
ATOM     28  C   UNL d   1      27.197 -14.518  -3.981  0.00  0.00     0.129 A 
BRANCH  28  29
ATOM     29  N   UNL d   1      27.257 -15.264  -5.246  0.00  0.00    -0.113 N 
ATOM     30  O   UNL d   1      26.175 -15.577  -5.770  0.00  0.00    -0.532 OA
ATOM     31  O   UNL d   1      28.361 -15.576  -5.715  0.00  0.00    -0.532 OA
ENDBRANCH  28  29
ENDBRANCH  21  23
ENDBRANCH  20  21
ENDBRANCH  19  20
ENDBRANCH   4  19
TORSDOF 8
ENDMDL
MODEL 2
REMARK VINA RESULT:    -8.339      1.862      2.593
REMARK INTER + INTRA:         -12.904
REMARK INTER:                 -10.726
REMARK INTRA:                  -2.178
REMARK CONF_INDEPENDENT:        2.386
REMARK UNBOUND:                -2.178
REMARK  8 active torsions:
REMARK  status: ('A' for Active; 'I' for Inactive)
REMARK    1  A    between atoms: C_2  and  C_3 
REMARK       I    between atoms: C_3  and  N_5 
REMARK    2  A    between atoms: N_5  and  C_6 
REMARK    3  A    between atoms: C_10  and  N_11 
REMARK       I    between atoms: N_11  and  C_12 
REMARK       I    between atoms: C_12  and  N_14 
REMARK    4  A    between atoms: N_14  and  C_15 
REMARK    5  A    between atoms: C_15  and  C_16 
REMARK    6  A    between atoms: C_16  and  N_17 
REMARK    7  A    between atoms: N_17  and  C_18 
REMARK    8  A    between atoms: C_23  and  N_24 
ROOT
ATOM      1  N   UNL d   1      26.351 -18.166  -0.239  0.00  0.00    -0.309 N 
ATOM      2  C   UNL d   1      27.429 -17.315  -0.440  0.00  0.00     0.320 C 
ATOM      3  O   UNL d   1      27.387 -16.148  -0.794  0.00  0.00    -0.247 OA
ATOM      4  N   UNL d   1      28.660 -17.846  -0.144  0.00  0.00    -0.341 N 
ATOM      5  H   UNL d   1      26.524 -19.107   0.080  0.00  0.00     0.170 HD
ATOM      6  H   UNL d   1      28.786 -18.839  -0.035  0.00  0.00     0.164 HD
ENDROOT
BRANCH   1   7
ATOM      7  C   UNL d   1      24.989 -17.759  -0.392  0.00  0.00     0.038 A 
ATOM      8  C   UNL d   1      24.646 -16.579  -1.059  0.00  0.00     0.029 A 
ATOM      9  C   UNL d   1      23.288 -16.258  -1.271  0.00  0.00     0.004 A 
ATOM     10  C   UNL d   1      22.262 -17.085  -0.786  0.00  0.00     0.029 A 
ATOM     11  C   UNL d   1      22.592 -18.239  -0.092  0.00  0.00     0.036 A 
ATOM     12  C   UNL d   1      23.939 -18.547   0.089  0.00  0.00     0.059 A 
BRANCH  11  13
ATOM     13  N   UNL d   1      21.603 -19.129   0.392  0.00  0.00    -0.327 N 
ATOM     14  C   UNL d   1      20.608 -19.637  -0.438  0.00  0.00     0.221 C 
ATOM     15  O   UNL d   1      20.543 -19.427  -1.646  0.00  0.00    -0.273 OA
ATOM     16  H   UNL d   1      21.725 -19.513   1.318  0.00  0.00     0.169 HD
BRANCH  14  17
ATOM     17  C   UNL d   1      19.612 -20.563   0.241  0.00  0.00     0.098 C 
ATOM     18  C   UNL d   1      19.399 -20.123   1.688  0.00  0.00     0.014 C 
ENDBRANCH  14  17
ENDBRANCH  11  13
ENDBRANCH   1   7
BRANCH   4  19
ATOM     19  C   UNL d   1      29.816 -16.978  -0.403  0.00  0.00     0.144 C 
BRANCH  19  20
ATOM     20  C   UNL d   1      30.330 -17.102  -1.827  0.00  0.00     0.139 C 
BRANCH  20  21
ATOM     21  N   UNL d   1      29.524 -16.363  -2.792  0.00  0.00    -0.386 N 
ATOM     22  H   UNL d   1      28.554 -16.145  -2.572  0.00  0.00     0.159 HD
BRANCH  21  23
ATOM     23  C   UNL d   1      29.938 -16.184  -4.106  0.00  0.00     0.061 A 
ATOM     24  C   UNL d   1      31.320 -16.336  -4.361  0.00  0.00     0.031 A 
ATOM     25  C   UNL d   1      31.854 -16.238  -5.654  0.00  0.00     0.002 A 
ATOM     26  C   UNL d   1      31.012 -16.040  -6.739  0.00  0.00     0.003 A 
ATOM     27  C   UNL d   1      29.650 -15.858  -6.522  0.00  0.00     0.038 A 
ATOM     28  C   UNL d   1      29.119 -15.895  -5.217  0.00  0.00     0.129 A 
BRANCH  28  29
ATOM     29  N   UNL d   1      27.698 -15.536  -5.099  0.00  0.00    -0.113 N 
ATOM     30  O   UNL d   1      27.112 -15.200  -6.141  0.00  0.00    -0.532 OA
ATOM     31  O   UNL d   1      27.160 -15.550  -3.983  0.00  0.00    -0.532 OA
ENDBRANCH  28  29
ENDBRANCH  21  23
ENDBRANCH  20  21
ENDBRANCH  19  20
ENDBRANCH   4  19
TORSDOF 8
ENDMDL
MODEL 3
REMARK VINA RESULT:    -8.062      2.837      3.918
REMARK INTER + INTRA:         -12.223
REMARK INTER:                 -10.449
REMARK INTRA:                  -1.774
REMARK CONF_INDEPENDENT:        2.386
REMARK UNBOUND:                -1.774
REMARK  8 active torsions:
REMARK  status: ('A' for Active; 'I' for Inactive)
REMARK    1  A    between atoms: C_2  and  C_3 
REMARK       I    between atoms: C_3  and  N_5 
REMARK    2  A    between atoms: N_5  and  C_6 
REMARK    3  A    between atoms: C_10  and  N_11 
REMARK       I    between atoms: N_11  and  C_12 
REMARK       I    between atoms: C_12  and  N_14 
REMARK    4  A    between atoms: N_14  and  C_15 
REMARK    5  A    between atoms: C_15  and  C_16 
REMARK    6  A    between atoms: C_16  and  N_17 
REMARK    7  A    between atoms: N_17  and  C_18 
REMARK    8  A    between atoms: C_23  and  N_24 
ROOT
ATOM      1  N   UNL d   1      27.328 -17.413  -0.017  0.00  0.00    -0.309 N 
ATOM      2  C   UNL d   1      28.393 -17.198  -0.881  0.00  0.00     0.320 C 
ATOM      3  O   UNL d   1      28.333 -16.848  -2.048  0.00  0.00    -0.247 OA
ATOM      4  N   UNL d   1      29.639 -17.343  -0.324  0.00  0.00    -0.341 N 
ATOM      5  H   UNL d   1      27.518 -17.679   0.937  0.00  0.00     0.170 HD
ATOM      6  H   UNL d   1      29.764 -17.809   0.560  0.00  0.00     0.164 HD
ENDROOT
BRANCH   1   7
ATOM      7  C   UNL d   1      25.962 -17.207  -0.387  0.00  0.00     0.038 A 
ATOM      8  C   UNL d   1      25.565 -16.098  -1.142  0.00  0.00     0.029 A 
ATOM      9  C   UNL d   1      24.225 -15.978  -1.566  0.00  0.00     0.004 A 
ATOM     10  C   UNL d   1      23.262 -16.934  -1.209  0.00  0.00     0.029 A 
ATOM     11  C   UNL d   1      23.637 -18.018  -0.432  0.00  0.00     0.036 A 
ATOM     12  C   UNL d   1      24.970 -18.129  -0.040  0.00  0.00     0.059 A 
BRANCH  11  13
ATOM     13  N   UNL d   1      22.718 -19.032  -0.068  0.00  0.00    -0.327 N 
ATOM     14  C   UNL d   1      21.354 -18.904  -0.313  0.00  0.00     0.221 C 
ATOM     15  O   UNL d   1      20.847 -17.963  -0.918  0.00  0.00    -0.273 OA
ATOM     16  H   UNL d   1      23.090 -19.922   0.232  0.00  0.00     0.169 HD
BRANCH  14  17
ATOM     17  C   UNL d   1      20.502 -20.072   0.155  0.00  0.00     0.098 C 
ATOM     18  C   UNL d   1      19.828 -19.721   1.481  0.00  0.00     0.014 C 
ENDBRANCH  14  17
ENDBRANCH  11  13
ENDBRANCH   1   7
BRANCH   4  19
ATOM     19  C   UNL d   1      30.777 -17.174  -1.237  0.00  0.00     0.144 C 
BRANCH  19  20
ATOM     20  C   UNL d   1      30.789 -18.205  -2.351  0.00  0.00     0.139 C 
BRANCH  20  21
ATOM     21  N   UNL d   1      30.408 -17.653  -3.646  0.00  0.00    -0.386 N 
ATOM     22  H   UNL d   1      29.721 -16.902  -3.688  0.00  0.00     0.159 HD
BRANCH  21  23
ATOM     23  C   UNL d   1      30.735 -18.288  -4.838  0.00  0.00     0.061 A 
ATOM     24  C   UNL d   1      31.334 -19.563  -4.732  0.00  0.00     0.031 A 
ATOM     25  C   UNL d   1      31.659 -20.330  -5.860  0.00  0.00     0.002 A 
ATOM     26  C   UNL d   1      31.338 -19.867  -7.128  0.00  0.00     0.003 A 
ATOM     27  C   UNL d   1      30.773 -18.605  -7.271  0.00  0.00     0.038 A 
ATOM     28  C   UNL d   1      30.504 -17.806  -6.142  0.00  0.00     0.129 A 
BRANCH  28  29
ATOM     29  N   UNL d   1      30.053 -16.435  -6.426  0.00  0.00    -0.113 N 
ATOM     30  O   UNL d   1      29.203 -15.950  -5.662  0.00  0.00    -0.532 OA
ATOM     31  O   UNL d   1      30.504 -15.841  -7.416  0.00  0.00    -0.532 OA
ENDBRANCH  28  29
ENDBRANCH  21  23
ENDBRANCH  20  21
ENDBRANCH  19  20
ENDBRANCH   4  19
TORSDOF 8
ENDMDL
MODEL 4
REMARK VINA RESULT:    -7.993      2.286      3.611
REMARK INTER + INTRA:         -13.893
REMARK INTER:                 -10.379
REMARK INTRA:                  -3.514
REMARK CONF_INDEPENDENT:        2.386
REMARK UNBOUND:                -3.514
REMARK  8 active torsions:
REMARK  status: ('A' for Active; 'I' for Inactive)
REMARK    1  A    between atoms: C_2  and  C_3 
REMARK       I    between atoms: C_3  and  N_5 
REMARK    2  A    between atoms: N_5  and  C_6 
REMARK    3  A    between atoms: C_10  and  N_11 
REMARK       I    between atoms: N_11  and  C_12 
REMARK       I    between atoms: C_12  and  N_14 
REMARK    4  A    between atoms: N_14  and  C_15 
REMARK    5  A    between atoms: C_15  and  C_16 
REMARK    6  A    between atoms: C_16  and  N_17 
REMARK    7  A    between atoms: N_17  and  C_18 
REMARK    8  A    between atoms: C_23  and  N_24 
ROOT
ATOM      1  N   UNL d   1      25.588 -15.541  -2.197  0.00  0.00    -0.309 N 
ATOM      2  C   UNL d   1      25.953 -14.266  -1.789  0.00  0.00     0.320 C 
ATOM      3  O   UNL d   1      26.001 -13.848  -0.644  0.00  0.00    -0.247 OA
ATOM      4  N   UNL d   1      26.354 -13.419  -2.793  0.00  0.00    -0.341 N 
ATOM      5  H   UNL d   1      25.614 -15.766  -3.180  0.00  0.00     0.170 HD
ATOM      6  H   UNL d   1      26.159 -13.628  -3.758  0.00  0.00     0.164 HD
ENDROOT
BRANCH   1   7
ATOM      7  C   UNL d   1      25.244 -16.590  -1.288  0.00  0.00     0.038 A 
ATOM      8  C   UNL d   1      26.219 -17.273  -0.553  0.00  0.00     0.029 A 
ATOM      9  C   UNL d   1      25.834 -18.237   0.402  0.00  0.00     0.004 A 
ATOM     10  C   UNL d   1      24.482 -18.559   0.605  0.00  0.00     0.029 A 
ATOM     11  C   UNL d   1      23.512 -17.913  -0.143  0.00  0.00     0.036 A 
ATOM     12  C   UNL d   1      23.912 -16.950  -1.068  0.00  0.00     0.059 A 
BRANCH  11  13
ATOM     13  N   UNL d   1      22.131 -18.171   0.040  0.00  0.00    -0.327 N 
ATOM     14  C   UNL d   1      21.380 -18.842  -0.920  0.00  0.00     0.221 C 
ATOM     15  O   UNL d   1      21.847 -19.325  -1.949  0.00  0.00    -0.273 OA
ATOM     16  H   UNL d   1      21.735 -17.997   0.952  0.00  0.00     0.169 HD
BRANCH  14  17
ATOM     17  C   UNL d   1      19.910 -19.021  -0.580  0.00  0.00     0.098 C 
ATOM     18  C   UNL d   1      19.774 -19.690   0.787  0.00  0.00     0.014 C 
ENDBRANCH  14  17
ENDBRANCH  11  13
ENDBRANCH   1   7
BRANCH   4  19
ATOM     19  C   UNL d   1      26.690 -12.049  -2.386  0.00  0.00     0.144 C 
BRANCH  19  20
ATOM     20  C   UNL d   1      26.508 -11.046  -3.511  0.00  0.00     0.139 C 
BRANCH  20  21
ATOM     21  N   UNL d   1      26.096 -11.663  -4.767  0.00  0.00    -0.386 N 
ATOM     22  H   UNL d   1      25.106 -11.825  -4.945  0.00  0.00     0.159 HD
BRANCH  21  23
ATOM     23  C   UNL d   1      27.007 -12.287  -5.609  0.00  0.00     0.061 A 
ATOM     24  C   UNL d   1      27.855 -11.443  -6.361  0.00  0.00     0.031 A 
ATOM     25  C   UNL d   1      28.856 -11.950  -7.203  0.00  0.00     0.002 A 
ATOM     26  C   UNL d   1      29.074 -13.319  -7.273  0.00  0.00     0.003 A 
ATOM     27  C   UNL d   1      28.241 -14.181  -6.568  0.00  0.00     0.038 A 
ATOM     28  C   UNL d   1      27.195 -13.675  -5.770  0.00  0.00     0.129 A 
BRANCH  28  29
ATOM     29  N   UNL d   1      26.287 -14.683  -5.200  0.00  0.00    -0.113 N 
ATOM     30  O   UNL d   1      25.154 -14.298  -4.868  0.00  0.00    -0.532 OA
ATOM     31  O   UNL d   1      26.691 -15.844  -5.044  0.00  0.00    -0.532 OA
ENDBRANCH  28  29
ENDBRANCH  21  23
ENDBRANCH  20  21
ENDBRANCH  19  20
ENDBRANCH   4  19
TORSDOF 8
ENDMDL
MODEL 5
REMARK VINA RESULT:    -7.693      2.552      4.018
REMARK INTER + INTRA:         -13.177
REMARK INTER:                 -10.079
REMARK INTRA:                  -3.099
REMARK CONF_INDEPENDENT:        2.386
REMARK UNBOUND:                -3.099
REMARK  8 active torsions:
REMARK  status: ('A' for Active; 'I' for Inactive)
REMARK    1  A    between atoms: C_2  and  C_3 
REMARK       I    between atoms: C_3  and  N_5 
REMARK    2  A    between atoms: N_5  and  C_6 
REMARK    3  A    between atoms: C_10  and  N_11 
REMARK       I    between atoms: N_11  and  C_12 
REMARK       I    between atoms: C_12  and  N_14 
REMARK    4  A    between atoms: N_14  and  C_15 
REMARK    5  A    between atoms: C_15  and  C_16 
REMARK    6  A    between atoms: C_16  and  N_17 
REMARK    7  A    between atoms: N_17  and  C_18 
REMARK    8  A    between atoms: C_23  and  N_24 
ROOT
ATOM      1  N   UNL d   1      26.153 -15.645  -2.374  0.00  0.00    -0.309 N 
ATOM      2  C   UNL d   1      25.351 -14.687  -2.978  0.00  0.00     0.320 C 
ATOM      3  O   UNL d   1      24.155 -14.516  -2.807  0.00  0.00    -0.247 OA
ATOM      4  N   UNL d   1      26.005 -13.812  -3.809  0.00  0.00    -0.341 N 
ATOM      5  H   UNL d   1      27.138 -15.662  -2.587  0.00  0.00     0.170 HD
ATOM      6  H   UNL d   1      26.935 -14.007  -4.143  0.00  0.00     0.164 HD
ENDROOT
BRANCH   1   7
ATOM      7  C   UNL d   1      25.671 -16.574  -1.399  0.00  0.00     0.038 A 
ATOM      8  C   UNL d   1      26.536 -17.224  -0.514  0.00  0.00     0.029 A 
ATOM      9  C   UNL d   1      26.014 -18.062   0.494  0.00  0.00     0.004 A 
ATOM     10  C   UNL d   1      24.633 -18.291   0.605  0.00  0.00     0.029 A 
ATOM     11  C   UNL d   1      23.770 -17.678  -0.290  0.00  0.00     0.036 A 
ATOM     12  C   UNL d   1      24.305 -16.839  -1.266  0.00  0.00     0.059 A 
BRANCH  11  13
ATOM     13  N   UNL d   1      22.366 -17.845  -0.208  0.00  0.00    -0.327 N 
ATOM     14  C   UNL d   1      21.672 -18.647  -1.108  0.00  0.00     0.221 C 
ATOM     15  O   UNL d   1      22.206 -19.325  -1.982  0.00  0.00    -0.273 OA
ATOM     16  H   UNL d   1      21.896 -17.494   0.614  0.00  0.00     0.169 HD
BRANCH  14  17
ATOM     17  C   UNL d   1      20.168 -18.705  -0.895  0.00  0.00     0.098 C 
ATOM     18  C   UNL d   1      19.787 -20.042  -0.260  0.00  0.00     0.014 C 
ENDBRANCH  14  17
ENDBRANCH  11  13
ENDBRANCH   1   7
BRANCH   4  19
ATOM     19  C   UNL d   1      25.164 -12.826  -4.500  0.00  0.00     0.144 C 
BRANCH  19  20
ATOM     20  C   UNL d   1      25.966 -11.910  -5.407  0.00  0.00     0.139 C 
BRANCH  20  21
ATOM     21  N   UNL d   1      27.396 -11.929  -5.120  0.00  0.00    -0.386 N 
ATOM     22  H   UNL d   1      27.764 -11.347  -4.371  0.00  0.00     0.159 HD
BRANCH  21  23
ATOM     23  C   UNL d   1      28.311 -12.497  -5.999  0.00  0.00     0.061 A 
ATOM     24  C   UNL d   1      28.933 -11.622  -6.918  0.00  0.00     0.031 A 
ATOM     25  C   UNL d   1      29.915 -12.061  -7.817  0.00  0.00     0.002 A 
ATOM     26  C   UNL d   1      30.346 -13.380  -7.782  0.00  0.00     0.003 A 
ATOM     27  C   UNL d   1      29.736 -14.275  -6.910  0.00  0.00     0.038 A 
ATOM     28  C   UNL d   1      28.705 -13.849  -6.049  0.00  0.00     0.129 A 
BRANCH  28  29
ATOM     29  N   UNL d   1      28.033 -14.913  -5.287  0.00  0.00    -0.113 N 
ATOM     30  O   UNL d   1      28.534 -15.229  -4.195  0.00  0.00    -0.532 OA
ATOM     31  O   UNL d   1      27.035 -15.466  -5.769  0.00  0.00    -0.532 OA
ENDBRANCH  28  29
ENDBRANCH  21  23
ENDBRANCH  20  21
ENDBRANCH  19  20
ENDBRANCH   4  19
TORSDOF 8
ENDMDL
MODEL 6
REMARK VINA RESULT:    -7.636      1.923      3.283
REMARK INTER + INTRA:         -13.224
REMARK INTER:                 -10.022
REMARK INTRA:                  -3.203
REMARK CONF_INDEPENDENT:        2.386
REMARK UNBOUND:                -3.203
REMARK  8 active torsions:
REMARK  status: ('A' for Active; 'I' for Inactive)
REMARK    1  A    between atoms: C_2  and  C_3 
REMARK       I    between atoms: C_3  and  N_5 
REMARK    2  A    between atoms: N_5  and  C_6 
REMARK    3  A    between atoms: C_10  and  N_11 
REMARK       I    between atoms: N_11  and  C_12 
REMARK       I    between atoms: C_12  and  N_14 
REMARK    4  A    between atoms: N_14  and  C_15 
REMARK    5  A    between atoms: C_15  and  C_16 
REMARK    6  A    between atoms: C_16  and  N_17 
REMARK    7  A    between atoms: N_17  and  C_18 
REMARK    8  A    between atoms: C_23  and  N_24 
ROOT
ATOM      1  N   UNL d   1      25.161 -15.626  -2.901  0.00  0.00    -0.309 N 
ATOM      2  C   UNL d   1      25.365 -14.258  -2.790  0.00  0.00     0.320 C 
ATOM      3  O   UNL d   1      25.590 -13.630  -1.768  0.00  0.00    -0.247 OA
ATOM      4  N   UNL d   1      25.370 -13.565  -3.975  0.00  0.00    -0.341 N 
ATOM      5  H   UNL d   1      25.008 -16.024  -3.815  0.00  0.00     0.170 HD
ATOM      6  H   UNL d   1      25.008 -13.977  -4.819  0.00  0.00     0.164 HD
ENDROOT
BRANCH   1   7
ATOM      7  C   UNL d   1      25.227 -16.524  -1.790  0.00  0.00     0.038 A 
ATOM      8  C   UNL d   1      26.436 -16.809  -1.147  0.00  0.00     0.029 A 
ATOM      9  C   UNL d   1      26.447 -17.627   0.002  0.00  0.00     0.004 A 
ATOM     10  C   UNL d   1      25.265 -18.200   0.497  0.00  0.00     0.029 A 
ATOM     11  C   UNL d   1      24.067 -17.952  -0.153  0.00  0.00     0.036 A 
ATOM     12  C   UNL d   1      24.075 -17.126  -1.276  0.00  0.00     0.059 A 
BRANCH  11  13
ATOM     13  N   UNL d   1      22.838 -18.475   0.317  0.00  0.00    -0.327 N 
ATOM     14  C   UNL d   1      21.890 -19.008  -0.551  0.00  0.00     0.221 C 
ATOM     15  O   UNL d   1      22.060 -19.141  -1.761  0.00  0.00    -0.273 OA
ATOM     16  H   UNL d   1      22.727 -18.598   1.314  0.00  0.00     0.169 HD
BRANCH  14  17
ATOM     17  C   UNL d   1      20.618 -19.511   0.111  0.00  0.00     0.098 C 
ATOM     18  C   UNL d   1      19.434 -19.325  -0.837  0.00  0.00     0.014 C 
ENDBRANCH  14  17
ENDBRANCH  11  13
ENDBRANCH   1   7
BRANCH   4  19
ATOM     19  C   UNL d   1      25.530 -12.109  -3.871  0.00  0.00     0.144 C 
BRANCH  19  20
ATOM     20  C   UNL d   1      26.953 -11.702  -3.532  0.00  0.00     0.139 C 
BRANCH  20  21
ATOM     21  N   UNL d   1      27.957 -12.485  -4.245  0.00  0.00    -0.386 N 
ATOM     22  H   UNL d   1      28.145 -12.285  -5.225  0.00  0.00     0.159 HD
BRANCH  21  23
ATOM     23  C   UNL d   1      28.470 -13.666  -3.723  0.00  0.00     0.061 A 
ATOM     24  C   UNL d   1      29.297 -13.548  -2.583  0.00  0.00     0.031 A 
ATOM     25  C   UNL d   1      29.829 -14.669  -1.929  0.00  0.00     0.002 A 
ATOM     26  C   UNL d   1      29.501 -15.945  -2.365  0.00  0.00     0.003 A 
ATOM     27  C   UNL d   1      28.713 -16.098  -3.500  0.00  0.00     0.038 A 
ATOM     28  C   UNL d   1      28.229 -14.972  -4.195  0.00  0.00     0.129 A 
BRANCH  28  29
ATOM     29  N   UNL d   1      27.540 -15.256  -5.463  0.00  0.00    -0.113 N 
ATOM     30  O   UNL d   1      26.342 -15.575  -5.396  0.00  0.00    -0.532 OA
ATOM     31  O   UNL d   1      28.177 -15.200  -6.525  0.00  0.00    -0.532 OA
ENDBRANCH  28  29
ENDBRANCH  21  23
ENDBRANCH  20  21
ENDBRANCH  19  20
ENDBRANCH   4  19
TORSDOF 8
ENDMDL
MODEL 7
REMARK VINA RESULT:    -6.885      2.998      4.301
REMARK INTER + INTRA:         -12.534
REMARK INTER:                  -9.271
REMARK INTRA:                  -3.263
REMARK CONF_INDEPENDENT:        2.386
REMARK UNBOUND:                -3.263
REMARK  8 active torsions:
REMARK  status: ('A' for Active; 'I' for Inactive)
REMARK    1  A    between atoms: C_2  and  C_3 
REMARK       I    between atoms: C_3  and  N_5 
REMARK    2  A    between atoms: N_5  and  C_6 
REMARK    3  A    between atoms: C_10  and  N_11 
REMARK       I    between atoms: N_11  and  C_12 
REMARK       I    between atoms: C_12  and  N_14 
REMARK    4  A    between atoms: N_14  and  C_15 
REMARK    5  A    between atoms: C_15  and  C_16 
REMARK    6  A    between atoms: C_16  and  N_17 
REMARK    7  A    between atoms: N_17  and  C_18 
REMARK    8  A    between atoms: C_23  and  N_24 
ROOT
ATOM      1  N   UNL d   1      26.299 -15.123  -1.734  0.00  0.00    -0.309 N 
ATOM      2  C   UNL d   1      26.103 -14.883  -3.088  0.00  0.00     0.320 C 
ATOM      3  O   UNL d   1      25.528 -15.605  -3.886  0.00  0.00    -0.247 OA
ATOM      4  N   UNL d   1      26.562 -13.671  -3.542  0.00  0.00    -0.341 N 
ATOM      5  H   UNL d   1      26.773 -14.428  -1.179  0.00  0.00     0.170 HD
ATOM      6  H   UNL d   1      27.204 -13.120  -2.997  0.00  0.00     0.164 HD
ENDROOT
BRANCH   1   7
ATOM      7  C   UNL d   1      25.797 -16.280  -1.060  0.00  0.00     0.038 A 
ATOM      8  C   UNL d   1      26.651 -17.185  -0.422  0.00  0.00     0.029 A 
ATOM      9  C   UNL d   1      26.113 -18.264   0.311  0.00  0.00     0.004 A 
ATOM     10  C   UNL d   1      24.727 -18.474   0.382  0.00  0.00     0.029 A 
ATOM     11  C   UNL d   1      23.874 -17.603  -0.276  0.00  0.00     0.036 A 
ATOM     12  C   UNL d   1      24.425 -16.533  -0.979  0.00  0.00     0.059 A 
BRANCH  11  13
ATOM     13  N   UNL d   1      22.466 -17.744  -0.215  0.00  0.00    -0.327 N 
ATOM     14  C   UNL d   1      21.778 -18.589  -1.081  0.00  0.00     0.221 C 
ATOM     15  O   UNL d   1      22.320 -19.325  -1.902  0.00  0.00    -0.273 OA
ATOM     16  H   UNL d   1      21.984 -17.339   0.575  0.00  0.00     0.169 HD
BRANCH  14  17
ATOM     17  C   UNL d   1      20.270 -18.613  -0.897  0.00  0.00     0.098 C 
ATOM     18  C   UNL d   1      19.853 -19.915  -0.215  0.00  0.00     0.014 C 
ENDBRANCH  14  17
ENDBRANCH  11  13
ENDBRANCH   1   7
BRANCH   4  19
ATOM     19  C   UNL d   1      26.413 -13.424  -4.982  0.00  0.00     0.144 C 
BRANCH  19  20
ATOM     20  C   UNL d   1      26.226 -11.951  -5.303  0.00  0.00     0.139 C 
BRANCH  20  21
ATOM     21  N   UNL d   1      25.460 -11.237  -4.288  0.00  0.00    -0.386 N 
ATOM     22  H   UNL d   1      24.452 -11.373  -4.232  0.00  0.00     0.159 HD
BRANCH  21  23
ATOM     23  C   UNL d   1      26.002 -10.176  -3.574  0.00  0.00     0.061 A 
ATOM     24  C   UNL d   1      25.694  -8.877  -4.037  0.00  0.00     0.031 A 
ATOM     25  C   UNL d   1      26.133  -7.724  -3.371  0.00  0.00     0.002 A 
ATOM     26  C   UNL d   1      26.846  -7.838  -2.185  0.00  0.00     0.003 A 
ATOM     27  C   UNL d   1      27.190  -9.100  -1.715  0.00  0.00     0.038 A 
ATOM     28  C   UNL d   1      26.804 -10.259  -2.417  0.00  0.00     0.129 A 
BRANCH  28  29
ATOM     29  N   UNL d   1      27.357 -11.524  -1.909  0.00  0.00    -0.113 N 
ATOM     30  O   UNL d   1      28.511 -11.818  -2.262  0.00  0.00    -0.532 OA
ATOM     31  O   UNL d   1      26.654 -12.248  -1.191  0.00  0.00    -0.532 OA
ENDBRANCH  28  29
ENDBRANCH  21  23
ENDBRANCH  20  21
ENDBRANCH  19  20
ENDBRANCH   4  19
TORSDOF 8
ENDMDL
MODEL 8
REMARK VINA RESULT:    -6.710      2.117      3.628
REMARK INTER + INTRA:         -12.872
REMARK INTER:                  -9.096
REMARK INTRA:                  -3.776
REMARK CONF_INDEPENDENT:        2.386
REMARK UNBOUND:                -3.776
REMARK  8 active torsions:
REMARK  status: ('A' for Active; 'I' for Inactive)
REMARK    1  A    between atoms: C_2  and  C_3 
REMARK       I    between atoms: C_3  and  N_5 
REMARK    2  A    between atoms: N_5  and  C_6 
REMARK    3  A    between atoms: C_10  and  N_11 
REMARK       I    between atoms: N_11  and  C_12 
REMARK       I    between atoms: C_12  and  N_14 
REMARK    4  A    between atoms: N_14  and  C_15 
REMARK    5  A    between atoms: C_15  and  C_16 
REMARK    6  A    between atoms: C_16  and  N_17 
REMARK    7  A    between atoms: N_17  and  C_18 
REMARK    8  A    between atoms: C_23  and  N_24 
ROOT
ATOM      1  N   UNL d   1      25.341 -14.800  -1.752  0.00  0.00    -0.309 N 
ATOM      2  C   UNL d   1      25.464 -14.560  -3.114  0.00  0.00     0.320 C 
ATOM      3  O   UNL d   1      25.386 -15.380  -4.014  0.00  0.00    -0.247 OA
ATOM      4  N   UNL d   1      25.631 -13.243  -3.466  0.00  0.00    -0.341 N 
ATOM      5  H   UNL d   1      25.403 -14.023  -1.112  0.00  0.00     0.170 HD
ATOM      6  H   UNL d   1      25.892 -12.551  -2.783  0.00  0.00     0.164 HD
ENDROOT
BRANCH   1   7
ATOM      7  C   UNL d   1      25.058 -16.090  -1.203  0.00  0.00     0.038 A 
ATOM      8  C   UNL d   1      26.078 -16.994  -0.889  0.00  0.00     0.029 A 
ATOM      9  C   UNL d   1      25.765 -18.219  -0.263  0.00  0.00     0.004 A 
ATOM     10  C   UNL d   1      24.435 -18.572   0.017  0.00  0.00     0.029 A 
ATOM     11  C   UNL d   1      23.415 -17.698  -0.322  0.00  0.00     0.036 A 
ATOM     12  C   UNL d   1      23.747 -16.485  -0.922  0.00  0.00     0.059 A 
BRANCH  11  13
ATOM     13  N   UNL d   1      22.058 -17.985  -0.035  0.00  0.00    -0.327 N 
ATOM     14  C   UNL d   1      21.274 -18.747  -0.895  0.00  0.00     0.221 C 
ATOM     15  O   UNL d   1      21.695 -19.289  -1.914  0.00  0.00    -0.273 OA
ATOM     16  H   UNL d   1      21.712 -17.756   0.886  0.00  0.00     0.169 HD
BRANCH  14  17
ATOM     17  C   UNL d   1      19.835 -18.946  -0.451  0.00  0.00     0.098 C 
ATOM     18  C   UNL d   1      19.803 -19.719   0.867  0.00  0.00     0.014 C 
ENDBRANCH  14  17
ENDBRANCH  11  13
ENDBRANCH   1   7
BRANCH   4  19
ATOM     19  C   UNL d   1      25.817 -12.977  -4.898  0.00  0.00     0.144 C 
BRANCH  19  20
ATOM     20  C   UNL d   1      27.149 -13.490  -5.417  0.00  0.00     0.139 C 
BRANCH  20  21
ATOM     21  N   UNL d   1      28.260 -13.214  -4.513  0.00  0.00    -0.386 N 
ATOM     22  H   UNL d   1      28.965 -12.529  -4.780  0.00  0.00     0.159 HD
BRANCH  21  23
ATOM     23  C   UNL d   1      28.546 -14.039  -3.432  0.00  0.00     0.061 A 
ATOM     24  C   UNL d   1      29.165 -15.275  -3.725  0.00  0.00     0.031 A 
ATOM     25  C   UNL d   1      29.556 -16.169  -2.718  0.00  0.00     0.002 A 
ATOM     26  C   UNL d   1      29.390 -15.826  -1.384  0.00  0.00     0.003 A 
ATOM     27  C   UNL d   1      28.760 -14.630  -1.060  0.00  0.00     0.038 A 
ATOM     28  C   UNL d   1      28.310 -13.758  -2.071  0.00  0.00     0.129 A 
BRANCH  28  29
ATOM     29  N   UNL d   1      27.523 -12.604  -1.611  0.00  0.00    -0.113 N 
ATOM     30  O   UNL d   1      26.667 -12.817  -0.736  0.00  0.00    -0.532 OA
ATOM     31  O   UNL d   1      27.716 -11.494  -2.126  0.00  0.00    -0.532 OA
ENDBRANCH  28  29
ENDBRANCH  21  23
ENDBRANCH  20  21
ENDBRANCH  19  20
ENDBRANCH   4  19
TORSDOF 8
ENDMDL
MODEL 9
REMARK VINA RESULT:    -6.542      2.254      3.136
REMARK INTER + INTRA:         -12.647
REMARK INTER:                  -8.929
REMARK INTRA:                  -3.718
REMARK CONF_INDEPENDENT:        2.386
REMARK UNBOUND:                -3.718
REMARK  8 active torsions:
REMARK  status: ('A' for Active; 'I' for Inactive)
REMARK    1  A    between atoms: C_2  and  C_3 
REMARK       I    between atoms: C_3  and  N_5 
REMARK    2  A    between atoms: N_5  and  C_6 
REMARK    3  A    between atoms: C_10  and  N_11 
REMARK       I    between atoms: N_11  and  C_12 
REMARK       I    between atoms: C_12  and  N_14 
REMARK    4  A    between atoms: N_14  and  C_15 
REMARK    5  A    between atoms: C_15  and  C_16 
REMARK    6  A    between atoms: C_16  and  N_17 
REMARK    7  A    between atoms: N_17  and  C_18 
REMARK    8  A    between atoms: C_23  and  N_24 
ROOT
ATOM      1  N   UNL d   1      25.926 -15.958  -2.619  0.00  0.00    -0.309 N 
ATOM      2  C   UNL d   1      27.251 -15.889  -3.027  0.00  0.00     0.320 C 
ATOM      3  O   UNL d   1      28.207 -16.443  -2.511  0.00  0.00    -0.247 OA
ATOM      4  N   UNL d   1      27.477 -15.161  -4.169  0.00  0.00    -0.341 N 
ATOM      5  H   UNL d   1      25.224 -15.467  -3.152  0.00  0.00     0.170 HD
ATOM      6  H   UNL d   1      26.781 -14.530  -4.531  0.00  0.00     0.164 HD
ENDROOT
BRANCH   1   7
ATOM      7  C   UNL d   1      25.483 -16.753  -1.516  0.00  0.00     0.038 A 
ATOM      8  C   UNL d   1      26.374 -17.225  -0.547  0.00  0.00     0.029 A 
ATOM      9  C   UNL d   1      25.887 -17.927   0.576  0.00  0.00     0.004 A 
ATOM     10  C   UNL d   1      24.518 -18.200   0.724  0.00  0.00     0.029 A 
ATOM     11  C   UNL d   1      23.631 -17.767  -0.249  0.00  0.00     0.036 A 
ATOM     12  C   UNL d   1      24.130 -17.058  -1.340  0.00  0.00     0.059 A 
BRANCH  11  13
ATOM     13  N   UNL d   1      22.236 -17.984  -0.139  0.00  0.00    -0.327 N 
ATOM     14  C   UNL d   1      21.537 -18.735  -1.079  0.00  0.00     0.221 C 
ATOM     15  O   UNL d   1      22.063 -19.325  -2.020  0.00  0.00    -0.273 OA
ATOM     16  H   UNL d   1      21.782 -17.714   0.722  0.00  0.00     0.169 HD
BRANCH  14  17
ATOM     17  C   UNL d   1      20.044 -18.857  -0.827  0.00  0.00     0.098 C 
ATOM     18  C   UNL d   1      19.757 -20.126  -0.025  0.00  0.00     0.014 C 
ENDBRANCH  14  17
ENDBRANCH  11  13
ENDBRANCH   1   7
BRANCH   4  19
ATOM     19  C   UNL d   1      28.880 -15.032  -4.584  0.00  0.00     0.144 C 
BRANCH  19  20
ATOM     20  C   UNL d   1      29.478 -13.688  -4.203  0.00  0.00     0.139 C 
BRANCH  20  21
ATOM     21  N   UNL d   1      28.489 -12.747  -3.689  0.00  0.00    -0.386 N 
ATOM     22  H   UNL d   1      28.267 -12.747  -2.695  0.00  0.00     0.159 HD
BRANCH  21  23
ATOM     23  C   UNL d   1      27.642 -12.041  -4.534  0.00  0.00     0.061 A 
ATOM     24  C   UNL d   1      28.205 -10.944  -5.223  0.00  0.00     0.031 A 
ATOM     25  C   UNL d   1      27.470 -10.187  -6.148  0.00  0.00     0.002 A 
ATOM     26  C   UNL d   1      26.164 -10.544  -6.452  0.00  0.00     0.003 A 
ATOM     27  C   UNL d   1      25.569 -11.601  -5.772  0.00  0.00     0.038 A 
ATOM     28  C   UNL d   1      26.286 -12.324  -4.798  0.00  0.00     0.129 A 
BRANCH  28  29
ATOM     29  N   UNL d   1      25.506 -13.313  -4.039  0.00  0.00    -0.113 N 
ATOM     30  O   UNL d   1      25.688 -13.354  -2.811  0.00  0.00    -0.532 OA
ATOM     31  O   UNL d   1      24.740 -14.075  -4.645  0.00  0.00    -0.532 OA
ENDBRANCH  28  29
ENDBRANCH  21  23
ENDBRANCH  20  21
ENDBRANCH  19  20
ENDBRANCH   4  19
TORSDOF 8
ENDMDL
