MODEL 1
REMARK VINA RESULT:   -29.548      0.000      0.000
REMARK INTER + INTRA:         -31.955
REMARK INTER:                 -31.040
REMARK INTRA:                  -0.916
REMARK CONF_INDEPENDENT:        1.492
REMARK UNBOUND:                -0.916
REMARK  5 active torsions:
REMARK  status: ('A' for Active; 'I' for Inactive)
REMARK       I    between atoms: C_2  and  N_3 
REMARK    1  A    between atoms: C_2  and  C_15 
REMARK    2  A    between atoms: N_3  and  C_4 
REMARK    3  A    between atoms: C_4  and  C_5 
REMARK    4  A    between atoms: C_5  and  C_6 
REMARK    5  A    between atoms: C_19  and  N_18 
ROOT
ATOM      1  C   UNL d   1      26.062 -15.530  -1.213  0.00  0.00     0.081 C 
ATOM      2  C   UNL d   1      25.635 -15.890   0.217  0.00  0.00     0.044 C 
ATOM      3  C   UNL d   1      25.570 -17.423   0.443  0.00  0.00     0.277 C 
ATOM      4  N   UNL d   1      24.716 -18.126  -0.504  0.00  0.00     0.121 N 
ATOM      5  C   UNL d   1      25.148 -17.797  -1.886  0.00  0.00     0.277 C 
ATOM      6  C   UNL d   1      25.189 -16.300  -2.218  0.00  0.00     0.044 C 
ENDROOT
BRANCH   1   7
ATOM      7  C   UNL d   1      27.570 -15.749  -1.451  0.00  0.00     0.221 C 
ATOM      8  O   UNL d   1      28.335 -16.089  -0.561  0.00  0.00    -0.273 OA
ATOM      9  N   UNL d   1      28.010 -15.501  -2.733  0.00  0.00    -0.360 N 
ATOM     10  H   UNL d   1      27.357 -15.420  -3.492  0.00  0.00     0.162 HD
BRANCH   9  11
ATOM     11  C   UNL d   1      29.387 -15.527  -3.115  0.00  0.00     0.127 C 
BRANCH  11  12
ATOM     12  C   UNL d   1      29.792 -16.940  -3.550  0.00  0.00     0.056 C 
BRANCH  12  13
ATOM     13  C   UNL d   1      30.208 -16.962  -4.974  0.00  0.00    -0.048 A 
ATOM     14  C   UNL d   1      30.535 -18.039  -5.694  0.00  0.00    -0.006 A 
ATOM     15  C   UNL d   1      30.602 -19.432  -5.411  0.00  0.00     0.014 A 
ATOM     16  C   UNL d   1      30.868 -17.500  -7.028  0.00  0.00     0.038 A 
ATOM     17  C   UNL d   1      30.976 -20.265  -6.393  0.00  0.00     0.001 A 
ATOM     18  C   UNL d   1      31.329 -19.770  -7.715  0.00  0.00     0.002 A 
ATOM     19  C   UNL d   1      31.293 -18.470  -8.061  0.00  0.00     0.030 A 
ATOM     20  N   UNL d   1      30.741 -16.241  -7.084  0.00  0.00    -0.385 N 
ATOM     21  C   UNL d   1      30.287 -15.706  -5.784  0.00  0.00     0.155 A 
ATOM     22  H   UNL d   1      30.939 -15.684  -7.920  0.00  0.00     0.160 HD
ENDBRANCH  12  13
ENDBRANCH  11  12
ENDBRANCH   9  11
ENDBRANCH   1   7
BRANCH   4  23
ATOM     23  C   UNL d   1      23.263 -17.989  -0.232  0.00  0.00     0.392 C 
ATOM     24  N   UNL d   1      22.637 -18.576   0.956  0.00  0.00    -0.350 N 
ATOM     25  C   UNL d   1      21.346 -19.054   0.771  0.00  0.00     0.066 C 
ATOM     26  H   UNL d   1      23.033 -18.475   1.871  0.00  0.00     0.162 HD
ATOM     27  C   UNL d   1      20.538 -19.670   1.726  0.00  0.00     0.033 C 
ATOM     28  C   UNL d   1      20.838 -18.974  -0.520  0.00  0.00     0.123 C 
ATOM     29  C   UNL d   1      19.198 -19.940   1.414  0.00  0.00     0.022 C 
ATOM     30  C   UNL d   1      18.776 -19.754   0.103  0.00  0.00     0.118 C 
ATOM     31  N   UNL d   1      19.584 -19.313  -0.895  0.00  0.00    -0.252 NA
ATOM     32  S   UNL d   1      22.153 -18.488  -1.645  0.00  0.00    -0.051 SA
ENDBRANCH   4  23
TORSDOF 5
ENDMDL
MODEL 2
REMARK VINA RESULT:   -29.511      3.914      6.283
REMARK INTER + INTRA:         -32.152
REMARK INTER:                 -31.003
REMARK INTRA:                  -1.149
REMARK CONF_INDEPENDENT:        1.492
REMARK UNBOUND:                -1.149
REMARK  5 active torsions:
REMARK  status: ('A' for Active; 'I' for Inactive)
REMARK       I    between atoms: C_2  and  N_3 
REMARK    1  A    between atoms: C_2  and  C_15 
REMARK    2  A    between atoms: N_3  and  C_4 
REMARK    3  A    between atoms: C_4  and  C_5 
REMARK    4  A    between atoms: C_5  and  C_6 
REMARK    5  A    between atoms: C_19  and  N_18 
ROOT
ATOM      1  C   UNL d   1      25.973 -15.402  -1.226  0.00  0.00     0.081 C 
ATOM      2  C   UNL d   1      25.558 -15.757   0.208  0.00  0.00     0.044 C 
ATOM      3  C   UNL d   1      25.541 -17.288   0.453  0.00  0.00     0.277 C 
ATOM      4  N   UNL d   1      24.710 -18.030  -0.484  0.00  0.00     0.121 N 
ATOM      5  C   UNL d   1      25.132 -17.705  -1.871  0.00  0.00     0.277 C 
ATOM      6  C   UNL d   1      25.125 -16.211  -2.221  0.00  0.00     0.044 C 
ENDROOT
BRANCH   1   7
ATOM      7  C   UNL d   1      27.487 -15.576  -1.462  0.00  0.00     0.221 C 
ATOM      8  O   UNL d   1      27.959 -15.822  -2.562  0.00  0.00    -0.273 OA
ATOM      9  N   UNL d   1      28.279 -15.469  -0.340  0.00  0.00    -0.360 N 
ATOM     10  H   UNL d   1      27.913 -15.074   0.509  0.00  0.00     0.162 HD
BRANCH   9  11
ATOM     11  C   UNL d   1      29.685 -15.722  -0.337  0.00  0.00     0.127 C 
BRANCH  11  12
ATOM     12  C   UNL d   1      30.443 -14.516   0.229  0.00  0.00     0.056 C 
BRANCH  12  13
ATOM     13  C   UNL d   1      30.373 -14.487   1.712  0.00  0.00    -0.048 A 
ATOM     14  C   UNL d   1      29.318 -14.142   2.455  0.00  0.00    -0.006 A 
ATOM     15  C   UNL d   1      27.994 -13.716   2.152  0.00  0.00     0.014 A 
ATOM     16  C   UNL d   1      29.790 -14.284   3.846  0.00  0.00     0.038 A 
ATOM     17  C   UNL d   1      27.163 -13.445   3.169  0.00  0.00     0.001 A 
ATOM     18  C   UNL d   1      27.597 -13.556   4.553  0.00  0.00     0.002 A 
ATOM     19  C   UNL d   1      28.830 -13.949   4.921  0.00  0.00     0.030 A 
ATOM     20  N   UNL d   1      30.991 -14.680   3.910  0.00  0.00    -0.385 N 
ATOM     21  C   UNL d   1      31.544 -14.883   2.556  0.00  0.00     0.155 A 
ATOM     22  H   UNL d   1      31.499 -14.825   4.788  0.00  0.00     0.160 HD
ENDBRANCH  12  13
ENDBRANCH  11  12
ENDBRANCH   9  11
ENDBRANCH   1   7
BRANCH   4  23
ATOM     23  C   UNL d   1      23.254 -17.935  -0.214  0.00  0.00     0.392 C 
ATOM     24  N   UNL d   1      22.638 -18.574   0.953  0.00  0.00    -0.350 N 
ATOM     25  C   UNL d   1      21.359 -19.076   0.749  0.00  0.00     0.066 C 
ATOM     26  H   UNL d   1      23.029 -18.492   1.872  0.00  0.00     0.162 HD
ATOM     27  C   UNL d   1      20.563 -19.740   1.681  0.00  0.00     0.033 C 
ATOM     28  C   UNL d   1      20.854 -18.968  -0.541  0.00  0.00     0.123 C 
ATOM     29  C   UNL d   1      19.231 -20.032   1.356  0.00  0.00     0.022 C 
ATOM     30  C   UNL d   1      18.809 -19.815   0.049  0.00  0.00     0.118 C 
ATOM     31  N   UNL d   1      19.609 -19.325  -0.932  0.00  0.00    -0.252 NA
ATOM     32  S   UNL d   1      22.160 -18.416  -1.645  0.00  0.00    -0.051 SA
ENDBRANCH   4  23
TORSDOF 5
ENDMDL
MODEL 3
REMARK VINA RESULT:   -29.067      1.537      2.783
REMARK INTER + INTRA:         -31.630
REMARK INTER:                 -30.559
REMARK INTRA:                  -1.071
REMARK CONF_INDEPENDENT:        1.492
REMARK UNBOUND:                -1.071
REMARK  5 active torsions:
REMARK  status: ('A' for Active; 'I' for Inactive)
REMARK       I    between atoms: C_2  and  N_3 
REMARK    1  A    between atoms: C_2  and  C_15 
REMARK    2  A    between atoms: N_3  and  C_4 
REMARK    3  A    between atoms: C_4  and  C_5 
REMARK    4  A    between atoms: C_5  and  C_6 
REMARK    5  A    between atoms: C_19  and  N_18 
ROOT
ATOM      1  C   UNL d   1      26.713 -15.614  -0.480  0.00  0.00     0.081 C 
ATOM      2  C   UNL d   1      26.163 -16.573   0.585  0.00  0.00     0.044 C 
ATOM      3  C   UNL d   1      25.894 -17.990   0.018  0.00  0.00     0.277 C 
ATOM      4  N   UNL d   1      25.015 -18.009  -1.143  0.00  0.00     0.121 N 
ATOM      5  C   UNL d   1      25.564 -17.100  -2.182  0.00  0.00     0.277 C 
ATOM      6  C   UNL d   1      25.811 -15.658  -1.724  0.00  0.00     0.044 C 
ENDROOT
BRANCH   1   7
ATOM      7  C   UNL d   1      28.193 -15.890  -0.814  0.00  0.00     0.221 C 
ATOM      8  O   UNL d   1      29.076 -15.861   0.031  0.00  0.00    -0.273 OA
ATOM      9  N   UNL d   1      28.466 -16.140  -2.141  0.00  0.00    -0.360 N 
ATOM     10  H   UNL d   1      27.724 -16.358  -2.783  0.00  0.00     0.162 HD
BRANCH   9  11
ATOM     11  C   UNL d   1      29.787 -16.293  -2.661  0.00  0.00     0.127 C 
BRANCH  11  12
ATOM     12  C   UNL d   1      29.751 -17.052  -3.993  0.00  0.00     0.056 C 
BRANCH  12  13
ATOM     13  C   UNL d   1      29.827 -16.117  -5.143  0.00  0.00    -0.048 A 
ATOM     14  C   UNL d   1      29.007 -15.093  -5.396  0.00  0.00    -0.006 A 
ATOM     15  C   UNL d   1      27.870 -14.554  -4.733  0.00  0.00     0.014 A 
ATOM     16  C   UNL d   1      29.526 -14.510  -6.649  0.00  0.00     0.038 A 
ATOM     17  C   UNL d   1      27.265 -13.485  -5.272  0.00  0.00     0.001 A 
ATOM     18  C   UNL d   1      27.735 -12.894  -6.515  0.00  0.00     0.002 A 
ATOM     19  C   UNL d   1      28.801 -13.345  -7.202  0.00  0.00     0.030 A 
ATOM     20  N   UNL d   1      30.546 -15.124  -7.080  0.00  0.00    -0.385 N 
ATOM     21  C   UNL d   1      30.904 -16.237  -6.177  0.00  0.00     0.155 A 
ATOM     22  H   UNL d   1      31.039 -14.877  -7.943  0.00  0.00     0.160 HD
ENDBRANCH  12  13
ENDBRANCH  11  12
ENDBRANCH   9  11
ENDBRANCH   1   7
BRANCH   4  23
ATOM     23  C   UNL d   1      23.578 -17.826  -0.821  0.00  0.00     0.392 C 
ATOM     24  N   UNL d   1      23.040 -18.105   0.514  0.00  0.00    -0.350 N 
ATOM     25  C   UNL d   1      21.755 -18.631   0.537  0.00  0.00     0.066 C 
ATOM     26  H   UNL d   1      23.487 -17.774   1.348  0.00  0.00     0.162 HD
ATOM     27  C   UNL d   1      21.023 -18.999   1.665  0.00  0.00     0.033 C 
ATOM     28  C   UNL d   1      21.169 -18.883  -0.698  0.00  0.00     0.123 C 
ATOM     29  C   UNL d   1      19.675 -19.356   1.517  0.00  0.00     0.022 C 
ATOM     30  C   UNL d   1      19.171 -19.509   0.231  0.00  0.00     0.118 C 
ATOM     31  N   UNL d   1      19.905 -19.321  -0.895  0.00  0.00    -0.252 NA
ATOM     32  S   UNL d   1      22.401 -18.677  -1.990  0.00  0.00    -0.051 SA
ENDBRANCH   4  23
TORSDOF 5
ENDMDL
MODEL 4
REMARK VINA RESULT:   -28.892      1.695      2.136
REMARK INTER + INTRA:         -31.157
REMARK INTER:                 -30.384
REMARK INTRA:                  -0.773
REMARK CONF_INDEPENDENT:        1.492
REMARK UNBOUND:                -0.773
REMARK  5 active torsions:
REMARK  status: ('A' for Active; 'I' for Inactive)
REMARK       I    between atoms: C_2  and  N_3 
REMARK    1  A    between atoms: C_2  and  C_15 
REMARK    2  A    between atoms: N_3  and  C_4 
REMARK    3  A    between atoms: C_4  and  C_5 
REMARK    4  A    between atoms: C_5  and  C_6 
REMARK    5  A    between atoms: C_19  and  N_18 
ROOT
ATOM      1  C   UNL d   1      26.681 -15.566  -0.461  0.00  0.00     0.081 C 
ATOM      2  C   UNL d   1      26.131 -16.522   0.606  0.00  0.00     0.044 C 
ATOM      3  C   UNL d   1      25.877 -17.945   0.045  0.00  0.00     0.277 C 
ATOM      4  N   UNL d   1      25.007 -17.977  -1.122  0.00  0.00     0.121 N 
ATOM      5  C   UNL d   1      25.556 -17.071  -2.163  0.00  0.00     0.277 C 
ATOM      6  C   UNL d   1      25.788 -15.623  -1.711  0.00  0.00     0.044 C 
ENDROOT
BRANCH   1   7
ATOM      7  C   UNL d   1      28.165 -15.831  -0.782  0.00  0.00     0.221 C 
ATOM      8  O   UNL d   1      28.894 -14.985  -1.280  0.00  0.00    -0.273 OA
ATOM      9  N   UNL d   1      28.615 -17.104  -0.504  0.00  0.00    -0.360 N 
ATOM     10  H   UNL d   1      28.077 -17.720   0.080  0.00  0.00     0.162 HD
BRANCH   9  11
ATOM     11  C   UNL d   1      29.919 -17.575  -0.847  0.00  0.00     0.127 C 
BRANCH  11  12
ATOM     12  C   UNL d   1      30.212 -17.302  -2.326  0.00  0.00     0.056 C 
BRANCH  12  13
ATOM     13  C   UNL d   1      30.817 -18.489  -2.980  0.00  0.00    -0.048 A 
ATOM     14  C   UNL d   1      30.804 -18.777  -4.284  0.00  0.00    -0.006 A 
ATOM     15  C   UNL d   1      30.267 -18.129  -5.431  0.00  0.00     0.014 A 
ATOM     16  C   UNL d   1      31.535 -20.056  -4.383  0.00  0.00     0.038 A 
ATOM     17  C   UNL d   1      30.441 -18.706  -6.629  0.00  0.00     0.001 A 
ATOM     18  C   UNL d   1      31.139 -19.975  -6.766  0.00  0.00     0.002 A 
ATOM     19  C   UNL d   1      31.673 -20.650  -5.731  0.00  0.00     0.030 A 
ATOM     20  N   UNL d   1      31.940 -20.468  -3.257  0.00  0.00    -0.385 N 
ATOM     21  C   UNL d   1      31.556 -19.524  -2.188  0.00  0.00     0.155 A 
ATOM     22  H   UNL d   1      32.454 -21.343  -3.120  0.00  0.00     0.160 HD
ENDBRANCH  12  13
ENDBRANCH  11  12
ENDBRANCH   9  11
ENDBRANCH   1   7
BRANCH   4  23
ATOM     23  C   UNL d   1      23.566 -17.804  -0.812  0.00  0.00     0.392 C 
ATOM     24  N   UNL d   1      23.020 -18.086   0.519  0.00  0.00    -0.350 N 
ATOM     25  C   UNL d   1      21.738 -18.621   0.533  0.00  0.00     0.066 C 
ATOM     26  H   UNL d   1      23.458 -17.751   1.356  0.00  0.00     0.162 HD
ATOM     27  C   UNL d   1      20.999 -18.993   1.655  0.00  0.00     0.033 C 
ATOM     28  C   UNL d   1      21.164 -18.878  -0.707  0.00  0.00     0.123 C 
ATOM     29  C   UNL d   1      19.656 -19.359   1.497  0.00  0.00     0.022 C 
ATOM     30  C   UNL d   1      19.163 -19.517   0.207  0.00  0.00     0.118 C 
ATOM     31  N   UNL d   1      19.904 -19.325  -0.914  0.00  0.00    -0.252 NA
ATOM     32  S   UNL d   1      22.404 -18.664  -1.990  0.00  0.00    -0.051 SA
ENDBRANCH   4  23
TORSDOF 5
ENDMDL
MODEL 5
REMARK VINA RESULT:   -28.796      2.462      3.637
REMARK INTER + INTRA:         -31.800
REMARK INTER:                 -30.288
REMARK INTRA:                  -1.513
REMARK CONF_INDEPENDENT:        1.492
REMARK UNBOUND:                -1.513
REMARK  5 active torsions:
REMARK  status: ('A' for Active; 'I' for Inactive)
REMARK       I    between atoms: C_2  and  N_3 
REMARK    1  A    between atoms: C_2  and  C_15 
REMARK    2  A    between atoms: N_3  and  C_4 
REMARK    3  A    between atoms: C_4  and  C_5 
REMARK    4  A    between atoms: C_5  and  C_6 
REMARK    5  A    between atoms: C_19  and  N_18 
ROOT
ATOM      1  C   UNL d   1      26.715 -15.625  -0.445  0.00  0.00     0.081 C 
ATOM      2  C   UNL d   1      26.167 -16.601   0.605  0.00  0.00     0.044 C 
ATOM      3  C   UNL d   1      25.895 -18.009   0.014  0.00  0.00     0.277 C 
ATOM      4  N   UNL d   1      25.013 -18.006  -1.145  0.00  0.00     0.121 N 
ATOM      5  C   UNL d   1      25.560 -17.080  -2.170  0.00  0.00     0.277 C 
ATOM      6  C   UNL d   1      25.809 -15.646  -1.687  0.00  0.00     0.044 C 
ENDROOT
BRANCH   1   7
ATOM      7  C   UNL d   1      28.194 -15.896  -0.787  0.00  0.00     0.221 C 
ATOM      8  O   UNL d   1      29.117 -15.439  -0.130  0.00  0.00    -0.273 OA
ATOM      9  N   UNL d   1      28.412 -16.665  -1.910  0.00  0.00    -0.360 N 
ATOM     10  H   UNL d   1      27.664 -17.195  -2.321  0.00  0.00     0.162 HD
BRANCH   9  11
ATOM     11  C   UNL d   1      29.708 -16.918  -2.455  0.00  0.00     0.127 C 
BRANCH  11  12
ATOM     12  C   UNL d   1      29.953 -16.030  -3.681  0.00  0.00     0.056 C 
BRANCH  12  13
ATOM     13  C   UNL d   1      29.216 -14.747  -3.568  0.00  0.00    -0.048 A 
ATOM     14  C   UNL d   1      27.983 -14.492  -4.013  0.00  0.00    -0.006 A 
ATOM     15  C   UNL d   1      27.000 -15.266  -4.691  0.00  0.00     0.014 A 
ATOM     16  C   UNL d   1      27.747 -13.081  -3.648  0.00  0.00     0.038 A 
ATOM     17  C   UNL d   1      25.831 -14.684  -4.997  0.00  0.00     0.001 A 
ATOM     18  C   UNL d   1      25.567 -13.291  -4.671  0.00  0.00     0.002 A 
ATOM     19  C   UNL d   1      26.445 -12.494  -4.033  0.00  0.00     0.030 A 
ATOM     20  N   UNL d   1      28.735 -12.568  -3.046  0.00  0.00    -0.385 N 
ATOM     21  C   UNL d   1      29.821 -13.557  -2.890  0.00  0.00     0.155 A 
ATOM     22  H   UNL d   1      28.766 -11.596  -2.725  0.00  0.00     0.160 HD
ENDBRANCH  12  13
ENDBRANCH  11  12
ENDBRANCH   9  11
ENDBRANCH   1   7
BRANCH   4  23
ATOM     23  C   UNL d   1      23.577 -17.828  -0.817  0.00  0.00     0.392 C 
ATOM     24  N   UNL d   1      23.044 -18.123   0.517  0.00  0.00    -0.350 N 
ATOM     25  C   UNL d   1      21.759 -18.649   0.539  0.00  0.00     0.066 C 
ATOM     26  H   UNL d   1      23.493 -17.800   1.353  0.00  0.00     0.162 HD
ATOM     27  C   UNL d   1      21.031 -19.031   1.665  0.00  0.00     0.033 C 
ATOM     28  C   UNL d   1      21.169 -18.888  -0.697  0.00  0.00     0.123 C 
ATOM     29  C   UNL d   1      19.683 -19.387   1.518  0.00  0.00     0.022 C 
ATOM     30  C   UNL d   1      19.174 -19.525   0.231  0.00  0.00     0.118 C 
ATOM     31  N   UNL d   1      19.905 -19.325  -0.895  0.00  0.00    -0.252 NA
ATOM     32  S   UNL d   1      22.396 -18.666  -1.991  0.00  0.00    -0.051 SA
ENDBRANCH   4  23
TORSDOF 5
ENDMDL
MODEL 6
REMARK VINA RESULT:   -28.667      1.395      2.064
REMARK INTER + INTRA:         -30.901
REMARK INTER:                 -30.158
REMARK INTRA:                  -0.743
REMARK CONF_INDEPENDENT:        1.492
REMARK UNBOUND:                -0.743
REMARK  5 active torsions:
REMARK  status: ('A' for Active; 'I' for Inactive)
REMARK       I    between atoms: C_2  and  N_3 
REMARK    1  A    between atoms: C_2  and  C_15 
REMARK    2  A    between atoms: N_3  and  C_4 
REMARK    3  A    between atoms: C_4  and  C_5 
REMARK    4  A    between atoms: C_5  and  C_6 
REMARK    5  A    between atoms: C_19  and  N_18 
ROOT
ATOM      1  C   UNL d   1      26.889 -16.277   0.334  0.00  0.00     0.081 C 
ATOM      2  C   UNL d   1      26.185 -17.478   0.980  0.00  0.00     0.044 C 
ATOM      3  C   UNL d   1      25.833 -18.579  -0.053  0.00  0.00     0.277 C 
ATOM      4  N   UNL d   1      25.038 -18.105  -1.177  0.00  0.00     0.121 N 
ATOM      5  C   UNL d   1      25.734 -16.959  -1.817  0.00  0.00     0.277 C 
ATOM      6  C   UNL d   1      26.074 -15.795  -0.877  0.00  0.00     0.044 C 
ENDROOT
BRANCH   1   7
ATOM      7  C   UNL d   1      28.359 -16.577  -0.024  0.00  0.00     0.221 C 
ATOM      8  O   UNL d   1      29.266 -15.791   0.204  0.00  0.00    -0.273 OA
ATOM      9  N   UNL d   1      28.582 -17.782  -0.654  0.00  0.00    -0.360 N 
ATOM     10  H   UNL d   1      27.876 -18.496  -0.656  0.00  0.00     0.162 HD
BRANCH   9  11
ATOM     11  C   UNL d   1      29.853 -18.179  -1.173  0.00  0.00     0.127 C 
BRANCH  11  12
ATOM     12  C   UNL d   1      30.636 -16.955  -1.659  0.00  0.00     0.056 C 
BRANCH  12  13
ATOM     13  C   UNL d   1      30.022 -16.377  -2.881  0.00  0.00    -0.048 A 
ATOM     14  C   UNL d   1      30.322 -16.681  -4.146  0.00  0.00    -0.006 A 
ATOM     15  C   UNL d   1      31.243 -17.580  -4.753  0.00  0.00     0.014 A 
ATOM     16  C   UNL d   1      29.429 -15.823  -4.950  0.00  0.00     0.038 A 
ATOM     17  C   UNL d   1      31.287 -17.640  -6.092  0.00  0.00     0.001 A 
ATOM     18  C   UNL d   1      30.436 -16.797  -6.918  0.00  0.00     0.002 A 
ATOM     19  C   UNL d   1      29.542 -15.923  -6.421  0.00  0.00     0.030 A 
ATOM     20  N   UNL d   1      28.679 -15.100  -4.230  0.00  0.00    -0.385 N 
ATOM     21  C   UNL d   1      28.933 -15.352  -2.797  0.00  0.00     0.155 A 
ATOM     22  H   UNL d   1      28.002 -14.429  -4.604  0.00  0.00     0.160 HD
ENDBRANCH  12  13
ENDBRANCH  11  12
ENDBRANCH   9  11
ENDBRANCH   1   7
BRANCH   4  23
ATOM     23  C   UNL d   1      23.603 -17.892  -0.862  0.00  0.00     0.392 C 
ATOM     24  N   UNL d   1      23.058 -18.141   0.477  0.00  0.00    -0.350 N 
ATOM     25  C   UNL d   1      21.764 -18.644   0.506  0.00  0.00     0.066 C 
ATOM     26  H   UNL d   1      23.510 -17.803   1.306  0.00  0.00     0.162 HD
ATOM     27  C   UNL d   1      21.024 -18.981   1.638  0.00  0.00     0.033 C 
ATOM     28  C   UNL d   1      21.176 -18.905  -0.726  0.00  0.00     0.123 C 
ATOM     29  C   UNL d   1      19.671 -19.317   1.494  0.00  0.00     0.022 C 
ATOM     30  C   UNL d   1      19.166 -19.482   0.209  0.00  0.00     0.118 C 
ATOM     31  N   UNL d   1      19.905 -19.325  -0.918  0.00  0.00    -0.252 NA
ATOM     32  S   UNL d   1      22.413 -18.741  -2.019  0.00  0.00    -0.051 SA
ENDBRANCH   4  23
TORSDOF 5
ENDMDL
MODEL 7
REMARK VINA RESULT:   -28.489      3.168      5.315
REMARK INTER + INTRA:         -31.709
REMARK INTER:                 -29.980
REMARK INTRA:                  -1.729
REMARK CONF_INDEPENDENT:        1.492
REMARK UNBOUND:                -1.729
REMARK  5 active torsions:
REMARK  status: ('A' for Active; 'I' for Inactive)
REMARK       I    between atoms: C_2  and  N_3 
REMARK    1  A    between atoms: C_2  and  C_15 
REMARK    2  A    between atoms: N_3  and  C_4 
REMARK    3  A    between atoms: C_4  and  C_5 
REMARK    4  A    between atoms: C_5  and  C_6 
REMARK    5  A    between atoms: C_19  and  N_18 
ROOT
ATOM      1  C   UNL d   1      25.800 -15.415  -1.618  0.00  0.00     0.081 C 
ATOM      2  C   UNL d   1      25.434 -15.606  -0.139  0.00  0.00     0.044 C 
ATOM      3  C   UNL d   1      25.487 -17.094   0.292  0.00  0.00     0.277 C 
ATOM      4  N   UNL d   1      24.665 -17.978  -0.523  0.00  0.00     0.121 N 
ATOM      5  C   UNL d   1      25.039 -17.810  -1.951  0.00  0.00     0.277 C 
ATOM      6  C   UNL d   1      24.962 -16.373  -2.481  0.00  0.00     0.044 C 
ENDROOT
BRANCH   1   7
ATOM      7  C   UNL d   1      27.314 -15.559  -1.875  0.00  0.00     0.221 C 
ATOM      8  O   UNL d   1      27.991 -16.430  -1.349  0.00  0.00    -0.273 OA
ATOM      9  N   UNL d   1      27.866 -14.615  -2.713  0.00  0.00    -0.360 N 
ATOM     10  H   UNL d   1      27.280 -14.037  -3.289  0.00  0.00     0.162 HD
BRANCH   9  11
ATOM     11  C   UNL d   1      29.267 -14.510  -2.970  0.00  0.00     0.127 C 
BRANCH  11  12
ATOM     12  C   UNL d   1      29.924 -13.560  -1.963  0.00  0.00     0.056 C 
BRANCH  12  13
ATOM     13  C   UNL d   1      29.722 -14.033  -0.571  0.00  0.00    -0.048 A 
ATOM     14  C   UNL d   1      28.738 -13.676   0.260  0.00  0.00    -0.006 A 
ATOM     15  C   UNL d   1      27.621 -12.802   0.147  0.00  0.00     0.014 A 
ATOM     16  C   UNL d   1      29.015 -14.429   1.499  0.00  0.00     0.038 A 
ATOM     17  C   UNL d   1      26.804 -12.672   1.203  0.00  0.00     0.001 A 
ATOM     18  C   UNL d   1      27.054 -13.383   2.447  0.00  0.00     0.002 A 
ATOM     19  C   UNL d   1      28.087 -14.225   2.633  0.00  0.00     0.030 A 
ATOM     20  N   UNL d   1      30.047 -15.157   1.401  0.00  0.00    -0.385 N 
ATOM     21  C   UNL d   1      30.650 -15.026   0.058  0.00  0.00     0.155 A 
ATOM     22  H   UNL d   1      30.407 -15.742   2.159  0.00  0.00     0.160 HD
ENDBRANCH  12  13
ENDBRANCH  11  12
ENDBRANCH   9  11
ENDBRANCH   1   7
BRANCH   4  23
ATOM     23  C   UNL d   1      23.213 -17.905  -0.224  0.00  0.00     0.392 C 
ATOM     24  N   UNL d   1      22.625 -18.575   0.941  0.00  0.00    -0.350 N 
ATOM     25  C   UNL d   1      21.349 -19.088   0.749  0.00  0.00     0.066 C 
ATOM     26  H   UNL d   1      23.033 -18.508   1.854  0.00  0.00     0.162 HD
ATOM     27  C   UNL d   1      20.578 -19.781   1.681  0.00  0.00     0.033 C 
ATOM     28  C   UNL d   1      20.819 -18.958  -0.529  0.00  0.00     0.123 C 
ATOM     29  C   UNL d   1      19.244 -20.081   1.374  0.00  0.00     0.022 C 
ATOM     30  C   UNL d   1      18.795 -19.842   0.081  0.00  0.00     0.118 C 
ATOM     31  N   UNL d   1      19.571 -19.322  -0.904  0.00  0.00    -0.252 NA
ATOM     32  S   UNL d   1      22.098 -18.369  -1.645  0.00  0.00    -0.051 SA
ENDBRANCH   4  23
TORSDOF 5
ENDMDL
MODEL 8
REMARK VINA RESULT:   -27.857      2.004      2.798
REMARK INTER + INTRA:         -30.774
REMARK INTER:                 -29.349
REMARK INTRA:                  -1.425
REMARK CONF_INDEPENDENT:        1.492
REMARK UNBOUND:                -1.425
REMARK  5 active torsions:
REMARK  status: ('A' for Active; 'I' for Inactive)
REMARK       I    between atoms: C_2  and  N_3 
REMARK    1  A    between atoms: C_2  and  C_15 
REMARK    2  A    between atoms: N_3  and  C_4 
REMARK    3  A    between atoms: C_4  and  C_5 
REMARK    4  A    between atoms: C_5  and  C_6 
REMARK    5  A    between atoms: C_19  and  N_18 
ROOT
ATOM      1  C   UNL d   1      26.123 -15.447  -1.235  0.00  0.00     0.081 C 
ATOM      2  C   UNL d   1      25.618 -15.658   0.199  0.00  0.00     0.044 C 
ATOM      3  C   UNL d   1      25.610 -17.155   0.605  0.00  0.00     0.277 C 
ATOM      4  N   UNL d   1      24.858 -18.012  -0.300  0.00  0.00     0.121 N 
ATOM      5  C   UNL d   1      25.366 -17.824  -1.683  0.00  0.00     0.277 C 
ATOM      6  C   UNL d   1      25.358 -16.377  -2.191  0.00  0.00     0.044 C 
ENDROOT
BRANCH   1   7
ATOM      7  C   UNL d   1      27.652 -15.608  -1.351  0.00  0.00     0.221 C 
ATOM      8  O   UNL d   1      28.173 -16.534  -1.954  0.00  0.00    -0.273 OA
ATOM      9  N   UNL d   1      28.401 -14.653  -0.698  0.00  0.00    -0.360 N 
ATOM     10  H   UNL d   1      27.977 -13.799  -0.382  0.00  0.00     0.162 HD
BRANCH   9  11
ATOM     11  C   UNL d   1      29.824 -14.704  -0.588  0.00  0.00     0.127 C 
BRANCH  11  12
ATOM     12  C   UNL d   1      30.460 -13.533  -1.345  0.00  0.00     0.056 C 
BRANCH  12  13
ATOM     13  C   UNL d   1      29.847 -13.367  -2.686  0.00  0.00    -0.048 A 
ATOM     14  C   UNL d   1      29.766 -14.291  -3.648  0.00  0.00    -0.006 A 
ATOM     15  C   UNL d   1      30.187 -15.646  -3.751  0.00  0.00     0.014 A 
ATOM     16  C   UNL d   1      29.075 -13.604  -4.757  0.00  0.00     0.038 A 
ATOM     17  C   UNL d   1      29.939 -16.306  -4.892  0.00  0.00     0.001 A 
ATOM     18  C   UNL d   1      29.277 -15.658  -6.014  0.00  0.00     0.002 A 
ATOM     19  C   UNL d   1      28.851 -14.381  -5.996  0.00  0.00     0.030 A 
ATOM     20  N   UNL d   1      28.776 -12.408  -4.471  0.00  0.00    -0.385 N 
ATOM     21  C   UNL d   1      29.211 -12.076  -3.099  0.00  0.00     0.155 A 
ATOM     22  H   UNL d   1      28.305 -11.767  -5.117  0.00  0.00     0.160 HD
ENDBRANCH  12  13
ENDBRANCH  11  12
ENDBRANCH   9  11
ENDBRANCH   1   7
BRANCH   4  23
ATOM     23  C   UNL d   1      23.385 -17.924  -0.137  0.00  0.00     0.392 C 
ATOM     24  N   UNL d   1      22.687 -18.575   0.976  0.00  0.00    -0.350 N 
ATOM     25  C   UNL d   1      21.429 -19.080   0.673  0.00  0.00     0.066 C 
ATOM     26  H   UNL d   1      23.009 -18.500   1.922  0.00  0.00     0.162 HD
ATOM     27  C   UNL d   1      20.569 -19.755   1.538  0.00  0.00     0.033 C 
ATOM     28  C   UNL d   1      21.020 -18.962  -0.650  0.00  0.00     0.123 C 
ATOM     29  C   UNL d   1      19.266 -20.048   1.113  0.00  0.00     0.022 C 
ATOM     30  C   UNL d   1      18.940 -19.821  -0.220  0.00  0.00     0.118 C 
ATOM     31  N   UNL d   1      19.808 -19.319  -1.134  0.00  0.00    -0.252 NA
ATOM     32  S   UNL d   1      22.402 -18.396  -1.650  0.00  0.00    -0.051 SA
ENDBRANCH   4  23
TORSDOF 5
ENDMDL
MODEL 9
REMARK VINA RESULT:   -27.473      4.012      5.330
REMARK INTER + INTRA:         -30.239
REMARK INTER:                 -28.964
REMARK INTRA:                  -1.275
REMARK CONF_INDEPENDENT:        1.492
REMARK UNBOUND:                -1.275
REMARK  5 active torsions:
REMARK  status: ('A' for Active; 'I' for Inactive)
REMARK       I    between atoms: C_2  and  N_3 
REMARK    1  A    between atoms: C_2  and  C_15 
REMARK    2  A    between atoms: N_3  and  C_4 
REMARK    3  A    between atoms: C_4  and  C_5 
REMARK    4  A    between atoms: C_5  and  C_6 
REMARK    5  A    between atoms: C_19  and  N_18 
ROOT
ATOM      1  C   UNL d   1      26.755 -15.702  -0.420  0.00  0.00     0.081 C 
ATOM      2  C   UNL d   1      26.193 -16.691   0.610  0.00  0.00     0.044 C 
ATOM      3  C   UNL d   1      25.903 -18.083  -0.008  0.00  0.00     0.277 C 
ATOM      4  N   UNL d   1      25.023 -18.046  -1.167  0.00  0.00     0.121 N 
ATOM      5  C   UNL d   1      25.583 -17.107  -2.174  0.00  0.00     0.277 C 
ATOM      6  C   UNL d   1      25.850 -15.686  -1.663  0.00  0.00     0.044 C 
ENDROOT
BRANCH   1   7
ATOM      7  C   UNL d   1      28.230 -15.986  -0.766  0.00  0.00     0.221 C 
ATOM      8  O   UNL d   1      28.616 -16.162  -1.912  0.00  0.00    -0.273 OA
ATOM      9  N   UNL d   1      29.089 -16.063   0.309  0.00  0.00    -0.360 N 
ATOM     10  H   UNL d   1      28.808 -15.723   1.213  0.00  0.00     0.162 HD
BRANCH   9  11
ATOM     11  C   UNL d   1      30.462 -16.440   0.199  0.00  0.00     0.127 C 
BRANCH  11  12
ATOM     12  C   UNL d   1      31.333 -15.545   1.088  0.00  0.00     0.056 C 
BRANCH  12  13
ATOM     13  C   UNL d   1      31.485 -14.191   0.498  0.00  0.00    -0.048 A 
ATOM     14  C   UNL d   1      30.606 -13.188   0.562  0.00  0.00    -0.006 A 
ATOM     15  C   UNL d   1      29.322 -13.038   1.158  0.00  0.00     0.014 A 
ATOM     16  C   UNL d   1      31.249 -12.089  -0.185  0.00  0.00     0.038 A 
ATOM     17  C   UNL d   1      28.694 -11.860   1.031  0.00  0.00     0.001 A 
ATOM     18  C   UNL d   1      29.288 -10.760   0.287  0.00  0.00     0.002 A 
ATOM     19  C   UNL d   1      30.494 -10.823  -0.305  0.00  0.00     0.030 A 
ATOM     20  N   UNL d   1      32.389 -12.413  -0.632  0.00  0.00    -0.385 N 
ATOM     21  C   UNL d   1      32.721 -13.802  -0.253  0.00  0.00     0.155 A 
ATOM     22  H   UNL d   1      32.983 -11.790  -1.187  0.00  0.00     0.160 HD
ENDBRANCH  12  13
ENDBRANCH  11  12
ENDBRANCH   9  11
ENDBRANCH   1   7
BRANCH   4  23
ATOM     23  C   UNL d   1      23.588 -17.855  -0.837  0.00  0.00     0.392 C 
ATOM     24  N   UNL d   1      23.056 -18.138   0.500  0.00  0.00    -0.350 N 
ATOM     25  C   UNL d   1      21.768 -18.655   0.528  0.00  0.00     0.066 C 
ATOM     26  H   UNL d   1      23.510 -17.813   1.333  0.00  0.00     0.162 HD
ATOM     27  C   UNL d   1      21.039 -19.024   1.658  0.00  0.00     0.033 C 
ATOM     28  C   UNL d   1      21.173 -18.896  -0.705  0.00  0.00     0.123 C 
ATOM     29  C   UNL d   1      19.688 -19.371   1.516  0.00  0.00     0.022 C 
ATOM     30  C   UNL d   1      19.176 -19.513   0.232  0.00  0.00     0.118 C 
ATOM     31  N   UNL d   1      19.905 -19.325  -0.897  0.00  0.00    -0.252 NA
ATOM     32  S   UNL d   1      22.399 -18.691  -2.003  0.00  0.00    -0.051 SA
ENDBRANCH   4  23
TORSDOF 5
ENDMDL
