MODEL 1
REMARK VINA RESULT:    -7.696      0.000      0.000
REMARK INTER + INTRA:         -14.626
REMARK INTER:                 -12.171
REMARK INTRA:                  -2.455
REMARK CONF_INDEPENDENT:        4.474
REMARK UNBOUND:                -2.455
REMARK  15 active torsions:
REMARK  status: ('A' for Active; 'I' for Inactive)
REMARK    1  A    between atoms: C_2  and  O_3 
REMARK    2  A    between atoms: O_3  and  C_4 
REMARK    3  A    between atoms: C_6  and  C_7 
REMARK       I    between atoms: C_7  and  N_9 
REMARK    4  A    between atoms: N_9  and  C_10 
REMARK    5  A    between atoms: C_10  and  C_11 
REMARK    6  A    between atoms: C_11  and  N_12 
REMARK    7  A    between atoms: C_16  and  N_17 
REMARK    8  A    between atoms: N_17  and  C_18 
REMARK    9  A    between atoms: C_18  and  C_19 
REMARK   10  A    between atoms: C_23  and  S_24 
REMARK   11  A    between atoms: S_24  and  C_25 
REMARK   12  A    between atoms: C_30  and  O_31 
REMARK   13  A    between atoms: O_31  and  C_32 
REMARK   14  A    between atoms: C_34  and  O_35 
REMARK   15  A    between atoms: O_35  and  C_36 
ROOT
ATOM      1  C   UNL d   1      29.833 -16.445  -0.504  0.00  0.00     0.145 C 
ENDROOT
BRANCH   1   2
ATOM      2  N   UNL d   1      29.410 -15.577   0.608  0.00  0.00    -0.355 N 
ATOM      3  C   UNL d   1      28.708 -14.386   0.374  0.00  0.00     0.251 C 
ATOM      4  O   UNL d   1      28.434 -14.012  -0.746  0.00  0.00    -0.268 OA
ATOM      5  H   UNL d   1      29.587 -15.896   1.545  0.00  0.00     0.162 HD
BRANCH   3   6
ATOM      6  C   UNL d   1      28.225 -13.585   1.574  0.00  0.00     0.037 A 
ATOM      7  C   UNL d   1      27.784 -14.269   2.739  0.00  0.00     0.057 A 
ATOM      8  C   UNL d   1      27.545 -13.604   3.974  0.00  0.00     0.105 A 
ATOM      9  C   UNL d   1      27.748 -12.197   4.004  0.00  0.00     0.135 A 
ATOM     10  C   UNL d   1      28.093 -11.499   2.812  0.00  0.00     0.105 A 
ATOM     11  C   UNL d   1      28.304 -12.192   1.612  0.00  0.00     0.057 A 
BRANCH   8  12
ATOM     12  O   UNL d   1      27.403 -14.479   5.055  0.00  0.00    -0.349 OA
BRANCH  12  13
ATOM     13  C   UNL d   1      28.534 -15.200   5.553  0.00  0.00     0.171 C 
ATOM     14  C   UNL d   1      29.911 -14.748   5.105  0.00  0.00     0.034 C 
ENDBRANCH  12  13
ENDBRANCH   8  12
BRANCH   9  15
ATOM     15  O   UNL d   1      27.773 -11.348   5.083  0.00  0.00    -0.346 OA
BRANCH  15  16
ATOM     16  C   UNL d   1      28.630 -11.618   6.116  0.00  0.00     0.171 C 
ATOM     17  C   UNL d   1      28.219 -12.283   7.392  0.00  0.00     0.034 C 
ENDBRANCH  15  16
ENDBRANCH   9  15
BRANCH  10  18
ATOM     18  O   UNL d   1      28.328 -10.129   2.703  0.00  0.00    -0.349 OA
BRANCH  18  19
ATOM     19  C   UNL d   1      27.179  -9.273   2.751  0.00  0.00     0.171 C 
ATOM     20  C   UNL d   1      25.905  -9.959   2.354  0.00  0.00     0.034 C 
ENDBRANCH  18  19
ENDBRANCH  10  18
ENDBRANCH   3   6
ENDBRANCH   1   2
BRANCH   1  21
ATOM     21  C   UNL d   1      28.915 -17.655  -0.751  0.00  0.00     0.172 C 
BRANCH  21  22
ATOM     22  N   UNL d   1      27.498 -17.326  -0.654  0.00  0.00    -0.250 N 
ATOM     23  N   UNL d   1      26.821 -17.763   0.441  0.00  0.00    -0.182 NA
ATOM     24  C   UNL d   1      25.575 -17.332   0.231  0.00  0.00     0.158 A 
ATOM     25  C   UNL d   1      25.438 -16.597  -0.964  0.00  0.00     0.076 A 
ATOM     26  C   UNL d   1      24.403 -15.944  -1.652  0.00  0.00     0.142 A 
ATOM     27  C   UNL d   1      26.706 -16.588  -1.518  0.00  0.00     0.164 A 
ATOM     28  N   UNL d   1      24.713 -15.319  -2.820  0.00  0.00    -0.204 NA
ATOM     29  C   UNL d   1      25.988 -15.362  -3.271  0.00  0.00     0.192 A 
ATOM     30  N   UNL d   1      27.043 -15.982  -2.673  0.00  0.00    -0.203 NA
BRANCH  26  31
ATOM     31  N   UNL d   1      23.116 -15.952  -1.155  0.00  0.00    -0.374 N 
ATOM     32  H   UNL d   1      22.479 -15.225  -1.448  0.00  0.00     0.161 HD
BRANCH  31  33
ATOM     33  C   UNL d   1      22.644 -16.991  -0.265  0.00  0.00     0.125 C 
BRANCH  33  34
ATOM     34  C   UNL d   1      22.404 -18.309  -1.032  0.00  0.00    -0.005 C 
ATOM     35  C   UNL d   1      23.305 -19.438  -0.522  0.00  0.00     0.011 C 
ATOM     36  C   UNL d   1      20.941 -18.735  -0.894  0.00  0.00     0.011 C 
ENDBRANCH  33  34
ENDBRANCH  31  33
ENDBRANCH  26  31
BRANCH  29  37
ATOM     37  S   UNL d   1      26.399 -14.546  -4.825  0.00  0.00    -0.090 SA
BRANCH  37  38
ATOM     38  C   UNL d   1      28.086 -15.131  -5.263  0.00  0.00     0.078 C 
ATOM     39  C   UNL d   1      28.543 -14.450  -6.561  0.00  0.00     0.016 C 
ENDBRANCH  37  38
ENDBRANCH  29  37
ENDBRANCH  21  22
ENDBRANCH   1  21
TORSDOF 15
ENDMDL
MODEL 2
REMARK VINA RESULT:    -6.947      3.532      8.009
REMARK INTER + INTRA:         -14.446
REMARK INTER:                 -11.421
REMARK INTRA:                  -3.025
REMARK CONF_INDEPENDENT:        4.474
REMARK UNBOUND:                -3.025
REMARK  15 active torsions:
REMARK  status: ('A' for Active; 'I' for Inactive)
REMARK    1  A    between atoms: C_2  and  O_3 
REMARK    2  A    between atoms: O_3  and  C_4 
REMARK    3  A    between atoms: C_6  and  C_7 
REMARK       I    between atoms: C_7  and  N_9 
REMARK    4  A    between atoms: N_9  and  C_10 
REMARK    5  A    between atoms: C_10  and  C_11 
REMARK    6  A    between atoms: C_11  and  N_12 
REMARK    7  A    between atoms: C_16  and  N_17 
REMARK    8  A    between atoms: N_17  and  C_18 
REMARK    9  A    between atoms: C_18  and  C_19 
REMARK   10  A    between atoms: C_23  and  S_24 
REMARK   11  A    between atoms: S_24  and  C_25 
REMARK   12  A    between atoms: C_30  and  O_31 
REMARK   13  A    between atoms: O_31  and  C_32 
REMARK   14  A    between atoms: C_34  and  O_35 
REMARK   15  A    between atoms: O_35  and  C_36 
ROOT
ATOM      1  C   UNL d   1      27.464 -12.710  -4.492  0.00  0.00     0.145 C 
ENDROOT
BRANCH   1   2
ATOM      2  N   UNL d   1      28.405 -13.823  -4.280  0.00  0.00    -0.355 N 
ATOM      3  C   UNL d   1      28.284 -15.024  -4.994  0.00  0.00     0.251 C 
ATOM      4  O   UNL d   1      27.396 -15.204  -5.799  0.00  0.00    -0.268 OA
ATOM      5  H   UNL d   1      29.176 -13.672  -3.652  0.00  0.00     0.162 HD
BRANCH   3   6
ATOM      6  C   UNL d   1      29.344 -16.096  -4.789  0.00  0.00     0.037 A 
ATOM      7  C   UNL d   1      29.607 -16.577  -3.478  0.00  0.00     0.057 A 
ATOM      8  C   UNL d   1      30.402 -17.730  -3.229  0.00  0.00     0.105 A 
ATOM      9  C   UNL d   1      30.954 -18.394  -4.359  0.00  0.00     0.135 A 
ATOM     10  C   UNL d   1      30.773 -17.855  -5.665  0.00  0.00     0.105 A 
ATOM     11  C   UNL d   1      29.994 -16.706  -5.862  0.00  0.00     0.057 A 
BRANCH   8  12
ATOM     12  O   UNL d   1      30.301 -18.199  -1.917  0.00  0.00    -0.349 OA
BRANCH  12  13
ATOM     13  C   UNL d   1      29.651 -17.410  -0.916  0.00  0.00     0.171 C 
ATOM     14  C   UNL d   1      30.501 -16.434  -0.126  0.00  0.00     0.034 C 
ENDBRANCH  12  13
ENDBRANCH   8  12
BRANCH   9  15
ATOM     15  O   UNL d   1      31.589 -19.610  -4.425  0.00  0.00    -0.346 OA
BRANCH  15  16
ATOM     16  C   UNL d   1      31.188 -20.611  -3.582  0.00  0.00     0.171 C 
ATOM     17  C   UNL d   1      31.174 -22.061  -3.951  0.00  0.00     0.034 C 
ENDBRANCH  15  16
ENDBRANCH   9  15
BRANCH  10  18
ATOM     18  O   UNL d   1      31.250 -18.406  -6.853  0.00  0.00    -0.349 OA
BRANCH  18  19
ATOM     19  C   UNL d   1      30.580 -19.579  -7.333  0.00  0.00     0.171 C 
ATOM     20  C   UNL d   1      31.413 -20.824  -7.239  0.00  0.00     0.034 C 
ENDBRANCH  18  19
ENDBRANCH  10  18
ENDBRANCH   3   6
ENDBRANCH   1   2
BRANCH   1  21
ATOM     21  C   UNL d   1      26.190 -12.782  -3.632  0.00  0.00     0.172 C 
BRANCH  21  22
ATOM     22  N   UNL d   1      25.973 -14.097  -3.041  0.00  0.00    -0.250 N 
ATOM     23  N   UNL d   1      25.228 -14.990  -3.744  0.00  0.00    -0.182 NA
ATOM     24  C   UNL d   1      25.193 -16.063  -2.949  0.00  0.00     0.158 A 
ATOM     25  C   UNL d   1      25.928 -15.893  -1.759  0.00  0.00     0.076 A 
ATOM     26  C   UNL d   1      26.217 -16.655  -0.616  0.00  0.00     0.142 A 
ATOM     27  C   UNL d   1      26.444 -14.612  -1.846  0.00  0.00     0.164 A 
ATOM     28  N   UNL d   1      27.011 -16.094   0.337  0.00  0.00    -0.204 NA
ATOM     29  C   UNL d   1      27.472 -14.835   0.152  0.00  0.00     0.192 A 
ATOM     30  N   UNL d   1      27.228 -14.028  -0.918  0.00  0.00    -0.203 NA
BRANCH  26  31
ATOM     31  N   UNL d   1      25.700 -17.925  -0.471  0.00  0.00    -0.374 N 
ATOM     32  H   UNL d   1      26.228 -18.708  -0.832  0.00  0.00     0.161 HD
BRANCH  31  33
ATOM     33  C   UNL d   1      24.451 -18.170   0.218  0.00  0.00     0.125 C 
BRANCH  33  34
ATOM     34  C   UNL d   1      23.249 -17.960  -0.728  0.00  0.00    -0.005 C 
ATOM     35  C   UNL d   1      22.151 -19.003  -0.495  0.00  0.00     0.011 C 
ATOM     36  C   UNL d   1      22.662 -16.561  -0.524  0.00  0.00     0.011 C 
ENDBRANCH  33  34
ENDBRANCH  31  33
ENDBRANCH  26  31
BRANCH  29  37
ATOM     37  S   UNL d   1      28.513 -14.085   1.418  0.00  0.00    -0.090 SA
BRANCH  37  38
ATOM     38  C   UNL d   1      27.391 -13.711   2.826  0.00  0.00     0.078 C 
ATOM     39  C   UNL d   1      28.038 -14.187   4.135  0.00  0.00     0.016 C 
ENDBRANCH  37  38
ENDBRANCH  29  37
ENDBRANCH  21  22
ENDBRANCH   1  21
TORSDOF 15
ENDMDL
MODEL 3
REMARK VINA RESULT:    -6.584      4.141      8.236
REMARK INTER + INTRA:         -13.848
REMARK INTER:                 -11.058
REMARK INTRA:                  -2.790
REMARK CONF_INDEPENDENT:        4.474
REMARK UNBOUND:                -2.790
REMARK  15 active torsions:
REMARK  status: ('A' for Active; 'I' for Inactive)
REMARK    1  A    between atoms: C_2  and  O_3 
REMARK    2  A    between atoms: O_3  and  C_4 
REMARK    3  A    between atoms: C_6  and  C_7 
REMARK       I    between atoms: C_7  and  N_9 
REMARK    4  A    between atoms: N_9  and  C_10 
REMARK    5  A    between atoms: C_10  and  C_11 
REMARK    6  A    between atoms: C_11  and  N_12 
REMARK    7  A    between atoms: C_16  and  N_17 
REMARK    8  A    between atoms: N_17  and  C_18 
REMARK    9  A    between atoms: C_18  and  C_19 
REMARK   10  A    between atoms: C_23  and  S_24 
REMARK   11  A    between atoms: S_24  and  C_25 
REMARK   12  A    between atoms: C_30  and  O_31 
REMARK   13  A    between atoms: O_31  and  C_32 
REMARK   14  A    between atoms: C_34  and  O_35 
REMARK   15  A    between atoms: O_35  and  C_36 
ROOT
ATOM      1  C   UNL d   1      28.902 -15.285  -0.446  0.00  0.00     0.145 C 
ENDROOT
BRANCH   1   2
ATOM      2  N   UNL d   1      28.924 -15.738  -1.847  0.00  0.00    -0.355 N 
ATOM      3  C   UNL d   1      30.135 -15.933  -2.529  0.00  0.00     0.251 C 
ATOM      4  O   UNL d   1      31.207 -15.722  -2.005  0.00  0.00    -0.268 OA
ATOM      5  H   UNL d   1      28.046 -15.964  -2.281  0.00  0.00     0.162 HD
BRANCH   3   6
ATOM      6  C   UNL d   1      30.084 -16.487  -3.945  0.00  0.00     0.037 A 
ATOM      7  C   UNL d   1      29.718 -15.631  -5.018  0.00  0.00     0.057 A 
ATOM      8  C   UNL d   1      29.874 -16.003  -6.383  0.00  0.00     0.105 A 
ATOM      9  C   UNL d   1      30.403 -17.295  -6.647  0.00  0.00     0.135 A 
ATOM     10  C   UNL d   1      30.677 -18.190  -5.573  0.00  0.00     0.105 A 
ATOM     11  C   UNL d   1      30.493 -17.788  -4.243  0.00  0.00     0.057 A 
BRANCH   8  12
ATOM     12  O   UNL d   1      29.733 -14.930  -7.268  0.00  0.00    -0.349 OA
BRANCH  12  13
ATOM     13  C   UNL d   1      28.627 -14.031  -7.142  0.00  0.00     0.171 C 
ATOM     14  C   UNL d   1      28.910 -12.545  -7.252  0.00  0.00     0.034 C 
ENDBRANCH  12  13
ENDBRANCH   8  12
BRANCH   9  15
ATOM     15  O   UNL d   1      30.827 -17.832  -7.839  0.00  0.00    -0.346 OA
BRANCH  15  16
ATOM     16  C   UNL d   1      32.169 -18.005  -8.045  0.00  0.00     0.171 C 
ATOM     17  C   UNL d   1      32.785 -18.255  -9.385  0.00  0.00     0.034 C 
ENDBRANCH  15  16
ENDBRANCH   9  15
BRANCH  10  18
ATOM     18  O   UNL d   1      31.202 -19.476  -5.690  0.00  0.00    -0.349 OA
BRANCH  18  19
ATOM     19  C   UNL d   1      30.405 -20.547  -5.169  0.00  0.00     0.171 C 
ATOM     20  C   UNL d   1      31.047 -21.267  -4.019  0.00  0.00     0.034 C 
ENDBRANCH  18  19
ENDBRANCH  10  18
ENDBRANCH   3   6
ENDBRANCH   1   2
BRANCH   1  21
ATOM     21  C   UNL d   1      28.569 -16.388   0.574  0.00  0.00     0.172 C 
BRANCH  21  22
ATOM     22  N   UNL d   1      27.272 -17.012   0.338  0.00  0.00    -0.250 N 
ATOM     23  N   UNL d   1      26.957 -18.112   1.072  0.00  0.00    -0.182 NA
ATOM     24  C   UNL d   1      25.747 -18.453   0.620  0.00  0.00     0.158 A 
ATOM     25  C   UNL d   1      25.259 -17.576  -0.369  0.00  0.00     0.076 A 
ATOM     26  C   UNL d   1      24.103 -17.463  -1.157  0.00  0.00     0.142 A 
ATOM     27  C   UNL d   1      26.259 -16.632  -0.526  0.00  0.00     0.164 A 
ATOM     28  N   UNL d   1      24.023 -16.413  -2.020  0.00  0.00    -0.204 NA
ATOM     29  C   UNL d   1      25.054 -15.540  -2.091  0.00  0.00     0.192 A 
ATOM     30  N   UNL d   1      26.211 -15.587  -1.374  0.00  0.00    -0.203 NA
BRANCH  26  31
ATOM     31  N   UNL d   1      23.092 -18.396  -1.058  0.00  0.00    -0.374 N 
ATOM     32  H   UNL d   1      23.287 -19.352  -1.323  0.00  0.00     0.161 HD
BRANCH  31  33
ATOM     33  C   UNL d   1      21.781 -18.056  -0.548  0.00  0.00     0.125 C 
BRANCH  33  34
ATOM     34  C   UNL d   1      20.981 -19.326  -0.188  0.00  0.00    -0.005 C 
ATOM     35  C   UNL d   1      20.542 -19.326   1.280  0.00  0.00     0.011 C 
ATOM     36  C   UNL d   1      19.744 -19.435  -1.082  0.00  0.00     0.011 C 
ENDBRANCH  33  34
ENDBRANCH  31  33
ENDBRANCH  26  31
BRANCH  29  37
ATOM     37  S   UNL d   1      24.957 -14.157  -3.243  0.00  0.00    -0.090 SA
BRANCH  37  38
ATOM     38  C   UNL d   1      26.370 -14.372  -4.399  0.00  0.00     0.078 C 
ATOM     39  C   UNL d   1      26.049 -15.497  -5.395  0.00  0.00     0.016 C 
ENDBRANCH  37  38
ENDBRANCH  29  37
ENDBRANCH  21  22
ENDBRANCH   1  21
TORSDOF 15
ENDMDL
MODEL 4
REMARK VINA RESULT:    -6.526      1.389      3.271
REMARK INTER + INTRA:         -13.822
REMARK INTER:                 -11.001
REMARK INTRA:                  -2.821
REMARK CONF_INDEPENDENT:        4.474
REMARK UNBOUND:                -2.821
REMARK  15 active torsions:
REMARK  status: ('A' for Active; 'I' for Inactive)
REMARK    1  A    between atoms: C_2  and  O_3 
REMARK    2  A    between atoms: O_3  and  C_4 
REMARK    3  A    between atoms: C_6  and  C_7 
REMARK       I    between atoms: C_7  and  N_9 
REMARK    4  A    between atoms: N_9  and  C_10 
REMARK    5  A    between atoms: C_10  and  C_11 
REMARK    6  A    between atoms: C_11  and  N_12 
REMARK    7  A    between atoms: C_16  and  N_17 
REMARK    8  A    between atoms: N_17  and  C_18 
REMARK    9  A    between atoms: C_18  and  C_19 
REMARK   10  A    between atoms: C_23  and  S_24 
REMARK   11  A    between atoms: S_24  and  C_25 
REMARK   12  A    between atoms: C_30  and  O_31 
REMARK   13  A    between atoms: O_31  and  C_32 
REMARK   14  A    between atoms: C_34  and  O_35 
REMARK   15  A    between atoms: O_35  and  C_36 
ROOT
ATOM      1  C   UNL d   1      30.290 -16.923  -0.407  0.00  0.00     0.145 C 
ENDROOT
BRANCH   1   2
ATOM      2  N   UNL d   1      29.804 -15.817   0.436  0.00  0.00    -0.355 N 
ATOM      3  C   UNL d   1      29.500 -14.563  -0.114  0.00  0.00     0.251 C 
ATOM      4  O   UNL d   1      29.639 -14.330  -1.296  0.00  0.00    -0.268 OA
ATOM      5  H   UNL d   1      29.637 -16.008   1.409  0.00  0.00     0.162 HD
BRANCH   3   6
ATOM      6  C   UNL d   1      28.918 -13.496   0.801  0.00  0.00     0.037 A 
ATOM      7  C   UNL d   1      28.838 -12.152   0.345  0.00  0.00     0.057 A 
ATOM      8  C   UNL d   1      28.101 -11.151   1.037  0.00  0.00     0.105 A 
ATOM      9  C   UNL d   1      27.445 -11.540   2.237  0.00  0.00     0.135 A 
ATOM     10  C   UNL d   1      27.607 -12.861   2.745  0.00  0.00     0.105 A 
ATOM     11  C   UNL d   1      28.355 -13.812   2.039  0.00  0.00     0.057 A 
BRANCH   8  12
ATOM     12  O   UNL d   1      27.909  -9.988   0.286  0.00  0.00    -0.349 OA
BRANCH  12  13
ATOM     13  C   UNL d   1      26.729  -9.199   0.466  0.00  0.00     0.171 C 
ATOM     14  C   UNL d   1      26.209  -8.425  -0.730  0.00  0.00     0.034 C 
ENDBRANCH  12  13
ENDBRANCH   8  12
BRANCH   9  15
ATOM     15  O   UNL d   1      26.530 -10.844   2.989  0.00  0.00    -0.346 OA
BRANCH  15  16
ATOM     16  C   UNL d   1      26.959  -9.770   3.721  0.00  0.00     0.171 C 
ATOM     17  C   UNL d   1      28.112  -9.811   4.674  0.00  0.00     0.034 C 
ENDBRANCH  15  16
ENDBRANCH   9  15
BRANCH  10  18
ATOM     18  O   UNL d   1      27.016 -13.373   3.899  0.00  0.00    -0.349 OA
BRANCH  18  19
ATOM     19  C   UNL d   1      27.884 -13.615   5.014  0.00  0.00     0.171 C 
ATOM     20  C   UNL d   1      28.154 -15.071   5.257  0.00  0.00     0.034 C 
ENDBRANCH  18  19
ENDBRANCH  10  18
ENDBRANCH   3   6
ENDBRANCH   1   2
BRANCH   1  21
ATOM     21  C   UNL d   1      29.265 -17.437  -1.434  0.00  0.00     0.172 C 
BRANCH  21  22
ATOM     22  N   UNL d   1      27.885 -17.290  -0.987  0.00  0.00    -0.250 N 
ATOM     23  N   UNL d   1      27.540 -17.858   0.198  0.00  0.00    -0.182 NA
ATOM     24  C   UNL d   1      26.240 -17.574   0.314  0.00  0.00     0.158 A 
ATOM     25  C   UNL d   1      25.744 -16.805  -0.757  0.00  0.00     0.076 A 
ATOM     26  C   UNL d   1      24.511 -16.252  -1.136  0.00  0.00     0.142 A 
ATOM     27  C   UNL d   1      26.836 -16.614  -1.586  0.00  0.00     0.164 A 
ATOM     28  N   UNL d   1      24.465 -15.537  -2.294  0.00  0.00    -0.204 NA
ATOM     29  C   UNL d   1      25.592 -15.402  -3.029  0.00  0.00     0.192 A 
ATOM     30  N   UNL d   1      26.820 -15.917  -2.739  0.00  0.00    -0.203 NA
BRANCH  26  31
ATOM     31  N   UNL d   1      23.388 -16.441  -0.358  0.00  0.00    -0.374 N 
ATOM     32  H   UNL d   1      23.401 -16.117   0.599  0.00  0.00     0.161 HD
BRANCH  31  33
ATOM     33  C   UNL d   1      22.185 -17.049  -0.884  0.00  0.00     0.125 C 
BRANCH  33  34
ATOM     34  C   UNL d   1      21.982 -18.465  -0.302  0.00  0.00    -0.005 C 
ATOM     35  C   UNL d   1      20.751 -19.155  -0.897  0.00  0.00     0.011 C 
ATOM     36  C   UNL d   1      23.219 -19.324  -0.575  0.00  0.00     0.011 C 
ENDBRANCH  33  34
ENDBRANCH  31  33
ENDBRANCH  26  31
BRANCH  29  37
ATOM     37  S   UNL d   1      25.531 -14.468  -4.569  0.00  0.00    -0.090 SA
BRANCH  37  38
ATOM     38  C   UNL d   1      26.425 -12.896  -4.233  0.00  0.00     0.078 C 
ATOM     39  C   UNL d   1      26.218 -12.494  -2.765  0.00  0.00     0.016 C 
ENDBRANCH  37  38
ENDBRANCH  29  37
ENDBRANCH  21  22
ENDBRANCH   1  21
TORSDOF 15
ENDMDL
MODEL 5
REMARK VINA RESULT:    -6.462      3.723      8.597
REMARK INTER + INTRA:         -13.803
REMARK INTER:                 -10.937
REMARK INTRA:                  -2.866
REMARK CONF_INDEPENDENT:        4.474
REMARK UNBOUND:                -2.866
REMARK  15 active torsions:
REMARK  status: ('A' for Active; 'I' for Inactive)
REMARK    1  A    between atoms: C_2  and  O_3 
REMARK    2  A    between atoms: O_3  and  C_4 
REMARK    3  A    between atoms: C_6  and  C_7 
REMARK       I    between atoms: C_7  and  N_9 
REMARK    4  A    between atoms: N_9  and  C_10 
REMARK    5  A    between atoms: C_10  and  C_11 
REMARK    6  A    between atoms: C_11  and  N_12 
REMARK    7  A    between atoms: C_16  and  N_17 
REMARK    8  A    between atoms: N_17  and  C_18 
REMARK    9  A    between atoms: C_18  and  C_19 
REMARK   10  A    between atoms: C_23  and  S_24 
REMARK   11  A    between atoms: S_24  and  C_25 
REMARK   12  A    between atoms: C_30  and  O_31 
REMARK   13  A    between atoms: O_31  and  C_32 
REMARK   14  A    between atoms: C_34  and  O_35 
REMARK   15  A    between atoms: O_35  and  C_36 
ROOT
ATOM      1  C   UNL d   1      26.890 -13.051  -5.184  0.00  0.00     0.145 C 
ENDROOT
BRANCH   1   2
ATOM      2  N   UNL d   1      27.525 -14.375  -5.307  0.00  0.00    -0.355 N 
ATOM      3  C   UNL d   1      28.906 -14.503  -5.515  0.00  0.00     0.251 C 
ATOM      4  O   UNL d   1      29.631 -13.537  -5.619  0.00  0.00    -0.268 OA
ATOM      5  H   UNL d   1      26.946 -15.186  -5.175  0.00  0.00     0.162 HD
BRANCH   3   6
ATOM      6  C   UNL d   1      29.505 -15.901  -5.543  0.00  0.00     0.037 A 
ATOM      7  C   UNL d   1      30.033 -16.411  -6.760  0.00  0.00     0.057 A 
ATOM      8  C   UNL d   1      30.815 -17.599  -6.819  0.00  0.00     0.105 A 
ATOM      9  C   UNL d   1      31.043 -18.287  -5.596  0.00  0.00     0.135 A 
ATOM     10  C   UNL d   1      30.431 -17.830  -4.393  0.00  0.00     0.105 A 
ATOM     11  C   UNL d   1      29.655 -16.663  -4.384  0.00  0.00     0.057 A 
BRANCH   8  12
ATOM     12  O   UNL d   1      31.473 -17.768  -8.040  0.00  0.00    -0.349 OA
BRANCH  12  13
ATOM     13  C   UNL d   1      31.838 -19.077  -8.488  0.00  0.00     0.171 C 
ATOM     14  C   UNL d   1      31.000 -19.706  -9.585  0.00  0.00     0.034 C 
ENDBRANCH  12  13
ENDBRANCH   8  12
BRANCH   9  15
ATOM     15  O   UNL d   1      31.898 -19.329  -5.334  0.00  0.00    -0.346 OA
BRANCH  15  16
ATOM     16  C   UNL d   1      31.419 -20.610  -5.410  0.00  0.00     0.171 C 
ATOM     17  C   UNL d   1      30.646 -21.281  -4.319  0.00  0.00     0.034 C 
ENDBRANCH  15  16
ENDBRANCH   9  15
BRANCH  10  18
ATOM     18  O   UNL d   1      30.577 -18.403  -3.130  0.00  0.00    -0.349 OA
BRANCH  18  19
ATOM     19  C   UNL d   1      30.708 -17.499  -2.025  0.00  0.00     0.171 C 
ATOM     20  C   UNL d   1      29.766 -17.795  -0.895  0.00  0.00     0.034 C 
ENDBRANCH  18  19
ENDBRANCH  10  18
ENDBRANCH   3   6
ENDBRANCH   1   2
BRANCH   1  21
ATOM     21  C   UNL d   1      25.983 -12.893  -3.951  0.00  0.00     0.172 C 
BRANCH  21  22
ATOM     22  N   UNL d   1      25.798 -14.138  -3.214  0.00  0.00    -0.250 N 
ATOM     23  N   UNL d   1      25.222 -15.180  -3.869  0.00  0.00    -0.182 NA
ATOM     24  C   UNL d   1      25.172 -16.142  -2.944  0.00  0.00     0.158 A 
ATOM     25  C   UNL d   1      25.733 -15.753  -1.711  0.00  0.00     0.076 A 
ATOM     26  C   UNL d   1      25.935 -16.332  -0.449  0.00  0.00     0.142 A 
ATOM     27  C   UNL d   1      26.153 -14.449  -1.913  0.00  0.00     0.164 A 
ATOM     28  N   UNL d   1      26.554 -15.582   0.503  0.00  0.00    -0.204 NA
ATOM     29  C   UNL d   1      26.933 -14.319   0.201  0.00  0.00     0.192 A 
ATOM     30  N   UNL d   1      26.763 -13.681  -0.990  0.00  0.00    -0.203 NA
BRANCH  26  31
ATOM     31  N   UNL d   1      25.506 -17.618  -0.191  0.00  0.00    -0.374 N 
ATOM     32  H   UNL d   1      25.982 -18.154   0.521  0.00  0.00     0.161 HD
BRANCH  31  33
ATOM     33  C   UNL d   1      24.374 -18.201  -0.878  0.00  0.00     0.125 C 
BRANCH  33  34
ATOM     34  C   UNL d   1      23.054 -17.869  -0.147  0.00  0.00    -0.005 C 
ATOM     35  C   UNL d   1      22.530 -16.479  -0.521  0.00  0.00     0.011 C 
ATOM     36  C   UNL d   1      21.991 -18.915  -0.491  0.00  0.00     0.011 C 
ENDBRANCH  33  34
ENDBRANCH  31  33
ENDBRANCH  26  31
BRANCH  29  37
ATOM     37  S   UNL d   1      27.741 -13.318   1.464  0.00  0.00    -0.090 SA
BRANCH  37  38
ATOM     38  C   UNL d   1      28.014 -14.444   2.892  0.00  0.00     0.078 C 
ATOM     39  C   UNL d   1      27.566 -13.747   4.185  0.00  0.00     0.016 C 
ENDBRANCH  37  38
ENDBRANCH  29  37
ENDBRANCH  21  22
ENDBRANCH   1  21
TORSDOF 15
ENDMDL
MODEL 6
REMARK VINA RESULT:    -6.406      3.443      8.304
REMARK INTER + INTRA:         -14.146
REMARK INTER:                 -10.881
REMARK INTRA:                  -3.265
REMARK CONF_INDEPENDENT:        4.474
REMARK UNBOUND:                -3.265
REMARK  15 active torsions:
REMARK  status: ('A' for Active; 'I' for Inactive)
REMARK    1  A    between atoms: C_2  and  O_3 
REMARK    2  A    between atoms: O_3  and  C_4 
REMARK    3  A    between atoms: C_6  and  C_7 
REMARK       I    between atoms: C_7  and  N_9 
REMARK    4  A    between atoms: N_9  and  C_10 
REMARK    5  A    between atoms: C_10  and  C_11 
REMARK    6  A    between atoms: C_11  and  N_12 
REMARK    7  A    between atoms: C_16  and  N_17 
REMARK    8  A    between atoms: N_17  and  C_18 
REMARK    9  A    between atoms: C_18  and  C_19 
REMARK   10  A    between atoms: C_23  and  S_24 
REMARK   11  A    between atoms: S_24  and  C_25 
REMARK   12  A    between atoms: C_30  and  O_31 
REMARK   13  A    between atoms: O_31  and  C_32 
REMARK   14  A    between atoms: C_34  and  O_35 
REMARK   15  A    between atoms: O_35  and  C_36 
ROOT
ATOM      1  C   UNL d   1      25.683 -14.038  -4.087  0.00  0.00     0.145 C 
ENDROOT
BRANCH   1   2
ATOM      2  N   UNL d   1      26.877 -14.886  -3.927  0.00  0.00    -0.355 N 
ATOM      3  C   UNL d   1      27.691 -15.210  -5.023  0.00  0.00     0.251 C 
ATOM      4  O   UNL d   1      27.440 -14.824  -6.144  0.00  0.00    -0.268 OA
ATOM      5  H   UNL d   1      27.126 -15.174  -2.997  0.00  0.00     0.162 HD
BRANCH   3   6
ATOM      6  C   UNL d   1      28.957 -16.015  -4.768  0.00  0.00     0.037 A 
ATOM      7  C   UNL d   1      29.235 -16.483  -3.456  0.00  0.00     0.057 A 
ATOM      8  C   UNL d   1      30.261 -17.430  -3.181  0.00  0.00     0.105 A 
ATOM      9  C   UNL d   1      31.029 -17.894  -4.285  0.00  0.00     0.135 A 
ATOM     10  C   UNL d   1      30.815 -17.350  -5.584  0.00  0.00     0.105 A 
ATOM     11  C   UNL d   1      29.804 -16.406  -5.806  0.00  0.00     0.057 A 
BRANCH   8  12
ATOM     12  O   UNL d   1      30.183 -17.972  -1.896  0.00  0.00    -0.349 OA
BRANCH  12  13
ATOM     13  C   UNL d   1      29.804 -17.150  -0.787  0.00  0.00     0.171 C 
ATOM     14  C   UNL d   1      30.759 -16.047  -0.369  0.00  0.00     0.034 C 
ENDBRANCH  12  13
ENDBRANCH   8  12
BRANCH   9  15
ATOM     15  O   UNL d   1      31.935 -18.925  -4.338  0.00  0.00    -0.346 OA
BRANCH  15  16
ATOM     16  C   UNL d   1      31.759 -20.002  -3.512  0.00  0.00     0.171 C 
ATOM     17  C   UNL d   1      31.019 -21.244  -3.900  0.00  0.00     0.034 C 
ENDBRANCH  15  16
ENDBRANCH   9  15
BRANCH  10  18
ATOM     18  O   UNL d   1      31.488 -17.719  -6.748  0.00  0.00    -0.349 OA
BRANCH  18  19
ATOM     19  C   UNL d   1      30.844 -18.690  -7.584  0.00  0.00     0.171 C 
ATOM     20  C   UNL d   1      30.406 -19.920  -6.844  0.00  0.00     0.034 C 
ENDBRANCH  18  19
ENDBRANCH  10  18
ENDBRANCH   3   6
ENDBRANCH   1   2
BRANCH   1  21
ATOM     21  C   UNL d   1      25.466 -13.024  -2.950  0.00  0.00     0.172 C 
BRANCH  21  22
ATOM     22  N   UNL d   1      26.272 -13.308  -1.769  0.00  0.00    -0.250 N 
ATOM     23  N   UNL d   1      27.025 -12.298  -1.260  0.00  0.00    -0.182 NA
ATOM     24  C   UNL d   1      27.648 -12.864  -0.223  0.00  0.00     0.158 A 
ATOM     25  C   UNL d   1      27.288 -14.213  -0.031  0.00  0.00     0.076 A 
ATOM     26  C   UNL d   1      27.621 -15.245   0.860  0.00  0.00     0.142 A 
ATOM     27  C   UNL d   1      26.376 -14.479  -1.038  0.00  0.00     0.164 A 
ATOM     28  N   UNL d   1      27.008 -16.450   0.694  0.00  0.00    -0.204 NA
ATOM     29  C   UNL d   1      26.124 -16.604  -0.318  0.00  0.00     0.192 A 
ATOM     30  N   UNL d   1      25.757 -15.660  -1.230  0.00  0.00    -0.203 NA
BRANCH  26  31
ATOM     31  N   UNL d   1      28.548 -15.037   1.860  0.00  0.00    -0.374 N 
ATOM     32  H   UNL d   1      29.416 -15.553   1.832  0.00  0.00     0.161 HD
BRANCH  31  33
ATOM     33  C   UNL d   1      28.330 -14.074   2.919  0.00  0.00     0.125 C 
BRANCH  33  34
ATOM     34  C   UNL d   1      28.149 -14.781   4.279  0.00  0.00    -0.005 C 
ATOM     35  C   UNL d   1      29.450 -14.802   5.088  0.00  0.00     0.011 C 
ATOM     36  C   UNL d   1      27.064 -14.075   5.095  0.00  0.00     0.011 C 
ENDBRANCH  33  34
ENDBRANCH  31  33
ENDBRANCH  26  31
BRANCH  29  37
ATOM     37  S   UNL d   1      25.321 -18.201  -0.549  0.00  0.00    -0.090 SA
BRANCH  37  38
ATOM     38  C   UNL d   1      23.646 -18.026   0.190  0.00  0.00     0.078 C 
ATOM     39  C   UNL d   1      22.890 -16.894  -0.520  0.00  0.00     0.016 C 
ENDBRANCH  37  38
ENDBRANCH  29  37
ENDBRANCH  21  22
ENDBRANCH   1  21
TORSDOF 15
ENDMDL
MODEL 7
REMARK VINA RESULT:    -6.076      2.091      4.110
REMARK INTER + INTRA:         -13.837
REMARK INTER:                 -10.551
REMARK INTRA:                  -3.287
REMARK CONF_INDEPENDENT:        4.474
REMARK UNBOUND:                -3.287
REMARK  15 active torsions:
REMARK  status: ('A' for Active; 'I' for Inactive)
REMARK    1  A    between atoms: C_2  and  O_3 
REMARK    2  A    between atoms: O_3  and  C_4 
REMARK    3  A    between atoms: C_6  and  C_7 
REMARK       I    between atoms: C_7  and  N_9 
REMARK    4  A    between atoms: N_9  and  C_10 
REMARK    5  A    between atoms: C_10  and  C_11 
REMARK    6  A    between atoms: C_11  and  N_12 
REMARK    7  A    between atoms: C_16  and  N_17 
REMARK    8  A    between atoms: N_17  and  C_18 
REMARK    9  A    between atoms: C_18  and  C_19 
REMARK   10  A    between atoms: C_23  and  S_24 
REMARK   11  A    between atoms: S_24  and  C_25 
REMARK   12  A    between atoms: C_30  and  O_31 
REMARK   13  A    between atoms: O_31  and  C_32 
REMARK   14  A    between atoms: C_34  and  O_35 
REMARK   15  A    between atoms: O_35  and  C_36 
ROOT
ATOM      1  C   UNL d   1      28.583 -17.393  -0.910  0.00  0.00     0.145 C 
ENDROOT
BRANCH   1   2
ATOM      2  N   UNL d   1      28.035 -16.356  -0.018  0.00  0.00    -0.355 N 
ATOM      3  C   UNL d   1      28.864 -15.384   0.561  0.00  0.00     0.251 C 
ATOM      4  O   UNL d   1      30.061 -15.365   0.369  0.00  0.00    -0.268 OA
ATOM      5  H   UNL d   1      27.039 -16.329   0.113  0.00  0.00     0.162 HD
BRANCH   3   6
ATOM      6  C   UNL d   1      28.217 -14.291   1.399  0.00  0.00     0.037 A 
ATOM      7  C   UNL d   1      27.780 -14.589   2.718  0.00  0.00     0.057 A 
ATOM      8  C   UNL d   1      27.386 -13.580   3.641  0.00  0.00     0.105 A 
ATOM      9  C   UNL d   1      27.429 -12.233   3.188  0.00  0.00     0.135 A 
ATOM     10  C   UNL d   1      27.773 -11.943   1.837  0.00  0.00     0.105 A 
ATOM     11  C   UNL d   1      28.138 -12.970   0.956  0.00  0.00     0.057 A 
BRANCH   8  12
ATOM     12  O   UNL d   1      27.272 -14.046   4.954  0.00  0.00    -0.349 OA
BRANCH  12  13
ATOM     13  C   UNL d   1      28.264 -14.922   5.498  0.00  0.00     0.171 C 
ATOM     14  C   UNL d   1      29.719 -14.515   5.356  0.00  0.00     0.034 C 
ENDBRANCH  12  13
ENDBRANCH   8  12
BRANCH   9  15
ATOM     15  O   UNL d   1      27.289 -11.071   3.908  0.00  0.00    -0.346 OA
BRANCH  15  16
ATOM     16  C   UNL d   1      28.183 -10.803   4.909  0.00  0.00     0.171 C 
ATOM     17  C   UNL d   1      28.155 -11.457   6.255  0.00  0.00     0.034 C 
ENDBRANCH  15  16
ENDBRANCH   9  15
BRANCH  10  18
ATOM     18  O   UNL d   1      27.861 -10.674   1.267  0.00  0.00    -0.349 OA
BRANCH  18  19
ATOM     19  C   UNL d   1      26.697  -9.842   1.365  0.00  0.00     0.171 C 
ATOM     20  C   UNL d   1      26.638  -8.770   0.317  0.00  0.00     0.034 C 
ENDBRANCH  18  19
ENDBRANCH  10  18
ENDBRANCH   3   6
ENDBRANCH   1   2
BRANCH   1  21
ATOM     21  C   UNL d   1      29.198 -16.851  -2.212  0.00  0.00     0.172 C 
BRANCH  21  22
ATOM     22  N   UNL d   1      28.314 -15.938  -2.926  0.00  0.00    -0.250 N 
ATOM     23  N   UNL d   1      28.845 -15.209  -3.943  0.00  0.00    -0.182 NA
ATOM     24  C   UNL d   1      27.816 -14.474  -4.371  0.00  0.00     0.158 A 
ATOM     25  C   UNL d   1      26.620 -14.735  -3.672  0.00  0.00     0.076 A 
ATOM     26  C   UNL d   1      25.296 -14.271  -3.699  0.00  0.00     0.142 A 
ATOM     27  C   UNL d   1      26.960 -15.707  -2.747  0.00  0.00     0.164 A 
ATOM     28  N   UNL d   1      24.413 -14.821  -2.821  0.00  0.00    -0.204 NA
ATOM     29  C   UNL d   1      24.845 -15.772  -1.962  0.00  0.00     0.192 A 
ATOM     30  N   UNL d   1      26.111 -16.266  -1.864  0.00  0.00    -0.203 NA
BRANCH  26  31
ATOM     31  N   UNL d   1      24.917 -13.282  -4.583  0.00  0.00    -0.374 N 
ATOM     32  H   UNL d   1      24.021 -13.361  -5.044  0.00  0.00     0.161 HD
BRANCH  31  33
ATOM     33  C   UNL d   1      25.742 -12.120  -4.833  0.00  0.00     0.125 C 
BRANCH  33  34
ATOM     34  C   UNL d   1      25.684 -11.135  -3.646  0.00  0.00    -0.005 C 
ATOM     35  C   UNL d   1      26.683 -11.507  -2.546  0.00  0.00     0.011 C 
ATOM     36  C   UNL d   1      25.980  -9.714  -4.131  0.00  0.00     0.011 C 
ENDBRANCH  33  34
ENDBRANCH  31  33
ENDBRANCH  26  31
BRANCH  29  37
ATOM     37  S   UNL d   1      23.681 -16.493  -0.790  0.00  0.00    -0.090 SA
BRANCH  37  38
ATOM     38  C   UNL d   1      24.266 -18.213  -0.503  0.00  0.00     0.078 C 
ATOM     39  C   UNL d   1      25.430 -18.197   0.498  0.00  0.00     0.016 C 
ENDBRANCH  37  38
ENDBRANCH  29  37
ENDBRANCH  21  22
ENDBRANCH   1  21
TORSDOF 15
ENDMDL
MODEL 8
REMARK VINA RESULT:    -5.669      3.698      8.078
REMARK INTER + INTRA:         -13.763
REMARK INTER:                 -10.144
REMARK INTRA:                  -3.619
REMARK CONF_INDEPENDENT:        4.474
REMARK UNBOUND:                -3.619
REMARK  15 active torsions:
REMARK  status: ('A' for Active; 'I' for Inactive)
REMARK    1  A    between atoms: C_2  and  O_3 
REMARK    2  A    between atoms: O_3  and  C_4 
REMARK    3  A    between atoms: C_6  and  C_7 
REMARK       I    between atoms: C_7  and  N_9 
REMARK    4  A    between atoms: N_9  and  C_10 
REMARK    5  A    between atoms: C_10  and  C_11 
REMARK    6  A    between atoms: C_11  and  N_12 
REMARK    7  A    between atoms: C_16  and  N_17 
REMARK    8  A    between atoms: N_17  and  C_18 
REMARK    9  A    between atoms: C_18  and  C_19 
REMARK   10  A    between atoms: C_23  and  S_24 
REMARK   11  A    between atoms: S_24  and  C_25 
REMARK   12  A    between atoms: C_30  and  O_31 
REMARK   13  A    between atoms: O_31  and  C_32 
REMARK   14  A    between atoms: C_34  and  O_35 
REMARK   15  A    between atoms: O_35  and  C_36 
ROOT
ATOM      1  C   UNL d   1      32.486 -16.858  -1.604  0.00  0.00     0.145 C 
ENDROOT
BRANCH   1   2
ATOM      2  N   UNL d   1      31.273 -16.190  -2.104  0.00  0.00    -0.355 N 
ATOM      3  C   UNL d   1      30.256 -16.914  -2.745  0.00  0.00     0.251 C 
ATOM      4  O   UNL d   1      30.339 -18.109  -2.930  0.00  0.00    -0.268 OA
ATOM      5  H   UNL d   1      31.167 -15.208  -1.917  0.00  0.00     0.162 HD
BRANCH   3   6
ATOM      6  C   UNL d   1      28.993 -16.173  -3.156  0.00  0.00     0.037 A 
ATOM      7  C   UNL d   1      28.873 -15.677  -4.483  0.00  0.00     0.057 A 
ATOM      8  C   UNL d   1      27.645 -15.188  -5.010  0.00  0.00     0.105 A 
ATOM      9  C   UNL d   1      26.518 -15.195  -4.145  0.00  0.00     0.135 A 
ATOM     10  C   UNL d   1      26.661 -15.600  -2.787  0.00  0.00     0.105 A 
ATOM     11  C   UNL d   1      27.894 -16.059  -2.303  0.00  0.00     0.057 A 
BRANCH   8  12
ATOM     12  O   UNL d   1      27.668 -15.022  -6.398  0.00  0.00    -0.349 OA
BRANCH  12  13
ATOM     13  C   UNL d   1      28.776 -14.374  -7.030  0.00  0.00     0.171 C 
ATOM     14  C   UNL d   1      28.637 -12.899  -7.356  0.00  0.00     0.034 C 
ENDBRANCH  12  13
ENDBRANCH   8  12
BRANCH   9  15
ATOM     15  O   UNL d   1      25.197 -14.963  -4.440  0.00  0.00    -0.346 OA
BRANCH  15  16
ATOM     16  C   UNL d   1      24.693 -13.702  -4.268  0.00  0.00     0.171 C 
ATOM     17  C   UNL d   1      25.530 -12.502  -3.953  0.00  0.00     0.034 C 
ENDBRANCH  15  16
ENDBRANCH   9  15
BRANCH  10  18
ATOM     18  O   UNL d   1      25.642 -15.662  -1.837  0.00  0.00    -0.349 OA
BRANCH  18  19
ATOM     19  C   UNL d   1      24.828 -16.843  -1.843  0.00  0.00     0.171 C 
ATOM     20  C   UNL d   1      24.176 -17.126  -0.522  0.00  0.00     0.034 C 
ENDBRANCH  18  19
ENDBRANCH  10  18
ENDBRANCH   3   6
ENDBRANCH   1   2
BRANCH   1  21
ATOM     21  C   UNL d   1      32.300 -17.597  -0.267  0.00  0.00     0.172 C 
BRANCH  21  22
ATOM     22  N   UNL d   1      32.139 -16.696   0.867  0.00  0.00    -0.250 N 
ATOM     23  N   UNL d   1      32.897 -16.928   1.971  0.00  0.00    -0.182 NA
ATOM     24  C   UNL d   1      32.514 -15.971   2.820  0.00  0.00     0.158 A 
ATOM     25  C   UNL d   1      31.545 -15.104   2.276  0.00  0.00     0.076 A 
ATOM     26  C   UNL d   1      30.819 -13.982   2.704  0.00  0.00     0.142 A 
ATOM     27  C   UNL d   1      31.327 -15.582   0.996  0.00  0.00     0.164 A 
ATOM     28  N   UNL d   1      29.952 -13.412   1.822  0.00  0.00    -0.204 NA
ATOM     29  C   UNL d   1      29.819 -13.952   0.589  0.00  0.00     0.192 A 
ATOM     30  N   UNL d   1      30.474 -15.043   0.103  0.00  0.00    -0.203 NA
BRANCH  26  31
ATOM     31  N   UNL d   1      30.979 -13.488   3.982  0.00  0.00    -0.374 N 
ATOM     32  H   UNL d   1      31.914 -13.403   4.355  0.00  0.00     0.161 HD
BRANCH  31  33
ATOM     33  C   UNL d   1      29.854 -13.051   4.782  0.00  0.00     0.125 C 
BRANCH  33  34
ATOM     34  C   UNL d   1      29.122 -14.257   5.409  0.00  0.00    -0.005 C 
ATOM     35  C   UNL d   1      28.905 -14.071   6.914  0.00  0.00     0.011 C 
ATOM     36  C   UNL d   1      27.766 -14.456   4.729  0.00  0.00     0.011 C 
ENDBRANCH  33  34
ENDBRANCH  31  33
ENDBRANCH  26  31
BRANCH  29  37
ATOM     37  S   UNL d   1      28.663 -13.208  -0.577  0.00  0.00    -0.090 SA
BRANCH  37  38
ATOM     38  C   UNL d   1      26.986 -13.577   0.081  0.00  0.00     0.078 C 
ATOM     39  C   UNL d   1      26.989 -14.964   0.740  0.00  0.00     0.016 C 
ENDBRANCH  37  38
ENDBRANCH  29  37
ENDBRANCH  21  22
ENDBRANCH   1  21
TORSDOF 15
ENDMDL
MODEL 9
REMARK VINA RESULT:    -5.337      3.342      7.422
REMARK INTER + INTRA:         -14.042
REMARK INTER:                  -9.811
REMARK INTRA:                  -4.231
REMARK CONF_INDEPENDENT:        4.474
REMARK UNBOUND:                -4.231
REMARK  15 active torsions:
REMARK  status: ('A' for Active; 'I' for Inactive)
REMARK    1  A    between atoms: C_2  and  O_3 
REMARK    2  A    between atoms: O_3  and  C_4 
REMARK    3  A    between atoms: C_6  and  C_7 
REMARK       I    between atoms: C_7  and  N_9 
REMARK    4  A    between atoms: N_9  and  C_10 
REMARK    5  A    between atoms: C_10  and  C_11 
REMARK    6  A    between atoms: C_11  and  N_12 
REMARK    7  A    between atoms: C_16  and  N_17 
REMARK    8  A    between atoms: N_17  and  C_18 
REMARK    9  A    between atoms: C_18  and  C_19 
REMARK   10  A    between atoms: C_23  and  S_24 
REMARK   11  A    between atoms: S_24  and  C_25 
REMARK   12  A    between atoms: C_30  and  O_31 
REMARK   13  A    between atoms: O_31  and  C_32 
REMARK   14  A    between atoms: C_34  and  O_35 
REMARK   15  A    between atoms: O_35  and  C_36 
ROOT
ATOM      1  C   UNL d   1      32.346 -14.668  -1.153  0.00  0.00     0.145 C 
ENDROOT
BRANCH   1   2
ATOM      2  N   UNL d   1      30.980 -14.719  -1.702  0.00  0.00    -0.355 N 
ATOM      3  C   UNL d   1      30.503 -15.863  -2.359  0.00  0.00     0.251 C 
ATOM      4  O   UNL d   1      31.194 -16.846  -2.518  0.00  0.00    -0.268 OA
ATOM      5  H   UNL d   1      30.378 -13.931  -1.536  0.00  0.00     0.162 HD
BRANCH   3   6
ATOM      6  C   UNL d   1      29.054 -15.878  -2.822  0.00  0.00     0.037 A 
ATOM      7  C   UNL d   1      28.013 -15.959  -1.857  0.00  0.00     0.057 A 
ATOM      8  C   UNL d   1      26.645 -15.743  -2.185  0.00  0.00     0.105 A 
ATOM      9  C   UNL d   1      26.341 -15.452  -3.543  0.00  0.00     0.135 A 
ATOM     10  C   UNL d   1      27.372 -15.468  -4.526  0.00  0.00     0.105 A 
ATOM     11  C   UNL d   1      28.704 -15.703  -4.162  0.00  0.00     0.057 A 
BRANCH   8  12
ATOM     12  O   UNL d   1      25.827 -15.581  -1.064  0.00  0.00    -0.349 OA
BRANCH  12  13
ATOM     13  C   UNL d   1      24.633 -16.357  -0.924  0.00  0.00     0.171 C 
ATOM     14  C   UNL d   1      24.778 -17.802  -0.483  0.00  0.00     0.034 C 
ENDBRANCH  12  13
ENDBRANCH   8  12
BRANCH   9  15
ATOM     15  O   UNL d   1      25.158 -15.023  -4.094  0.00  0.00    -0.346 OA
BRANCH  15  16
ATOM     16  C   UNL d   1      24.753 -13.735  -3.868  0.00  0.00     0.171 C 
ATOM     17  C   UNL d   1      25.532 -12.527  -4.285  0.00  0.00     0.034 C 
ENDBRANCH  15  16
ENDBRANCH   9  15
BRANCH  10  18
ATOM     18  O   UNL d   1      27.214 -15.194  -5.884  0.00  0.00    -0.349 OA
BRANCH  18  19
ATOM     19  C   UNL d   1      28.285 -14.490  -6.527  0.00  0.00     0.171 C 
ATOM     20  C   UNL d   1      28.266 -13.011  -6.274  0.00  0.00     0.034 C 
ENDBRANCH  18  19
ENDBRANCH  10  18
ENDBRANCH   3   6
ENDBRANCH   1   2
BRANCH   1  21
ATOM     21  C   UNL d   1      32.508 -13.739   0.063  0.00  0.00     0.172 C 
BRANCH  21  22
ATOM     22  N   UNL d   1      31.616 -14.079   1.165  0.00  0.00    -0.250 N 
ATOM     23  N   UNL d   1      32.174 -14.575   2.300  0.00  0.00    -0.182 NA
ATOM     24  C   UNL d   1      31.124 -14.802   3.093  0.00  0.00     0.158 A 
ATOM     25  C   UNL d   1      29.897 -14.432   2.505  0.00  0.00     0.076 A 
ATOM     26  C   UNL d   1      28.541 -14.452   2.865  0.00  0.00     0.142 A 
ATOM     27  C   UNL d   1      30.241 -13.945   1.255  0.00  0.00     0.164 A 
ATOM     28  N   UNL d   1      27.638 -13.970   1.968  0.00  0.00    -0.204 NA
ATOM     29  C   UNL d   1      28.079 -13.508   0.775  0.00  0.00     0.192 A 
ATOM     30  N   UNL d   1      29.371 -13.466   0.345  0.00  0.00    -0.203 NA
BRANCH  26  31
ATOM     31  N   UNL d   1      28.147 -14.957   4.087  0.00  0.00    -0.374 N 
ATOM     32  H   UNL d   1      28.467 -15.876   4.358  0.00  0.00     0.161 HD
BRANCH  31  33
ATOM     33  C   UNL d   1      27.329 -14.192   5.005  0.00  0.00     0.125 C 
BRANCH  33  34
ATOM     34  C   UNL d   1      28.205 -13.321   5.931  0.00  0.00    -0.005 C 
ATOM     35  C   UNL d   1      29.508 -14.030   6.315  0.00  0.00     0.011 C 
ATOM     36  C   UNL d   1      28.540 -11.998   5.240  0.00  0.00     0.011 C 
ENDBRANCH  33  34
ENDBRANCH  31  33
ENDBRANCH  26  31
BRANCH  29  37
ATOM     37  S   UNL d   1      26.885 -12.880  -0.420  0.00  0.00    -0.090 SA
BRANCH  37  38
ATOM     38  C   UNL d   1      27.806 -11.672  -1.456  0.00  0.00     0.078 C 
ATOM     39  C   UNL d   1      28.482 -12.408  -2.622  0.00  0.00     0.016 C 
ENDBRANCH  37  38
ENDBRANCH  29  37
ENDBRANCH  21  22
ENDBRANCH   1  21
TORSDOF 15
ENDMDL
