MODEL 1
REMARK VINA RESULT:    -8.857      0.000      0.000
REMARK INTER + INTRA:         -10.603
REMARK INTER:                 -10.050
REMARK INTRA:                  -0.553
REMARK CONF_INDEPENDENT:        1.193
REMARK UNBOUND:                -0.553
REMARK  4 active torsions:
REMARK  status: ('A' for Active; 'I' for Inactive)
REMARK       I    between atoms: C_2  and  N_4 
REMARK    1  A    between atoms: N_4  and  C_5 
REMARK    2  A    between atoms: C_9  and  C_10 
REMARK       I    between atoms: C_10  and  N_12 
REMARK    3  A    between atoms: N_12  and  C_13 
REMARK    4  A    between atoms: C_17  and  O_18 
ROOT
ATOM      1  C   UNL d   1      22.824 -18.433  -0.847  0.00  0.00     0.256 C 
ATOM      2  O   UNL d   1      22.618 -19.209  -1.788  0.00  0.00    -0.267 OA
ATOM      3  N   UNL d   1      21.933 -18.233   0.203  0.00  0.00    -0.323 N 
ATOM      4  H   UNL d   1      22.033 -17.456   0.841  0.00  0.00     0.169 HD
ENDROOT
BRANCH   1   5
ATOM      5  C   UNL d   1      24.061 -17.612  -0.906  0.00  0.00     0.034 A 
ATOM      6  C   UNL d   1      25.225 -18.104  -0.297  0.00  0.00     0.017 A 
ATOM      7  C   UNL d   1      26.431 -17.410  -0.409  0.00  0.00     0.003 A 
ATOM      8  C   UNL d   1      26.477 -16.194  -1.100  0.00  0.00     0.029 A 
ATOM      9  C   UNL d   1      25.316 -15.683  -1.687  0.00  0.00     0.035 A 
ATOM     10  C   UNL d   1      24.118 -16.394  -1.582  0.00  0.00     0.046 A 
BRANCH   9  11
ATOM     11  N   UNL d   1      25.350 -14.485  -2.436  0.00  0.00    -0.327 N 
ATOM     12  C   UNL d   1      25.497 -14.480  -3.815  0.00  0.00     0.218 C 
ATOM     13  C   UNL d   1      25.594 -13.117  -4.444  0.00  0.00     0.117 C 
ATOM     14  O   UNL d   1      25.530 -15.485  -4.522  0.00  0.00    -0.274 OA
ATOM     15  H   UNL d   1      25.138 -13.620  -1.952  0.00  0.00     0.169 HD
ENDBRANCH   9  11
ENDBRANCH   1   5
BRANCH   3  16
ATOM     16  C   UNL d   1      20.781 -19.030   0.358  0.00  0.00     0.037 A 
ATOM     17  C   UNL d   1      19.918 -19.270  -0.713  0.00  0.00     0.029 A 
ATOM     18  C   UNL d   1      18.786 -20.075  -0.520  0.00  0.00     0.005 A 
ATOM     19  C   UNL d   1      18.527 -20.642   0.734  0.00  0.00     0.036 A 
ATOM     20  C   UNL d   1      19.373 -20.358   1.797  0.00  0.00     0.067 A 
ATOM     21  C   UNL d   1      20.488 -19.560   1.614  0.00  0.00     0.066 A 
BRANCH  20  22
ATOM     22  O   UNL d   1      19.152 -20.825   3.057  0.00  0.00    -0.361 OA
ATOM     23  H   UNL d   1      19.996 -21.083   3.453  0.00  0.00     0.217 HD
ENDBRANCH  20  22
ENDBRANCH   3  16
TORSDOF 4
ENDMDL
MODEL 2
REMARK VINA RESULT:    -8.147      1.955      8.314
REMARK INTER + INTRA:          -9.868
REMARK INTER:                  -9.340
REMARK INTRA:                  -0.528
REMARK CONF_INDEPENDENT:        1.193
REMARK UNBOUND:                -0.528
REMARK  4 active torsions:
REMARK  status: ('A' for Active; 'I' for Inactive)
REMARK       I    between atoms: C_2  and  N_4 
REMARK    1  A    between atoms: N_4  and  C_5 
REMARK    2  A    between atoms: C_9  and  C_10 
REMARK       I    between atoms: C_10  and  N_12 
REMARK    3  A    between atoms: N_12  and  C_13 
REMARK    4  A    between atoms: C_17  and  O_18 
ROOT
ATOM      1  C   UNL d   1      25.446 -15.564  -2.800  0.00  0.00     0.256 C 
ATOM      2  O   UNL d   1      24.541 -14.830  -3.214  0.00  0.00    -0.267 OA
ATOM      3  N   UNL d   1      26.724 -15.605  -3.349  0.00  0.00    -0.323 N 
ATOM      4  H   UNL d   1      27.372 -16.347  -3.125  0.00  0.00     0.169 HD
ENDROOT
BRANCH   1   5
ATOM      5  C   UNL d   1      25.103 -16.510  -1.707  0.00  0.00     0.034 A 
ATOM      6  C   UNL d   1      26.135 -17.000  -0.892  0.00  0.00     0.017 A 
ATOM      7  C   UNL d   1      25.845 -17.817   0.203  0.00  0.00     0.003 A 
ATOM      8  C   UNL d   1      24.522 -18.183   0.472  0.00  0.00     0.029 A 
ATOM      9  C   UNL d   1      23.491 -17.721  -0.350  0.00  0.00     0.035 A 
ATOM     10  C   UNL d   1      23.791 -16.892  -1.435  0.00  0.00     0.046 A 
BRANCH   9  11
ATOM     11  N   UNL d   1      22.143 -18.034  -0.066  0.00  0.00    -0.327 N 
ATOM     12  C   UNL d   1      21.361 -18.788  -0.929  0.00  0.00     0.218 C 
ATOM     13  C   UNL d   1      19.927 -18.959  -0.511  0.00  0.00     0.117 C 
ATOM     14  O   UNL d   1      21.766 -19.319  -1.962  0.00  0.00    -0.274 OA
ATOM     15  H   UNL d   1      21.788 -17.798   0.854  0.00  0.00     0.169 HD
ENDBRANCH   9  11
ENDBRANCH   1   5
BRANCH   3  16
ATOM     16  C   UNL d   1      27.137 -14.685  -4.334  0.00  0.00     0.037 A 
ATOM     17  C   UNL d   1      26.678 -13.366  -4.328  0.00  0.00     0.029 A 
ATOM     18  C   UNL d   1      27.117 -12.478  -5.321  0.00  0.00     0.005 A 
ATOM     19  C   UNL d   1      28.016 -12.906  -6.305  0.00  0.00     0.036 A 
ATOM     20  C   UNL d   1      28.428 -14.232  -6.319  0.00  0.00     0.067 A 
ATOM     21  C   UNL d   1      27.994 -15.114  -5.347  0.00  0.00     0.066 A 
BRANCH  20  22
ATOM     22  O   UNL d   1      29.252 -14.734  -7.280  0.00  0.00    -0.361 OA
ATOM     23  H   UNL d   1      28.981 -14.390  -8.143  0.00  0.00     0.217 HD
ENDBRANCH  20  22
ENDBRANCH   3  16
TORSDOF 4
ENDMDL
MODEL 3
REMARK VINA RESULT:    -8.114      1.873      8.138
REMARK INTER + INTRA:          -9.797
REMARK INTER:                  -9.308
REMARK INTRA:                  -0.489
REMARK CONF_INDEPENDENT:        1.193
REMARK UNBOUND:                -0.489
REMARK  4 active torsions:
REMARK  status: ('A' for Active; 'I' for Inactive)
REMARK       I    between atoms: C_2  and  N_4 
REMARK    1  A    between atoms: N_4  and  C_5 
REMARK    2  A    between atoms: C_9  and  C_10 
REMARK       I    between atoms: C_10  and  N_12 
REMARK    3  A    between atoms: N_12  and  C_13 
REMARK    4  A    between atoms: C_17  and  O_18 
ROOT
ATOM      1  C   UNL d   1      25.262 -15.479  -2.738  0.00  0.00     0.256 C 
ATOM      2  O   UNL d   1      24.331 -14.749  -3.098  0.00  0.00    -0.267 OA
ATOM      3  N   UNL d   1      26.519 -15.485  -3.336  0.00  0.00    -0.323 N 
ATOM      4  H   UNL d   1      27.186 -16.222  -3.156  0.00  0.00     0.169 HD
ENDROOT
BRANCH   1   5
ATOM      5  C   UNL d   1      24.975 -16.458  -1.658  0.00  0.00     0.034 A 
ATOM      6  C   UNL d   1      26.042 -16.937  -0.883  0.00  0.00     0.017 A 
ATOM      7  C   UNL d   1      25.806 -17.786   0.201  0.00  0.00     0.003 A 
ATOM      8  C   UNL d   1      24.501 -18.195   0.496  0.00  0.00     0.029 A 
ATOM      9  C   UNL d   1      23.436 -17.745  -0.287  0.00  0.00     0.035 A 
ATOM     10  C   UNL d   1      23.682 -16.883  -1.360  0.00  0.00     0.046 A 
BRANCH   9  11
ATOM     11  N   UNL d   1      22.105 -18.102   0.026  0.00  0.00    -0.327 N 
ATOM     12  C   UNL d   1      21.314 -18.841  -0.842  0.00  0.00     0.218 C 
ATOM     13  C   UNL d   1      19.898 -19.063  -0.387  0.00  0.00     0.117 C 
ATOM     14  O   UNL d   1      21.698 -19.320  -1.907  0.00  0.00    -0.274 OA
ATOM     15  H   UNL d   1      21.774 -17.910   0.964  0.00  0.00     0.169 HD
ENDBRANCH   9  11
ENDBRANCH   1   5
BRANCH   3  16
ATOM     16  C   UNL d   1      26.880 -14.533  -4.311  0.00  0.00     0.037 A 
ATOM     17  C   UNL d   1      27.837 -14.823  -5.285  0.00  0.00     0.029 A 
ATOM     18  C   UNL d   1      28.164 -13.851  -6.242  0.00  0.00     0.005 A 
ATOM     19  C   UNL d   1      27.530 -12.603  -6.228  0.00  0.00     0.036 A 
ATOM     20  C   UNL d   1      26.611 -12.318  -5.226  0.00  0.00     0.067 A 
ATOM     21  C   UNL d   1      26.289 -13.270  -4.277  0.00  0.00     0.066 A 
BRANCH  20  22
ATOM     22  O   UNL d   1      25.999 -11.107  -5.114  0.00  0.00    -0.361 OA
ATOM     23  H   UNL d   1      25.049 -11.241  -4.990  0.00  0.00     0.217 HD
ENDBRANCH  20  22
ENDBRANCH   3  16
TORSDOF 4
ENDMDL
MODEL 4
REMARK VINA RESULT:    -7.680      2.117      8.309
REMARK INTER + INTRA:          -9.401
REMARK INTER:                  -8.873
REMARK INTRA:                  -0.528
REMARK CONF_INDEPENDENT:        1.193
REMARK UNBOUND:                -0.528
REMARK  4 active torsions:
REMARK  status: ('A' for Active; 'I' for Inactive)
REMARK       I    between atoms: C_2  and  N_4 
REMARK    1  A    between atoms: N_4  and  C_5 
REMARK    2  A    between atoms: C_9  and  C_10 
REMARK       I    between atoms: C_10  and  N_12 
REMARK    3  A    between atoms: N_12  and  C_13 
REMARK    4  A    between atoms: C_17  and  O_18 
ROOT
ATOM      1  C   UNL d   1      25.193 -14.562  -3.075  0.00  0.00     0.256 C 
ATOM      2  O   UNL d   1      24.783 -14.826  -4.213  0.00  0.00    -0.267 OA
ATOM      3  N   UNL d   1      25.793 -13.356  -2.727  0.00  0.00    -0.323 N 
ATOM      4  H   UNL d   1      26.292 -13.246  -1.856  0.00  0.00     0.169 HD
ENDROOT
BRANCH   1   5
ATOM      5  C   UNL d   1      25.107 -15.642  -2.059  0.00  0.00     0.034 A 
ATOM      6  C   UNL d   1      26.291 -16.096  -1.458  0.00  0.00     0.017 A 
ATOM      7  C   UNL d   1      26.247 -17.042  -0.431  0.00  0.00     0.003 A 
ATOM      8  C   UNL d   1      25.019 -17.574  -0.023  0.00  0.00     0.029 A 
ATOM      9  C   UNL d   1      23.838 -17.148  -0.635  0.00  0.00     0.035 A 
ATOM     10  C   UNL d   1      23.892 -16.188  -1.650  0.00  0.00     0.046 A 
BRANCH   9  11
ATOM     11  N   UNL d   1      22.583 -17.631  -0.201  0.00  0.00    -0.327 N 
ATOM     12  C   UNL d   1      21.905 -18.636  -0.875  0.00  0.00     0.218 C 
ATOM     13  C   UNL d   1      20.546 -18.973  -0.324  0.00  0.00     0.117 C 
ATOM     14  O   UNL d   1      22.344 -19.252  -1.844  0.00  0.00    -0.274 OA
ATOM     15  H   UNL d   1      22.239 -17.310   0.697  0.00  0.00     0.169 HD
ENDBRANCH   9  11
ENDBRANCH   1   5
BRANCH   3  16
ATOM     16  C   UNL d   1      25.837 -12.266  -3.620  0.00  0.00     0.037 A 
ATOM     17  C   UNL d   1      26.165 -12.446  -4.965  0.00  0.00     0.029 A 
ATOM     18  C   UNL d   1      26.191 -11.337  -5.823  0.00  0.00     0.005 A 
ATOM     19  C   UNL d   1      25.881 -10.061  -5.340  0.00  0.00     0.036 A 
ATOM     20  C   UNL d   1      25.599  -9.895  -3.990  0.00  0.00     0.067 A 
ATOM     21  C   UNL d   1      25.577 -10.983  -3.137  0.00  0.00     0.066 A 
BRANCH  20  22
ATOM     22  O   UNL d   1      25.348  -8.676  -3.437  0.00  0.00    -0.361 OA
ATOM     23  H   UNL d   1      24.391  -8.557  -3.351  0.00  0.00     0.217 HD
ENDBRANCH  20  22
ENDBRANCH   3  16
TORSDOF 4
ENDMDL
MODEL 5
REMARK VINA RESULT:    -7.545      1.672      2.082
REMARK INTER + INTRA:          -9.285
REMARK INTER:                  -8.738
REMARK INTRA:                  -0.547
REMARK CONF_INDEPENDENT:        1.193
REMARK UNBOUND:                -0.547
REMARK  4 active torsions:
REMARK  status: ('A' for Active; 'I' for Inactive)
REMARK       I    between atoms: C_2  and  N_4 
REMARK    1  A    between atoms: N_4  and  C_5 
REMARK    2  A    between atoms: C_9  and  C_10 
REMARK       I    between atoms: C_10  and  N_12 
REMARK    3  A    between atoms: N_12  and  C_13 
REMARK    4  A    between atoms: C_17  and  O_18 
ROOT
ATOM      1  C   UNL d   1      23.466 -17.002  -0.682  0.00  0.00     0.256 C 
ATOM      2  O   UNL d   1      22.578 -16.216  -1.032  0.00  0.00    -0.267 OA
ATOM      3  N   UNL d   1      23.223 -18.205  -0.026  0.00  0.00    -0.323 N 
ATOM      4  H   UNL d   1      23.966 -18.723   0.420  0.00  0.00     0.169 HD
ENDROOT
BRANCH   1   5
ATOM      5  C   UNL d   1      24.872 -16.579  -0.908  0.00  0.00     0.034 A 
ATOM      6  C   UNL d   1      25.897 -17.259  -0.233  0.00  0.00     0.017 A 
ATOM      7  C   UNL d   1      27.236 -16.955  -0.488  0.00  0.00     0.003 A 
ATOM      8  C   UNL d   1      27.563 -15.940  -1.393  0.00  0.00     0.029 A 
ATOM      9  C   UNL d   1      26.549 -15.240  -2.050  0.00  0.00     0.035 A 
ATOM     10  C   UNL d   1      25.212 -15.563  -1.799  0.00  0.00     0.046 A 
BRANCH   9  11
ATOM     11  N   UNL d   1      26.857 -14.249  -3.009  0.00  0.00    -0.327 N 
ATOM     12  C   UNL d   1      26.157 -14.131  -4.201  0.00  0.00     0.218 C 
ATOM     13  C   UNL d   1      26.667 -13.074  -5.142  0.00  0.00     0.117 C 
ATOM     14  O   UNL d   1      25.172 -14.800  -4.507  0.00  0.00    -0.274 OA
ATOM     15  H   UNL d   1      27.529 -13.536  -2.750  0.00  0.00     0.169 HD
ENDBRANCH   9  11
ENDBRANCH   1   5
BRANCH   3  16
ATOM     16  C   UNL d   1      21.915 -18.700   0.151  0.00  0.00     0.037 A 
ATOM     17  C   UNL d   1      21.403 -18.950   1.426  0.00  0.00     0.029 A 
ATOM     18  C   UNL d   1      20.095 -19.436   1.561  0.00  0.00     0.005 A 
ATOM     19  C   UNL d   1      19.303 -19.661   0.429  0.00  0.00     0.036 A 
ATOM     20  C   UNL d   1      19.844 -19.447  -0.832  0.00  0.00     0.067 A 
ATOM     21  C   UNL d   1      21.135 -18.973  -0.972  0.00  0.00     0.066 A 
BRANCH  20  22
ATOM     22  O   UNL d   1      19.155 -19.700  -1.979  0.00  0.00    -0.361 OA
ATOM     23  H   UNL d   1      18.480 -19.017  -2.102  0.00  0.00     0.217 HD
ENDBRANCH  20  22
ENDBRANCH   3  16
TORSDOF 4
ENDMDL
MODEL 6
REMARK VINA RESULT:    -6.942      2.126      2.341
REMARK INTER + INTRA:          -8.701
REMARK INTER:                  -8.135
REMARK INTRA:                  -0.566
REMARK CONF_INDEPENDENT:        1.193
REMARK UNBOUND:                -0.566
REMARK  4 active torsions:
REMARK  status: ('A' for Active; 'I' for Inactive)
REMARK       I    between atoms: C_2  and  N_4 
REMARK    1  A    between atoms: N_4  and  C_5 
REMARK    2  A    between atoms: C_9  and  C_10 
REMARK       I    between atoms: C_10  and  N_12 
REMARK    3  A    between atoms: N_12  and  C_13 
REMARK    4  A    between atoms: C_17  and  O_18 
ROOT
ATOM      1  C   UNL d   1      23.070 -17.638  -0.394  0.00  0.00     0.256 C 
ATOM      2  O   UNL d   1      22.317 -16.796  -0.897  0.00  0.00    -0.267 OA
ATOM      3  N   UNL d   1      22.633 -18.838   0.159  0.00  0.00    -0.323 N 
ATOM      4  H   UNL d   1      23.238 -19.406   0.735  0.00  0.00     0.169 HD
ENDROOT
BRANCH   1   5
ATOM      5  C   UNL d   1      24.512 -17.289  -0.307  0.00  0.00     0.034 A 
ATOM      6  C   UNL d   1      25.437 -18.312  -0.046  0.00  0.00     0.017 A 
ATOM      7  C   UNL d   1      26.807 -18.045  -0.049  0.00  0.00     0.003 A 
ATOM      8  C   UNL d   1      27.265 -16.742  -0.274  0.00  0.00     0.029 A 
ATOM      9  C   UNL d   1      26.350 -15.713  -0.508  0.00  0.00     0.035 A 
ATOM     10  C   UNL d   1      24.981 -15.994  -0.518  0.00  0.00     0.046 A 
BRANCH   9  11
ATOM     11  N   UNL d   1      26.792 -14.401  -0.791  0.00  0.00    -0.327 N 
ATOM     12  C   UNL d   1      27.367 -13.589   0.176  0.00  0.00     0.218 C 
ATOM     13  C   UNL d   1      27.707 -12.196  -0.276  0.00  0.00     0.117 C 
ATOM     14  O   UNL d   1      27.621 -13.940   1.327  0.00  0.00    -0.274 OA
ATOM     15  H   UNL d   1      26.795 -14.104  -1.760  0.00  0.00     0.169 HD
ENDBRANCH   9  11
ENDBRANCH   1   5
BRANCH   3  16
ATOM     16  C   UNL d   1      21.294 -19.262   0.042  0.00  0.00     0.037 A 
ATOM     17  C   UNL d   1      20.641 -19.264  -1.192  0.00  0.00     0.029 A 
ATOM     18  C   UNL d   1      19.310 -19.700  -1.269  0.00  0.00     0.005 A 
ATOM     19  C   UNL d   1      18.643 -20.140  -0.119  0.00  0.00     0.036 A 
ATOM     20  C   UNL d   1      19.295 -20.091   1.106  0.00  0.00     0.067 A 
ATOM     21  C   UNL d   1      20.605 -19.657   1.188  0.00  0.00     0.066 A 
BRANCH  20  22
ATOM     22  O   UNL d   1      18.690 -20.446   2.274  0.00  0.00    -0.361 OA
ATOM     23  H   UNL d   1      17.998 -21.096   2.088  0.00  0.00     0.217 HD
ENDBRANCH  20  22
ENDBRANCH   3  16
TORSDOF 4
ENDMDL
MODEL 7
REMARK VINA RESULT:    -6.843      3.172      8.110
REMARK INTER + INTRA:          -8.379
REMARK INTER:                  -8.037
REMARK INTRA:                  -0.343
REMARK CONF_INDEPENDENT:        1.193
REMARK UNBOUND:                -0.343
REMARK  4 active torsions:
REMARK  status: ('A' for Active; 'I' for Inactive)
REMARK       I    between atoms: C_2  and  N_4 
REMARK    1  A    between atoms: N_4  and  C_5 
REMARK    2  A    between atoms: C_9  and  C_10 
REMARK       I    between atoms: C_10  and  N_12 
REMARK    3  A    between atoms: N_12  and  C_13 
REMARK    4  A    between atoms: C_17  and  O_18 
ROOT
ATOM      1  C   UNL d   1      26.468 -17.622  -0.101  0.00  0.00     0.256 C 
ATOM      2  O   UNL d   1      26.850 -18.663   0.449  0.00  0.00    -0.267 OA
ATOM      3  N   UNL d   1      27.314 -16.574  -0.450  0.00  0.00    -0.323 N 
ATOM      4  H   UNL d   1      26.952 -15.667  -0.710  0.00  0.00     0.169 HD
ENDROOT
BRANCH   1   5
ATOM      5  C   UNL d   1      25.006 -17.468  -0.313  0.00  0.00     0.034 A 
ATOM      6  C   UNL d   1      24.537 -16.312  -0.956  0.00  0.00     0.017 A 
ATOM      7  C   UNL d   1      23.181 -16.170  -1.259  0.00  0.00     0.003 A 
ATOM      8  C   UNL d   1      22.273 -17.167  -0.886  0.00  0.00     0.029 A 
ATOM      9  C   UNL d   1      22.728 -18.308  -0.221  0.00  0.00     0.035 A 
ATOM     10  C   UNL d   1      24.089 -18.448   0.063  0.00  0.00     0.046 A 
BRANCH   9  11
ATOM     11  N   UNL d   1      21.837 -19.352   0.117  0.00  0.00    -0.327 N 
ATOM     12  C   UNL d   1      20.491 -19.313  -0.219  0.00  0.00     0.218 C 
ATOM     13  C   UNL d   1      19.670 -20.467   0.287  0.00  0.00     0.117 C 
ATOM     14  O   UNL d   1      19.961 -18.434  -0.896  0.00  0.00    -0.274 OA
ATOM     15  H   UNL d   1      22.231 -20.201   0.506  0.00  0.00     0.169 HD
ENDBRANCH   9  11
ENDBRANCH   1   5
BRANCH   3  16
ATOM     16  C   UNL d   1      28.715 -16.686  -0.346  0.00  0.00     0.037 A 
ATOM     17  C   UNL d   1      29.481 -15.667   0.222  0.00  0.00     0.029 A 
ATOM     18  C   UNL d   1      30.872 -15.819   0.314  0.00  0.00     0.005 A 
ATOM     19  C   UNL d   1      31.488 -16.987  -0.151  0.00  0.00     0.036 A 
ATOM     20  C   UNL d   1      30.714 -17.971  -0.751  0.00  0.00     0.067 A 
ATOM     21  C   UNL d   1      29.343 -17.825  -0.850  0.00  0.00     0.066 A 
BRANCH  20  22
ATOM     22  O   UNL d   1      31.250 -19.107  -1.279  0.00  0.00    -0.361 OA
ATOM     23  H   UNL d   1      31.375 -19.757  -0.573  0.00  0.00     0.217 HD
ENDBRANCH  20  22
ENDBRANCH   3  16
TORSDOF 4
ENDMDL
MODEL 8
REMARK VINA RESULT:    -6.737      3.775      6.093
REMARK INTER + INTRA:          -8.344
REMARK INTER:                  -7.930
REMARK INTRA:                  -0.415
REMARK CONF_INDEPENDENT:        1.193
REMARK UNBOUND:                -0.415
REMARK  4 active torsions:
REMARK  status: ('A' for Active; 'I' for Inactive)
REMARK       I    between atoms: C_2  and  N_4 
REMARK    1  A    between atoms: N_4  and  C_5 
REMARK    2  A    between atoms: C_9  and  C_10 
REMARK       I    between atoms: C_10  and  N_12 
REMARK    3  A    between atoms: N_12  and  C_13 
REMARK    4  A    between atoms: C_17  and  O_18 
ROOT
ATOM      1  C   UNL d   1      25.642 -14.927  -3.440  0.00  0.00     0.256 C 
ATOM      2  O   UNL d   1      24.488 -14.557  -3.195  0.00  0.00    -0.267 OA
ATOM      3  N   UNL d   1      26.319 -15.897  -2.707  0.00  0.00    -0.323 N 
ATOM      4  H   UNL d   1      27.315 -16.033  -2.802  0.00  0.00     0.169 HD
ENDROOT
BRANCH   1   5
ATOM      5  C   UNL d   1      26.361 -14.220  -4.532  0.00  0.00     0.034 A 
ATOM      6  C   UNL d   1      26.072 -12.867  -4.761  0.00  0.00     0.017 A 
ATOM      7  C   UNL d   1      26.791 -12.141  -5.714  0.00  0.00     0.003 A 
ATOM      8  C   UNL d   1      27.781 -12.773  -6.474  0.00  0.00     0.029 A 
ATOM      9  C   UNL d   1      28.056 -14.127  -6.270  0.00  0.00     0.035 A 
ATOM     10  C   UNL d   1      27.342 -14.840  -5.304  0.00  0.00     0.046 A 
BRANCH   9  11
ATOM     11  N   UNL d   1      29.088 -14.772  -6.989  0.00  0.00    -0.327 N 
ATOM     12  C   UNL d   1      29.936 -15.695  -6.394  0.00  0.00     0.218 C 
ATOM     13  C   UNL d   1      31.029 -16.225  -7.282  0.00  0.00     0.117 C 
ATOM     14  O   UNL d   1      29.834 -16.101  -5.238  0.00  0.00    -0.274 OA
ATOM     15  H   UNL d   1      29.119 -14.637  -7.992  0.00  0.00     0.169 HD
ENDBRANCH   9  11
ENDBRANCH   1   5
BRANCH   3  16
ATOM     16  C   UNL d   1      25.672 -16.657  -1.711  0.00  0.00     0.037 A 
ATOM     17  C   UNL d   1      24.282 -16.784  -1.688  0.00  0.00     0.029 A 
ATOM     18  C   UNL d   1      23.676 -17.555  -0.685  0.00  0.00     0.005 A 
ATOM     19  C   UNL d   1      24.458 -18.200   0.281  0.00  0.00     0.036 A 
ATOM     20  C   UNL d   1      25.836 -18.027   0.267  0.00  0.00     0.067 A 
ATOM     21  C   UNL d   1      26.438 -17.264  -0.717  0.00  0.00     0.066 A 
BRANCH  20  22
ATOM     22  O   UNL d   1      26.654 -18.574   1.208  0.00  0.00    -0.361 OA
ATOM     23  H   UNL d   1      27.569 -18.321   1.019  0.00  0.00     0.217 HD
ENDBRANCH  20  22
ENDBRANCH   3  16
TORSDOF 4
ENDMDL
MODEL 9
REMARK VINA RESULT:    -6.225      4.873      8.566
REMARK INTER + INTRA:          -8.000
REMARK INTER:                  -7.418
REMARK INTRA:                  -0.582
REMARK CONF_INDEPENDENT:        1.193
REMARK UNBOUND:                -0.582
REMARK  4 active torsions:
REMARK  status: ('A' for Active; 'I' for Inactive)
REMARK       I    between atoms: C_2  and  N_4 
REMARK    1  A    between atoms: N_4  and  C_5 
REMARK    2  A    between atoms: C_9  and  C_10 
REMARK       I    between atoms: C_10  and  N_12 
REMARK    3  A    between atoms: N_12  and  C_13 
REMARK    4  A    between atoms: C_17  and  O_18 
ROOT
ATOM      1  C   UNL d   1      25.564 -14.106  -2.994  0.00  0.00     0.256 C 
ATOM      2  O   UNL d   1      24.794 -14.436  -3.905  0.00  0.00    -0.267 OA
ATOM      3  N   UNL d   1      26.273 -12.908  -2.973  0.00  0.00    -0.323 N 
ATOM      4  H   UNL d   1      27.036 -12.757  -2.328  0.00  0.00     0.169 HD
ENDROOT
BRANCH   1   5
ATOM      5  C   UNL d   1      25.798 -15.099  -1.913  0.00  0.00     0.034 A 
ATOM      6  C   UNL d   1      25.154 -16.343  -1.992  0.00  0.00     0.017 A 
ATOM      7  C   UNL d   1      25.418 -17.338  -1.049  0.00  0.00     0.003 A 
ATOM      8  C   UNL d   1      26.300 -17.084   0.007  0.00  0.00     0.029 A 
ATOM      9  C   UNL d   1      26.924 -15.838   0.108  0.00  0.00     0.035 A 
ATOM     10  C   UNL d   1      26.665 -14.855  -0.851  0.00  0.00     0.046 A 
BRANCH   9  11
ATOM     11  N   UNL d   1      27.860 -15.579   1.135  0.00  0.00    -0.327 N 
ATOM     12  C   UNL d   1      27.777 -14.454   1.944  0.00  0.00     0.218 C 
ATOM     13  C   UNL d   1      28.899 -14.292   2.932  0.00  0.00     0.117 C 
ATOM     14  O   UNL d   1      26.864 -13.631   1.911  0.00  0.00    -0.274 OA
ATOM     15  H   UNL d   1      28.533 -16.304   1.354  0.00  0.00     0.169 HD
ENDBRANCH   9  11
ENDBRANCH   1   5
BRANCH   3  16
ATOM     16  C   UNL d   1      26.042 -11.894  -3.924  0.00  0.00     0.037 A 
ATOM     17  C   UNL d   1      26.243 -12.123  -5.287  0.00  0.00     0.029 A 
ATOM     18  C   UNL d   1      25.996 -11.091  -6.203  0.00  0.00     0.005 A 
ATOM     19  C   UNL d   1      25.541  -9.843  -5.758  0.00  0.00     0.036 A 
ATOM     20  C   UNL d   1      25.388  -9.622  -4.396  0.00  0.00     0.067 A 
ATOM     21  C   UNL d   1      25.636 -10.634  -3.487  0.00  0.00     0.066 A 
BRANCH  20  22
ATOM     22  O   UNL d   1      25.007  -8.418  -3.886  0.00  0.00    -0.361 OA
ATOM     23  H   UNL d   1      24.403  -8.564  -3.144  0.00  0.00     0.217 HD
ENDBRANCH  20  22
ENDBRANCH   3  16
TORSDOF 4
ENDMDL
