MODEL 1
REMARK VINA RESULT:   -29.024      0.000      0.000
REMARK INTER + INTRA:         -30.993
REMARK INTER:                 -29.919
REMARK INTRA:                  -1.074
REMARK CONF_INDEPENDENT:        0.895
REMARK UNBOUND:                -1.074
REMARK  3 active torsions:
REMARK  status: ('A' for Active; 'I' for Inactive)
REMARK       I    between atoms: N_2  and  C_3 
REMARK    1  A    between atoms: C_3  and  C_5 
REMARK    2  A    between atoms: C_10  and  N_11 
REMARK       I    between atoms: N_11  and  C_12 
REMARK    3  A    between atoms: C_12  and  C_14 
ROOT
ATOM      1  C   UNL d   1      25.554 -17.391  -0.370  0.00  0.00     0.058 A 
ATOM      2  C   UNL d   1      26.473 -16.532  -1.003  0.00  0.00     0.019 A 
ATOM      3  C   UNL d   1      26.049 -15.546  -1.897  0.00  0.00     0.001 A 
ATOM      4  C   UNL d   1      24.702 -15.441  -2.219  0.00  0.00     0.002 A 
ATOM      5  C   UNL d   1      23.771 -16.291  -1.608  0.00  0.00     0.030 A 
ATOM      6  C   UNL d   1      24.175 -17.262  -0.665  0.00  0.00     0.050 A 
ENDROOT
BRANCH   6   7
ATOM      7  N   UNL d   1      23.142 -18.063  -0.099  0.00  0.00    -0.321 N 
ATOM      8  C   UNL d   1      22.185 -18.703  -0.877  0.00  0.00     0.274 C 
ATOM      9  O   UNL d   1      22.357 -18.973  -2.054  0.00  0.00    -0.266 OA
ATOM     10  H   UNL d   1      23.324 -18.482   0.804  0.00  0.00     0.169 HD
BRANCH   8  11
ATOM     11  C   UNL d   1      20.904 -19.122  -0.229  0.00  0.00     0.126 C 
ATOM     12  C   UNL d   1      20.755 -19.345   1.127  0.00  0.00     0.061 C 
ATOM     13  C   UNL d   1      19.579 -19.977   1.518  0.00  0.00     0.037 C 
ATOM     14 CL   UNL d   1      19.377 -20.450   3.160  0.00  0.00    -0.084 Cl
ATOM     15  C   UNL d   1      18.587 -20.295   0.594  0.00  0.00     0.043 C 
ATOM     16  C   UNL d   1      18.777 -19.908  -0.711  0.00  0.00     0.119 C 
ATOM     17  N   UNL d   1      19.904 -19.324  -1.126  0.00  0.00    -0.255 NA
ENDBRANCH   8  11
ENDBRANCH   6   7
BRANCH   1  18
ATOM     18  C   UNL d   1      26.157 -18.325   0.640  0.00  0.00     0.253 C 
ATOM     19  N   UNL d   1      27.406 -18.868   0.359  0.00  0.00    -0.361 N 
ATOM     20  C   UNL d   1      27.776 -20.131   0.979  0.00  0.00     0.149 C 
ATOM     21  H   UNL d   1      27.781 -18.681  -0.558  0.00  0.00     0.162 HD
ATOM     22  O   UNL d   1      25.529 -18.576   1.665  0.00  0.00    -0.268 OA
ENDBRANCH   1  18
TORSDOF 3
ENDMDL
MODEL 2
REMARK VINA RESULT:   -27.396      1.796      3.172
REMARK INTER + INTRA:         -28.638
REMARK INTER:                 -28.291
REMARK INTRA:                  -0.347
REMARK CONF_INDEPENDENT:        0.895
REMARK UNBOUND:                -0.347
REMARK  3 active torsions:
REMARK  status: ('A' for Active; 'I' for Inactive)
REMARK       I    between atoms: N_2  and  C_3 
REMARK    1  A    between atoms: C_3  and  C_5 
REMARK    2  A    between atoms: C_10  and  N_11 
REMARK       I    between atoms: N_11  and  C_12 
REMARK    3  A    between atoms: C_12  and  C_14 
ROOT
ATOM      1  C   UNL d   1      24.906 -16.868  -1.126  0.00  0.00     0.058 A 
ATOM      2  C   UNL d   1      26.256 -16.547  -0.883  0.00  0.00     0.019 A 
ATOM      3  C   UNL d   1      27.099 -17.425  -0.199  0.00  0.00     0.001 A 
ATOM      4  C   UNL d   1      26.591 -18.614   0.308  0.00  0.00     0.002 A 
ATOM      5  C   UNL d   1      25.249 -18.950   0.085  0.00  0.00     0.030 A 
ATOM      6  C   UNL d   1      24.393 -18.097  -0.646  0.00  0.00     0.050 A 
ENDROOT
BRANCH   6   7
ATOM      7  N   UNL d   1      23.052 -18.544  -0.820  0.00  0.00    -0.321 N 
ATOM      8  C   UNL d   1      21.966 -17.874  -0.270  0.00  0.00     0.274 C 
ATOM      9  O   UNL d   1      22.000 -16.695   0.041  0.00  0.00    -0.266 OA
ATOM     10  H   UNL d   1      22.853 -19.101  -1.642  0.00  0.00     0.169 HD
BRANCH   8  11
ATOM     11  C   UNL d   1      20.682 -18.621  -0.096  0.00  0.00     0.126 C 
ATOM     12  C   UNL d   1      20.336 -19.319   1.045  0.00  0.00     0.061 C 
ATOM     13  C   UNL d   1      19.235 -20.163   0.937  0.00  0.00     0.037 C 
ATOM     14 CL   UNL d   1      18.830 -21.200   2.249  0.00  0.00    -0.084 Cl
ATOM     15  C   UNL d   1      18.490 -20.233  -0.237  0.00  0.00     0.043 C 
ATOM     16  C   UNL d   1      18.839 -19.396  -1.270  0.00  0.00     0.119 C 
ATOM     17  N   UNL d   1      19.905 -18.594  -1.211  0.00  0.00    -0.255 NA
ENDBRANCH   8  11
ENDBRANCH   6   7
BRANCH   1  18
ATOM     18  C   UNL d   1      24.162 -15.868  -1.964  0.00  0.00     0.253 C 
ATOM     19  N   UNL d   1      24.822 -15.316  -3.056  0.00  0.00    -0.361 N 
ATOM     20  C   UNL d   1      24.397 -14.013  -3.547  0.00  0.00     0.149 C 
ATOM     21  H   UNL d   1      25.799 -15.544  -3.153  0.00  0.00     0.162 HD
ATOM     22  O   UNL d   1      23.011 -15.573  -1.654  0.00  0.00    -0.268 OA
ENDBRANCH   1  18
TORSDOF 3
ENDMDL
