MODEL 1
REMARK VINA RESULT:    -7.866      0.000      0.000
REMARK INTER + INTRA:         -16.787
REMARK INTER:                 -11.446
REMARK INTRA:                  -5.341
REMARK CONF_INDEPENDENT:        3.580
REMARK UNBOUND:                -5.341
REMARK  12 active torsions:
REMARK  status: ('A' for Active; 'I' for Inactive)
REMARK    1  A    between atoms: C_2  and  C_3 
REMARK    2  A    between atoms: C_3  and  C_4 
REMARK    3  A    between atoms: C_4  and  N_5 
REMARK       I    between atoms: N_5  and  C_6 
REMARK    4  A    between atoms: C_6  and  C_8 
REMARK    5  A    between atoms: C_8  and  C_9 
REMARK    6  A    between atoms: C_8  and  N_22 
REMARK    7  A    between atoms: C_9  and  C_10 
REMARK    8  A    between atoms: C_9  and  C_16 
REMARK       I    between atoms: N_22  and  C_23 
REMARK    9  A    between atoms: N_22  and  C_33 
REMARK   10  A    between atoms: C_23  and  C_25 
REMARK   11  A    between atoms: C_26  and  O_27 
REMARK   12  A    between atoms: C_31  and  O_32 
ROOT
ATOM      1  C   UNL d   1      28.695 -16.295  -1.826  0.00  0.00     0.187 C 
ENDROOT
BRANCH   1   2
ATOM      2  C   UNL d   1      29.693 -15.373  -0.937  0.00  0.00     0.221 C 
ATOM      3  N   UNL d   1      30.384 -16.001   0.113  0.00  0.00    -0.261 NA
ATOM      4  H   UNL d   1      29.710 -16.079   0.848  0.00  0.00     0.130 HD
ATOM      5  O   UNL d   1      29.737 -14.175  -1.055  0.00  0.00    -0.278 OA
BRANCH   3   6
ATOM      6  C   UNL d   1      31.494 -15.391   0.816  0.00  0.00     0.095 C 
BRANCH   6   7
ATOM      7  C   UNL d   1      31.034 -14.303   1.772  0.00  0.00     0.014 C 
BRANCH   7   8
ATOM      8  C   UNL d   1      31.171 -14.825   3.194  0.00  0.00    -0.003 C 
ATOM      9  C   UNL d   1      30.341 -13.987   4.138  0.00  0.00     0.005 C 
ENDBRANCH   7   8
ENDBRANCH   6   7
ENDBRANCH   3   6
ENDBRANCH   1   2
BRANCH   1  10
ATOM     10  C   UNL d   1      27.302 -15.631  -1.374  0.00  0.00     0.083 C 
BRANCH  10  11
ATOM     11  C   UNL d   1      26.074 -16.464  -1.079  0.00  0.00    -0.047 C 
ATOM     12  C   UNL d   1      26.186 -17.737  -0.469  0.00  0.00     0.008 C 
ATOM     13  C   UNL d   1      25.036 -18.440  -0.145  0.00  0.00     0.001 C 
ATOM     14  C   UNL d   1      23.796 -17.811  -0.262  0.00  0.00     0.000 C 
ATOM     15  C   UNL d   1      23.693 -16.547  -0.838  0.00  0.00     0.001 C 
ATOM     16  C   UNL d   1      24.819 -15.950  -1.373  0.00  0.00     0.008 C 
ENDBRANCH  10  11
BRANCH  10  17
ATOM     17  C   UNL d   1      27.376 -14.884  -0.046  0.00  0.00    -0.047 C 
ATOM     18  C   UNL d   1      27.598 -15.553   1.165  0.00  0.00     0.008 C 
ATOM     19  C   UNL d   1      27.780 -14.825   2.320  0.00  0.00     0.001 C 
ATOM     20  C   UNL d   1      27.380 -13.498   2.341  0.00  0.00     0.000 C 
ATOM     21  C   UNL d   1      26.864 -12.898   1.198  0.00  0.00     0.001 C 
ATOM     22  C   UNL d   1      26.975 -13.545  -0.013  0.00  0.00     0.008 C 
ENDBRANCH  10  17
ENDBRANCH   1  10
BRANCH   1  23
ATOM     23  N   UNL d   1      29.021 -16.324  -3.367  0.00  0.00    -0.326 N 
ATOM     24  C   UNL d   1      28.334 -15.488  -4.298  0.00  0.00     0.260 C 
ATOM     25  O   UNL d   1      28.447 -15.575  -5.523  0.00  0.00    -0.267 OA
BRANCH  24  26
ATOM     26  C   UNL d   1      27.259 -14.555  -3.964  0.00  0.00     0.098 C 
ATOM     27  C   UNL d   1      27.635 -13.308  -3.412  0.00  0.00     0.084 C 
ATOM     28  C   UNL d   1      26.691 -12.311  -3.210  0.00  0.00     0.038 C 
ATOM     29  C   UNL d   1      25.377 -12.529  -3.606  0.00  0.00     0.005 C 
ATOM     30  C   UNL d   1      24.978 -13.792  -4.054  0.00  0.00     0.038 C 
ATOM     31  C   UNL d   1      25.915 -14.808  -4.242  0.00  0.00     0.084 C 
BRANCH  27  32
ATOM     32  O   UNL d   1      28.937 -12.932  -3.184  0.00  0.00    -0.360 OA
ATOM     33  H   UNL d   1      29.213 -13.285  -2.316  0.00  0.00     0.217 HD
ENDBRANCH  27  32
BRANCH  31  34
ATOM     34  O   UNL d   1      25.530 -15.950  -4.899  0.00  0.00    -0.360 OA
ATOM     35  H   UNL d   1      26.294 -16.253  -5.425  0.00  0.00     0.217 HD
ENDBRANCH  31  34
ENDBRANCH  24  26
BRANCH  23  36
ATOM     36  C   UNL d   1      30.281 -17.043  -3.927  0.00  0.00     0.025 C 
ATOM     37  C   UNL d   1      31.270 -16.083  -4.657  0.00  0.00     0.037 C 
ATOM     38  C   UNL d   1      30.865 -18.024  -2.906  0.00  0.00     0.037 C 
ATOM     39  C   UNL d   1      30.031 -18.111  -5.020  0.00  0.00     0.037 C 
ENDBRANCH  23  36
ENDBRANCH   1  23
TORSDOF 12
ENDMDL
MODEL 2
REMARK VINA RESULT:    -7.756      1.898      5.053
REMARK INTER + INTRA:         -17.131
REMARK INTER:                 -11.336
REMARK INTRA:                  -5.795
REMARK CONF_INDEPENDENT:        3.580
REMARK UNBOUND:                -5.795
REMARK  12 active torsions:
REMARK  status: ('A' for Active; 'I' for Inactive)
REMARK    1  A    between atoms: C_2  and  C_3 
REMARK    2  A    between atoms: C_3  and  C_4 
REMARK    3  A    between atoms: C_4  and  N_5 
REMARK       I    between atoms: N_5  and  C_6 
REMARK    4  A    between atoms: C_6  and  C_8 
REMARK    5  A    between atoms: C_8  and  C_9 
REMARK    6  A    between atoms: C_8  and  N_22 
REMARK    7  A    between atoms: C_9  and  C_10 
REMARK    8  A    between atoms: C_9  and  C_16 
REMARK       I    between atoms: N_22  and  C_23 
REMARK    9  A    between atoms: N_22  and  C_33 
REMARK   10  A    between atoms: C_23  and  C_25 
REMARK   11  A    between atoms: C_26  and  O_27 
REMARK   12  A    between atoms: C_31  and  O_32 
ROOT
ATOM      1  C   UNL d   1      28.243 -15.100  -0.262  0.00  0.00     0.187 C 
ENDROOT
BRANCH   1   2
ATOM      2  C   UNL d   1      28.101 -14.556   1.261  0.00  0.00     0.221 C 
ATOM      3  N   UNL d   1      29.279 -14.450   2.019  0.00  0.00    -0.261 NA
ATOM      4  H   UNL d   1      29.476 -15.386   2.313  0.00  0.00     0.130 HD
ATOM      5  O   UNL d   1      27.030 -14.392   1.788  0.00  0.00    -0.278 OA
BRANCH   3   6
ATOM      6  C   UNL d   1      29.357 -13.740   3.280  0.00  0.00     0.095 C 
BRANCH   6   7
ATOM      7  C   UNL d   1      29.785 -14.650   4.420  0.00  0.00     0.014 C 
BRANCH   7   8
ATOM      8  C   UNL d   1      28.591 -14.867   5.336  0.00  0.00    -0.003 C 
ATOM      9  C   UNL d   1      27.405 -14.074   4.840  0.00  0.00     0.005 C 
ENDBRANCH   7   8
ENDBRANCH   6   7
ENDBRANCH   3   6
ENDBRANCH   1   2
BRANCH   1  10
ATOM     10  C   UNL d   1      26.697 -14.989  -0.693  0.00  0.00     0.083 C 
BRANCH  10  11
ATOM     11  C   UNL d   1      26.279 -14.745  -2.125  0.00  0.00    -0.047 C 
ATOM     12  C   UNL d   1      25.442 -13.655  -2.465  0.00  0.00     0.008 C 
ATOM     13  C   UNL d   1      25.138 -13.419  -3.797  0.00  0.00     0.001 C 
ATOM     14  C   UNL d   1      25.801 -14.145  -4.787  0.00  0.00     0.000 C 
ATOM     15  C   UNL d   1      26.645 -15.200  -4.448  0.00  0.00     0.001 C 
ATOM     16  C   UNL d   1      26.760 -15.581  -3.124  0.00  0.00     0.008 C 
ENDBRANCH  10  11
BRANCH  10  17
ATOM     17  C   UNL d   1      25.896 -16.265  -0.451  0.00  0.00    -0.047 C 
ATOM     18  C   UNL d   1      26.519 -17.470  -0.098  0.00  0.00     0.008 C 
ATOM     19  C   UNL d   1      25.746 -18.563   0.230  0.00  0.00     0.001 C 
ATOM     20  C   UNL d   1      24.412 -18.572  -0.146  0.00  0.00     0.000 C 
ATOM     21  C   UNL d   1      23.851 -17.472  -0.784  0.00  0.00     0.001 C 
ATOM     22  C   UNL d   1      24.550 -16.287  -0.827  0.00  0.00     0.008 C 
ENDBRANCH  10  17
ENDBRANCH   1  10
BRANCH   1  23
ATOM     23  N   UNL d   1      29.300 -14.331  -1.141  0.00  0.00    -0.326 N 
ATOM     24  C   UNL d   1      30.444 -14.987  -1.688  0.00  0.00     0.260 C 
ATOM     25  O   UNL d   1      31.372 -14.405  -2.255  0.00  0.00    -0.267 OA
BRANCH  24  26
ATOM     26  C   UNL d   1      30.789 -16.393  -1.488  0.00  0.00     0.098 C 
ATOM     27  C   UNL d   1      30.962 -17.186  -2.646  0.00  0.00     0.084 C 
ATOM     28  C   UNL d   1      31.437 -18.487  -2.548  0.00  0.00     0.038 C 
ATOM     29  C   UNL d   1      31.795 -18.987  -1.303  0.00  0.00     0.005 C 
ATOM     30  C   UNL d   1      31.530 -18.249  -0.145  0.00  0.00     0.038 C 
ATOM     31  C   UNL d   1      31.033 -16.948  -0.231  0.00  0.00     0.084 C 
BRANCH  27  32
ATOM     32  O   UNL d   1      30.831 -16.709  -3.928  0.00  0.00    -0.360 OA
ATOM     33  H   UNL d   1      30.977 -15.743  -3.914  0.00  0.00     0.217 HD
ENDBRANCH  27  32
BRANCH  31  34
ATOM     34  O   UNL d   1      31.005 -16.175   0.903  0.00  0.00    -0.360 OA
ATOM     35  H   UNL d   1      30.151 -16.340   1.345  0.00  0.00     0.217 HD
ENDBRANCH  31  34
ENDBRANCH  24  26
BRANCH  23  36
ATOM     36  C   UNL d   1      29.026 -12.904  -1.694  0.00  0.00     0.025 C 
ATOM     37  C   UNL d   1      28.844 -12.864  -3.243  0.00  0.00     0.037 C 
ATOM     38  C   UNL d   1      27.998 -12.160  -0.839  0.00  0.00     0.037 C 
ATOM     39  C   UNL d   1      30.155 -11.863  -1.493  0.00  0.00     0.037 C 
ENDBRANCH  23  36
ENDBRANCH   1  23
TORSDOF 12
ENDMDL
MODEL 3
REMARK VINA RESULT:    -7.646      1.828      4.888
REMARK INTER + INTRA:         -17.042
REMARK INTER:                 -11.226
REMARK INTRA:                  -5.816
REMARK CONF_INDEPENDENT:        3.580
REMARK UNBOUND:                -5.816
REMARK  12 active torsions:
REMARK  status: ('A' for Active; 'I' for Inactive)
REMARK    1  A    between atoms: C_2  and  C_3 
REMARK    2  A    between atoms: C_3  and  C_4 
REMARK    3  A    between atoms: C_4  and  N_5 
REMARK       I    between atoms: N_5  and  C_6 
REMARK    4  A    between atoms: C_6  and  C_8 
REMARK    5  A    between atoms: C_8  and  C_9 
REMARK    6  A    between atoms: C_8  and  N_22 
REMARK    7  A    between atoms: C_9  and  C_10 
REMARK    8  A    between atoms: C_9  and  C_16 
REMARK       I    between atoms: N_22  and  C_23 
REMARK    9  A    between atoms: N_22  and  C_33 
REMARK   10  A    between atoms: C_23  and  C_25 
REMARK   11  A    between atoms: C_26  and  O_27 
REMARK   12  A    between atoms: C_31  and  O_32 
ROOT
ATOM      1  C   UNL d   1      28.310 -15.009  -0.335  0.00  0.00     0.187 C 
ENDROOT
BRANCH   1   2
ATOM      2  C   UNL d   1      28.117 -14.566   1.215  0.00  0.00     0.221 C 
ATOM      3  N   UNL d   1      29.274 -14.481   2.008  0.00  0.00    -0.261 NA
ATOM      4  H   UNL d   1      29.487 -15.428   2.248  0.00  0.00     0.130 HD
ATOM      5  O   UNL d   1      27.030 -14.460   1.723  0.00  0.00    -0.278 OA
BRANCH   3   6
ATOM      6  C   UNL d   1      29.304 -13.850   3.312  0.00  0.00     0.095 C 
BRANCH   6   7
ATOM      7  C   UNL d   1      29.710 -14.824   4.406  0.00  0.00     0.014 C 
BRANCH   7   8
ATOM      8  C   UNL d   1      28.632 -14.818   5.479  0.00  0.00    -0.003 C 
ATOM      9  C   UNL d   1      27.404 -14.097   4.978  0.00  0.00     0.005 C 
ENDBRANCH   7   8
ENDBRANCH   6   7
ENDBRANCH   3   6
ENDBRANCH   1   2
BRANCH   1  10
ATOM     10  C   UNL d   1      26.766 -14.959  -0.784  0.00  0.00     0.083 C 
BRANCH  10  11
ATOM     11  C   UNL d   1      26.356 -14.786  -2.229  0.00  0.00    -0.047 C 
ATOM     12  C   UNL d   1      25.399 -13.812  -2.604  0.00  0.00     0.008 C 
ATOM     13  C   UNL d   1      25.101 -13.631  -3.946  0.00  0.00     0.001 C 
ATOM     14  C   UNL d   1      25.873 -14.282  -4.909  0.00  0.00     0.000 C 
ATOM     15  C   UNL d   1      26.832 -15.220  -4.535  0.00  0.00     0.001 C 
ATOM     16  C   UNL d   1      26.960 -15.568  -3.204  0.00  0.00     0.008 C 
ENDBRANCH  10  11
BRANCH  10  17
ATOM     17  C   UNL d   1      25.997 -16.245  -0.497  0.00  0.00    -0.047 C 
ATOM     18  C   UNL d   1      26.653 -17.431  -0.139  0.00  0.00     0.008 C 
ATOM     19  C   UNL d   1      25.912 -18.532   0.230  0.00  0.00     0.001 C 
ATOM     20  C   UNL d   1      24.568 -18.575  -0.108  0.00  0.00     0.000 C 
ATOM     21  C   UNL d   1      23.968 -17.498  -0.750  0.00  0.00     0.001 C 
ATOM     22  C   UNL d   1      24.642 -16.300  -0.834  0.00  0.00     0.008 C 
ENDBRANCH  10  17
ENDBRANCH   1  10
BRANCH   1  23
ATOM     23  N   UNL d   1      29.334 -14.132  -1.150  0.00  0.00    -0.326 N 
ATOM     24  C   UNL d   1      30.446 -14.712  -1.831  0.00  0.00     0.260 C 
ATOM     25  O   UNL d   1      31.353 -14.061  -2.356  0.00  0.00    -0.267 OA
BRANCH  24  26
ATOM     26  C   UNL d   1      30.787 -16.133  -1.838  0.00  0.00     0.098 C 
ATOM     27  C   UNL d   1      30.952 -16.762  -0.582  0.00  0.00     0.084 C 
ATOM     28  C   UNL d   1      31.125 -18.137  -0.497  0.00  0.00     0.038 C 
ATOM     29  C   UNL d   1      31.080 -18.900  -1.657  0.00  0.00     0.005 C 
ATOM     30  C   UNL d   1      31.022 -18.277  -2.907  0.00  0.00     0.038 C 
ATOM     31  C   UNL d   1      30.868 -16.893  -3.005  0.00  0.00     0.084 C 
BRANCH  27  32
ATOM     32  O   UNL d   1      30.804 -16.119   0.624  0.00  0.00    -0.360 OA
ATOM     33  H   UNL d   1      29.920 -16.331   0.980  0.00  0.00     0.217 HD
ENDBRANCH  27  32
BRANCH  31  34
ATOM     34  O   UNL d   1      30.581 -16.345  -4.229  0.00  0.00    -0.360 OA
ATOM     35  H   UNL d   1      30.735 -15.383  -4.159  0.00  0.00     0.217 HD
ENDBRANCH  31  34
ENDBRANCH  24  26
BRANCH  23  36
ATOM     36  C   UNL d   1      29.048 -12.643  -1.493  0.00  0.00     0.025 C 
ATOM     37  C   UNL d   1      30.121 -11.660  -0.932  0.00  0.00     0.037 C 
ATOM     38  C   UNL d   1      28.628 -12.477  -2.956  0.00  0.00     0.037 C 
ATOM     39  C   UNL d   1      27.747 -12.042  -0.906  0.00  0.00     0.037 C 
ENDBRANCH  23  36
ENDBRANCH   1  23
TORSDOF 12
ENDMDL
MODEL 4
REMARK VINA RESULT:    -7.001      1.860      4.111
REMARK INTER + INTRA:         -16.359
REMARK INTER:                 -10.581
REMARK INTRA:                  -5.778
REMARK CONF_INDEPENDENT:        3.580
REMARK UNBOUND:                -5.778
REMARK  12 active torsions:
REMARK  status: ('A' for Active; 'I' for Inactive)
REMARK    1  A    between atoms: C_2  and  C_3 
REMARK    2  A    between atoms: C_3  and  C_4 
REMARK    3  A    between atoms: C_4  and  N_5 
REMARK       I    between atoms: N_5  and  C_6 
REMARK    4  A    between atoms: C_6  and  C_8 
REMARK    5  A    between atoms: C_8  and  C_9 
REMARK    6  A    between atoms: C_8  and  N_22 
REMARK    7  A    between atoms: C_9  and  C_10 
REMARK    8  A    between atoms: C_9  and  C_16 
REMARK       I    between atoms: N_22  and  C_23 
REMARK    9  A    between atoms: N_22  and  C_33 
REMARK   10  A    between atoms: C_23  and  C_25 
REMARK   11  A    between atoms: C_26  and  O_27 
REMARK   12  A    between atoms: C_31  and  O_32 
ROOT
ATOM      1  C   UNL d   1      27.702 -15.462  -0.022  0.00  0.00     0.187 C 
ENDROOT
BRANCH   1   2
ATOM      2  C   UNL d   1      27.427 -14.582   1.314  0.00  0.00     0.221 C 
ATOM      3  N   UNL d   1      28.193 -14.886   2.453  0.00  0.00    -0.261 NA
ATOM      4  H   UNL d   1      27.764 -15.704   2.836  0.00  0.00     0.130 HD
ATOM      5  O   UNL d   1      26.510 -13.806   1.396  0.00  0.00    -0.278 OA
BRANCH   3   6
ATOM      6  C   UNL d   1      28.259 -14.032   3.622  0.00  0.00     0.095 C 
BRANCH   6   7
ATOM      7  C   UNL d   1      28.152 -14.826   4.913  0.00  0.00     0.014 C 
BRANCH   7   8
ATOM      8  C   UNL d   1      28.496 -13.906   6.074  0.00  0.00    -0.003 C 
ATOM      9  C   UNL d   1      27.890 -12.541   5.852  0.00  0.00     0.005 C 
ENDBRANCH   7   8
ENDBRANCH   6   7
ENDBRANCH   3   6
ENDBRANCH   1   2
BRANCH   1  10
ATOM     10  C   UNL d   1      26.318 -15.163  -0.785  0.00  0.00     0.083 C 
BRANCH  10  11
ATOM     11  C   UNL d   1      26.261 -14.915  -2.276  0.00  0.00    -0.047 C 
ATOM     12  C   UNL d   1      27.155 -15.567  -3.159  0.00  0.00     0.008 C 
ATOM     13  C   UNL d   1      27.025 -15.373  -4.525  0.00  0.00     0.001 C 
ATOM     14  C   UNL d   1      25.914 -14.685  -5.014  0.00  0.00     0.000 C 
ATOM     15  C   UNL d   1      25.022 -14.067  -4.142  0.00  0.00     0.001 C 
ATOM     16  C   UNL d   1      25.287 -14.066  -2.785  0.00  0.00     0.008 C 
ENDBRANCH  10  11
BRANCH  10  17
ATOM     17  C   UNL d   1      25.317 -16.313  -0.722  0.00  0.00    -0.047 C 
ATOM     18  C   UNL d   1      23.937 -16.094  -0.834  0.00  0.00     0.008 C 
ATOM     19  C   UNL d   1      23.082 -17.173  -0.895  0.00  0.00     0.001 C 
ATOM     20  C   UNL d   1      23.542 -18.413  -0.479  0.00  0.00     0.000 C 
ATOM     21  C   UNL d   1      24.861 -18.575  -0.069  0.00  0.00     0.001 C 
ATOM     22  C   UNL d   1      25.770 -17.567  -0.304  0.00  0.00     0.008 C 
ENDBRANCH  10  17
ENDBRANCH   1  10
BRANCH   1  23
ATOM     23  N   UNL d   1      29.040 -15.114  -0.778  0.00  0.00    -0.326 N 
ATOM     24  C   UNL d   1      29.317 -13.795  -1.248  0.00  0.00     0.260 C 
ATOM     25  O   UNL d   1      30.275 -13.504  -1.969  0.00  0.00    -0.267 OA
BRANCH  24  26
ATOM     26  C   UNL d   1      28.421 -12.647  -1.125  0.00  0.00     0.098 C 
ATOM     27  C   UNL d   1      28.347 -12.020   0.140  0.00  0.00     0.084 C 
ATOM     28  C   UNL d   1      27.640 -10.836   0.302  0.00  0.00     0.038 C 
ATOM     29  C   UNL d   1      27.049 -10.241  -0.805  0.00  0.00     0.005 C 
ATOM     30  C   UNL d   1      27.029 -10.906  -2.035  0.00  0.00     0.038 C 
ATOM     31  C   UNL d   1      27.719 -12.108  -2.203  0.00  0.00     0.084 C 
BRANCH  27  32
ATOM     32  O   UNL d   1      29.068 -12.423   1.239  0.00  0.00    -0.360 OA
ATOM     33  H   UNL d   1      28.449 -12.811   1.888  0.00  0.00     0.217 HD
ENDBRANCH  27  32
BRANCH  31  34
ATOM     34  O   UNL d   1      27.873 -12.609  -3.471  0.00  0.00    -0.360 OA
ATOM     35  H   UNL d   1      28.738 -13.059  -3.502  0.00  0.00     0.217 HD
ENDBRANCH  31  34
ENDBRANCH  24  26
BRANCH  23  36
ATOM     36  C   UNL d   1      30.244 -16.097  -0.810  0.00  0.00     0.025 C 
ATOM     37  C   UNL d   1      31.473 -15.600   0.013  0.00  0.00     0.037 C 
ATOM     38  C   UNL d   1      29.790 -17.545  -0.607  0.00  0.00     0.037 C 
ATOM     39  C   UNL d   1      30.887 -16.346  -2.197  0.00  0.00     0.037 C 
ENDBRANCH  23  36
ENDBRANCH   1  23
TORSDOF 12
ENDMDL
MODEL 5
REMARK VINA RESULT:    -6.719      1.353      1.981
REMARK INTER + INTRA:         -16.463
REMARK INTER:                 -10.298
REMARK INTRA:                  -6.165
REMARK CONF_INDEPENDENT:        3.580
REMARK UNBOUND:                -6.165
REMARK  12 active torsions:
REMARK  status: ('A' for Active; 'I' for Inactive)
REMARK    1  A    between atoms: C_2  and  C_3 
REMARK    2  A    between atoms: C_3  and  C_4 
REMARK    3  A    between atoms: C_4  and  N_5 
REMARK       I    between atoms: N_5  and  C_6 
REMARK    4  A    between atoms: C_6  and  C_8 
REMARK    5  A    between atoms: C_8  and  C_9 
REMARK    6  A    between atoms: C_8  and  N_22 
REMARK    7  A    between atoms: C_9  and  C_10 
REMARK    8  A    between atoms: C_9  and  C_16 
REMARK       I    between atoms: N_22  and  C_23 
REMARK    9  A    between atoms: N_22  and  C_33 
REMARK   10  A    between atoms: C_23  and  C_25 
REMARK   11  A    between atoms: C_26  and  O_27 
REMARK   12  A    between atoms: C_31  and  O_32 
ROOT
ATOM      1  C   UNL d   1      28.684 -16.109  -1.958  0.00  0.00     0.187 C 
ENDROOT
BRANCH   1   2
ATOM      2  C   UNL d   1      29.641 -15.129  -1.087  0.00  0.00     0.221 C 
ATOM      3  N   UNL d   1      29.633 -13.763  -1.417  0.00  0.00    -0.261 NA
ATOM      4  H   UNL d   1      30.211 -13.695  -2.230  0.00  0.00     0.130 HD
ATOM      5  O   UNL d   1      30.443 -15.551  -0.294  0.00  0.00    -0.278 OA
BRANCH   3   6
ATOM      6  C   UNL d   1      30.213 -12.735  -0.577  0.00  0.00     0.095 C 
BRANCH   6   7
ATOM      7  C   UNL d   1      30.606 -11.502  -1.375  0.00  0.00     0.014 C 
BRANCH   7   8
ATOM      8  C   UNL d   1      29.819 -10.315  -0.844  0.00  0.00    -0.003 C 
ATOM      9  C   UNL d   1      28.353 -10.475  -1.170  0.00  0.00     0.005 C 
ENDBRANCH   7   8
ENDBRANCH   6   7
ENDBRANCH   3   6
ENDBRANCH   1   2
BRANCH   1  10
ATOM     10  C   UNL d   1      27.263 -15.503  -1.512  0.00  0.00     0.083 C 
BRANCH  10  11
ATOM     11  C   UNL d   1      26.082 -16.387  -1.180  0.00  0.00    -0.047 C 
ATOM     12  C   UNL d   1      26.261 -17.625  -0.516  0.00  0.00     0.008 C 
ATOM     13  C   UNL d   1      25.150 -18.374  -0.162  0.00  0.00     0.001 C 
ATOM     14  C   UNL d   1      23.878 -17.818  -0.304  0.00  0.00     0.000 C 
ATOM     15  C   UNL d   1      23.708 -16.587  -0.934  0.00  0.00     0.001 C 
ATOM     16  C   UNL d   1      24.801 -15.954  -1.495  0.00  0.00     0.008 C 
ENDBRANCH  10  11
BRANCH  10  17
ATOM     17  C   UNL d   1      27.311 -14.714  -0.207  0.00  0.00    -0.047 C 
ATOM     18  C   UNL d   1      27.632 -15.325   1.013  0.00  0.00     0.008 C 
ATOM     19  C   UNL d   1      27.784 -14.550   2.141  0.00  0.00     0.001 C 
ATOM     20  C   UNL d   1      27.264 -13.265   2.142  0.00  0.00     0.000 C 
ATOM     21  C   UNL d   1      26.659 -12.748   1.002  0.00  0.00     0.001 C 
ATOM     22  C   UNL d   1      26.790 -13.417  -0.194  0.00  0.00     0.008 C 
ENDBRANCH  10  17
ENDBRANCH   1  10
BRANCH   1  23
ATOM     23  N   UNL d   1      29.008 -16.147  -3.500  0.00  0.00    -0.326 N 
ATOM     24  C   UNL d   1      28.277 -15.360  -4.441  0.00  0.00     0.260 C 
ATOM     25  O   UNL d   1      28.391 -15.462  -5.665  0.00  0.00    -0.267 OA
BRANCH  24  26
ATOM     26  C   UNL d   1      27.159 -14.476  -4.118  0.00  0.00     0.098 C 
ATOM     27  C   UNL d   1      27.476 -13.179  -3.653  0.00  0.00     0.084 C 
ATOM     28  C   UNL d   1      26.480 -12.230  -3.470  0.00  0.00     0.038 C 
ATOM     29  C   UNL d   1      25.169 -12.549  -3.802  0.00  0.00     0.005 C 
ATOM     30  C   UNL d   1      24.833 -13.858  -4.162  0.00  0.00     0.038 C 
ATOM     31  C   UNL d   1      25.825 -14.825  -4.328  0.00  0.00     0.084 C 
BRANCH  27  32
ATOM     32  O   UNL d   1      28.760 -12.712  -3.498  0.00  0.00    -0.360 OA
ATOM     33  H   UNL d   1      28.860 -12.383  -2.584  0.00  0.00     0.217 HD
ENDBRANCH  27  32
BRANCH  31  34
ATOM     34  O   UNL d   1      25.488 -16.025  -4.904  0.00  0.00    -0.360 OA
ATOM     35  H   UNL d   1      26.245 -16.306  -5.452  0.00  0.00     0.217 HD
ENDBRANCH  31  34
ENDBRANCH  24  26
BRANCH  23  36
ATOM     36  C   UNL d   1      30.299 -16.813  -4.052  0.00  0.00     0.025 C 
ATOM     37  C   UNL d   1      30.028 -17.838  -5.196  0.00  0.00     0.037 C 
ATOM     38  C   UNL d   1      31.411 -15.783  -4.269  0.00  0.00     0.037 C 
ATOM     39  C   UNL d   1      31.104 -17.678  -3.052  0.00  0.00     0.037 C 
ENDBRANCH  23  36
ENDBRANCH   1  23
TORSDOF 12
ENDMDL
MODEL 6
REMARK VINA RESULT:    -6.377      1.487      2.322
REMARK INTER + INTRA:         -16.732
REMARK INTER:                  -9.957
REMARK INTRA:                  -6.775
REMARK CONF_INDEPENDENT:        3.580
REMARK UNBOUND:                -6.775
REMARK  12 active torsions:
REMARK  status: ('A' for Active; 'I' for Inactive)
REMARK    1  A    between atoms: C_2  and  C_3 
REMARK    2  A    between atoms: C_3  and  C_4 
REMARK    3  A    between atoms: C_4  and  N_5 
REMARK       I    between atoms: N_5  and  C_6 
REMARK    4  A    between atoms: C_6  and  C_8 
REMARK    5  A    between atoms: C_8  and  C_9 
REMARK    6  A    between atoms: C_8  and  N_22 
REMARK    7  A    between atoms: C_9  and  C_10 
REMARK    8  A    between atoms: C_9  and  C_16 
REMARK       I    between atoms: N_22  and  C_23 
REMARK    9  A    between atoms: N_22  and  C_33 
REMARK   10  A    between atoms: C_23  and  C_25 
REMARK   11  A    between atoms: C_26  and  O_27 
REMARK   12  A    between atoms: C_31  and  O_32 
ROOT
ATOM      1  C   UNL d   1      29.045 -15.023  -1.629  0.00  0.00     0.187 C 
ENDROOT
BRANCH   1   2
ATOM      2  C   UNL d   1      29.546 -13.481  -1.536  0.00  0.00     0.221 C 
ATOM      3  N   UNL d   1      28.567 -12.500  -1.301  0.00  0.00    -0.261 NA
ATOM      4  H   UNL d   1      28.129 -12.362  -2.189  0.00  0.00     0.130 HD
ATOM      5  O   UNL d   1      30.673 -13.154  -1.806  0.00  0.00    -0.278 OA
BRANCH   3   6
ATOM      6  C   UNL d   1      28.878 -11.135  -0.929  0.00  0.00     0.095 C 
BRANCH   6   7
ATOM      7  C   UNL d   1      27.675 -10.417  -0.339  0.00  0.00     0.014 C 
BRANCH   7   8
ATOM      8  C   UNL d   1      27.900 -10.251   1.155  0.00  0.00    -0.003 C 
ATOM      9  C   UNL d   1      26.677  -9.645   1.801  0.00  0.00     0.005 C 
ENDBRANCH   7   8
ENDBRANCH   6   7
ENDBRANCH   3   6
ENDBRANCH   1   2
BRANCH   1  10
ATOM     10  C   UNL d   1      27.561 -14.820  -1.042  0.00  0.00     0.083 C 
BRANCH  10  11
ATOM     11  C   UNL d   1      26.570 -15.959  -0.954  0.00  0.00    -0.047 C 
ATOM     12  C   UNL d   1      26.946 -17.213  -0.415  0.00  0.00     0.008 C 
ATOM     13  C   UNL d   1      25.992 -18.210  -0.281  0.00  0.00     0.001 C 
ATOM     14  C   UNL d   1      24.651 -17.906  -0.513  0.00  0.00     0.000 C 
ATOM     15  C   UNL d   1      24.282 -16.662  -1.018  0.00  0.00     0.001 C 
ATOM     16  C   UNL d   1      25.262 -15.753  -1.371  0.00  0.00     0.008 C 
ENDBRANCH  10  11
BRANCH  10  17
ATOM     17  C   UNL d   1      27.529 -14.397   0.423  0.00  0.00    -0.047 C 
ATOM     18  C   UNL d   1      26.650 -13.408   0.885  0.00  0.00     0.008 C 
ATOM     19  C   UNL d   1      26.571 -13.147   2.236  0.00  0.00     0.001 C 
ATOM     20  C   UNL d   1      27.597 -13.582   3.060  0.00  0.00     0.000 C 
ATOM     21  C   UNL d   1      28.652 -14.323   2.541  0.00  0.00     0.001 C 
ATOM     22  C   UNL d   1      28.559 -14.829   1.263  0.00  0.00     0.008 C 
ENDBRANCH  10  17
ENDBRANCH   1  10
BRANCH   1  23
ATOM     23  N   UNL d   1      29.180 -15.675  -3.056  0.00  0.00    -0.326 N 
ATOM     24  C   UNL d   1      28.381 -15.246  -4.159  0.00  0.00     0.260 C 
ATOM     25  O   UNL d   1      28.344 -15.817  -5.251  0.00  0.00    -0.267 OA
BRANCH  24  26
ATOM     26  C   UNL d   1      27.353 -14.208  -4.105  0.00  0.00     0.098 C 
ATOM     27  C   UNL d   1      27.792 -12.864  -4.107  0.00  0.00     0.084 C 
ATOM     28  C   UNL d   1      26.880 -11.823  -4.212  0.00  0.00     0.038 C 
ATOM     29  C   UNL d   1      25.531 -12.114  -4.370  0.00  0.00     0.005 C 
ATOM     30  C   UNL d   1      25.079 -13.433  -4.265  0.00  0.00     0.038 C 
ATOM     31  C   UNL d   1      25.986 -14.487  -4.139  0.00  0.00     0.084 C 
BRANCH  27  32
ATOM     32  O   UNL d   1      29.113 -12.489  -4.163  0.00  0.00    -0.360 OA
ATOM     33  H   UNL d   1      29.381 -12.172  -3.278  0.00  0.00     0.217 HD
ENDBRANCH  27  32
BRANCH  31  34
ATOM     34  O   UNL d   1      25.528 -15.773  -4.273  0.00  0.00    -0.360 OA
ATOM     35  H   UNL d   1      26.237 -16.290  -4.700  0.00  0.00     0.217 HD
ENDBRANCH  31  34
ENDBRANCH  24  26
BRANCH  23  36
ATOM     36  C   UNL d   1      30.364 -16.614  -3.421  0.00  0.00     0.025 C 
ATOM     37  C   UNL d   1      31.478 -15.913  -4.258  0.00  0.00     0.037 C 
ATOM     38  C   UNL d   1      30.802 -17.455  -2.219  0.00  0.00     0.037 C 
ATOM     39  C   UNL d   1      30.024 -17.827  -4.323  0.00  0.00     0.037 C 
ENDBRANCH  23  36
ENDBRANCH   1  23
TORSDOF 12
ENDMDL
MODEL 7
REMARK VINA RESULT:    -6.330      1.411      4.725
REMARK INTER + INTRA:         -15.575
REMARK INTER:                  -9.910
REMARK INTRA:                  -5.665
REMARK CONF_INDEPENDENT:        3.580
REMARK UNBOUND:                -5.665
REMARK  12 active torsions:
REMARK  status: ('A' for Active; 'I' for Inactive)
REMARK    1  A    between atoms: C_2  and  C_3 
REMARK    2  A    between atoms: C_3  and  C_4 
REMARK    3  A    between atoms: C_4  and  N_5 
REMARK       I    between atoms: N_5  and  C_6 
REMARK    4  A    between atoms: C_6  and  C_8 
REMARK    5  A    between atoms: C_8  and  C_9 
REMARK    6  A    between atoms: C_8  and  N_22 
REMARK    7  A    between atoms: C_9  and  C_10 
REMARK    8  A    between atoms: C_9  and  C_16 
REMARK       I    between atoms: N_22  and  C_23 
REMARK    9  A    between atoms: N_22  and  C_33 
REMARK   10  A    between atoms: C_23  and  C_25 
REMARK   11  A    between atoms: C_26  and  O_27 
REMARK   12  A    between atoms: C_31  and  O_32 
ROOT
ATOM      1  C   UNL d   1      28.379 -15.759  -1.554  0.00  0.00     0.187 C 
ENDROOT
BRANCH   1   2
ATOM      2  C   UNL d   1      29.324 -17.074  -1.682  0.00  0.00     0.221 C 
ATOM      3  N   UNL d   1      30.081 -17.209  -2.858  0.00  0.00    -0.261 NA
ATOM      4  H   UNL d   1      29.430 -17.542  -3.541  0.00  0.00     0.130 HD
ATOM      5  O   UNL d   1      29.276 -17.979  -0.890  0.00  0.00    -0.278 OA
BRANCH   3   6
ATOM      6  C   UNL d   1      31.157 -18.167  -3.010  0.00  0.00     0.095 C 
BRANCH   6   7
ATOM      7  C   UNL d   1      31.613 -18.288  -4.454  0.00  0.00     0.014 C 
BRANCH   7   8
ATOM      8  C   UNL d   1      30.405 -18.633  -5.312  0.00  0.00    -0.003 C 
ATOM      9  C   UNL d   1      30.779 -19.670  -6.344  0.00  0.00     0.005 C 
ENDBRANCH   7   8
ENDBRANCH   6   7
ENDBRANCH   3   6
ENDBRANCH   1   2
BRANCH   1  10
ATOM     10  C   UNL d   1      27.736 -16.076  -0.114  0.00  0.00     0.083 C 
BRANCH  10  11
ATOM     11  C   UNL d   1      27.435 -14.985   0.888  0.00  0.00    -0.047 C 
ATOM     12  C   UNL d   1      27.969 -15.031   2.199  0.00  0.00     0.008 C 
ATOM     13  C   UNL d   1      27.733 -13.976   3.068  0.00  0.00     0.001 C 
ATOM     14  C   UNL d   1      27.128 -12.816   2.583  0.00  0.00     0.000 C 
ATOM     15  C   UNL d   1      26.628 -12.765   1.285  0.00  0.00     0.001 C 
ATOM     16  C   UNL d   1      26.657 -13.903   0.499  0.00  0.00     0.008 C 
ENDBRANCH  10  11
BRANCH  10  17
ATOM     17  C   UNL d   1      26.341 -16.692  -0.184  0.00  0.00    -0.047 C 
ATOM     18  C   UNL d   1      25.983 -17.794   0.605  0.00  0.00     0.008 C 
ATOM     19  C   UNL d   1      24.678 -18.237   0.599  0.00  0.00     0.001 C 
ATOM     20  C   UNL d   1      23.845 -17.843  -0.437  0.00  0.00     0.000 C 
ATOM     21  C   UNL d   1      24.301 -16.966  -1.414  0.00  0.00     0.001 C 
ATOM     22  C   UNL d   1      25.493 -16.302  -1.224  0.00  0.00     0.008 C 
ENDBRANCH  10  17
ENDBRANCH   1  10
BRANCH   1  23
ATOM     23  N   UNL d   1      29.133 -14.386  -1.728  0.00  0.00    -0.326 N 
ATOM     24  C   UNL d   1      28.618 -13.347  -2.560  0.00  0.00     0.260 C 
ATOM     25  O   UNL d   1      29.237 -12.318  -2.845  0.00  0.00    -0.267 OA
BRANCH  24  26
ATOM     26  C   UNL d   1      27.393 -13.425  -3.353  0.00  0.00     0.098 C 
ATOM     27  C   UNL d   1      27.223 -14.570  -4.166  0.00  0.00     0.084 C 
ATOM     28  C   UNL d   1      26.025 -14.794  -4.830  0.00  0.00     0.038 C 
ATOM     29  C   UNL d   1      24.970 -13.910  -4.645  0.00  0.00     0.005 C 
ATOM     30  C   UNL d   1      25.163 -12.724  -3.928  0.00  0.00     0.038 C 
ATOM     31  C   UNL d   1      26.371 -12.479  -3.274  0.00  0.00     0.084 C 
BRANCH  27  32
ATOM     32  O   UNL d   1      28.133 -15.598  -4.242  0.00  0.00    -0.360 OA
ATOM     33  H   UNL d   1      28.900 -15.373  -3.681  0.00  0.00     0.217 HD
ENDBRANCH  27  32
BRANCH  31  34
ATOM     34  O   UNL d   1      26.445 -11.427  -2.396  0.00  0.00    -0.360 OA
ATOM     35  H   UNL d   1      27.391 -11.264  -2.218  0.00  0.00     0.217 HD
ENDBRANCH  31  34
ENDBRANCH  24  26
BRANCH  23  36
ATOM     36  C   UNL d   1      30.313 -13.975  -0.804  0.00  0.00     0.025 C 
ATOM     37  C   UNL d   1      31.671 -13.834  -1.559  0.00  0.00     0.037 C 
ATOM     38  C   UNL d   1      29.910 -12.847   0.150  0.00  0.00     0.037 C 
ATOM     39  C   UNL d   1      30.689 -14.977   0.315  0.00  0.00     0.037 C 
ENDBRANCH  23  36
ENDBRANCH   1  23
TORSDOF 12
ENDMDL
MODEL 8
REMARK VINA RESULT:    -5.063      2.328      5.791
REMARK INTER + INTRA:         -15.615
REMARK INTER:                  -8.642
REMARK INTRA:                  -6.973
REMARK CONF_INDEPENDENT:        3.580
REMARK UNBOUND:                -6.973
REMARK  12 active torsions:
REMARK  status: ('A' for Active; 'I' for Inactive)
REMARK    1  A    between atoms: C_2  and  C_3 
REMARK    2  A    between atoms: C_3  and  C_4 
REMARK    3  A    between atoms: C_4  and  N_5 
REMARK       I    between atoms: N_5  and  C_6 
REMARK    4  A    between atoms: C_6  and  C_8 
REMARK    5  A    between atoms: C_8  and  C_9 
REMARK    6  A    between atoms: C_8  and  N_22 
REMARK    7  A    between atoms: C_9  and  C_10 
REMARK    8  A    between atoms: C_9  and  C_16 
REMARK       I    between atoms: N_22  and  C_23 
REMARK    9  A    between atoms: N_22  and  C_33 
REMARK   10  A    between atoms: C_23  and  C_25 
REMARK   11  A    between atoms: C_26  and  O_27 
REMARK   12  A    between atoms: C_31  and  O_32 
ROOT
ATOM      1  C   UNL d   1      26.732 -12.682  -3.278  0.00  0.00     0.187 C 
ENDROOT
BRANCH   1   2
ATOM      2  C   UNL d   1      25.832 -14.023  -3.442  0.00  0.00     0.221 C 
ATOM      3  N   UNL d   1      26.313 -15.197  -2.838  0.00  0.00    -0.261 NA
ATOM      4  H   UNL d   1      27.022 -15.530  -3.460  0.00  0.00     0.130 HD
ATOM      5  O   UNL d   1      24.875 -14.070  -4.172  0.00  0.00    -0.278 OA
BRANCH   3   6
ATOM      6  C   UNL d   1      25.512 -16.393  -2.666  0.00  0.00     0.095 C 
BRANCH   6   7
ATOM      7  C   UNL d   1      24.695 -16.351  -1.385  0.00  0.00     0.014 C 
BRANCH   7   8
ATOM      8  C   UNL d   1      24.766 -17.719  -0.725  0.00  0.00    -0.003 C 
ATOM      9  C   UNL d   1      26.009 -17.822   0.126  0.00  0.00     0.005 C 
ENDBRANCH   7   8
ENDBRANCH   6   7
ENDBRANCH   3   6
ENDBRANCH   1   2
BRANCH   1  10
ATOM     10  C   UNL d   1      27.927 -13.310  -2.404  0.00  0.00     0.083 C 
BRANCH  10  11
ATOM     11  C   UNL d   1      29.230 -12.575  -2.180  0.00  0.00    -0.047 C 
ATOM     12  C   UNL d   1      29.335 -11.185  -2.428  0.00  0.00     0.008 C 
ATOM     13  C   UNL d   1      30.522 -10.530  -2.141  0.00  0.00     0.001 C 
ATOM     14  C   UNL d   1      31.527 -11.210  -1.451  0.00  0.00     0.000 C 
ATOM     15  C   UNL d   1      31.408 -12.572  -1.185  0.00  0.00     0.001 C 
ATOM     16  C   UNL d   1      30.323 -13.270  -1.683  0.00  0.00     0.008 C 
ENDBRANCH  10  11
BRANCH  10  17
ATOM     17  C   UNL d   1      27.564 -13.550  -0.942  0.00  0.00    -0.047 C 
ATOM     18  C   UNL d   1      27.099 -12.515  -0.119  0.00  0.00     0.008 C 
ATOM     19  C   UNL d   1      26.667 -12.804   1.156  0.00  0.00     0.001 C 
ATOM     20  C   UNL d   1      27.036 -14.012   1.728  0.00  0.00     0.000 C 
ATOM     21  C   UNL d   1      27.775 -14.939   1.001  0.00  0.00     0.001 C 
ATOM     22  C   UNL d   1      27.932 -14.764  -0.356  0.00  0.00     0.008 C 
ENDBRANCH  10  17
ENDBRANCH   1  10
BRANCH   1  23
ATOM     23  N   UNL d   1      27.114 -11.973  -4.632  0.00  0.00    -0.326 N 
ATOM     24  C   UNL d   1      28.053 -12.547  -5.542  0.00  0.00     0.260 C 
ATOM     25  O   UNL d   1      28.495 -11.968  -6.538  0.00  0.00    -0.267 OA
BRANCH  24  26
ATOM     26  C   UNL d   1      28.778 -13.799  -5.333  0.00  0.00     0.098 C 
ATOM     27  C   UNL d   1      30.137 -13.701  -4.954  0.00  0.00     0.084 C 
ATOM     28  C   UNL d   1      30.852 -14.834  -4.589  0.00  0.00     0.038 C 
ATOM     29  C   UNL d   1      30.204 -16.062  -4.546  0.00  0.00     0.005 C 
ATOM     30  C   UNL d   1      28.893 -16.183  -5.018  0.00  0.00     0.038 C 
ATOM     31  C   UNL d   1      28.172 -15.053  -5.407  0.00  0.00     0.084 C 
BRANCH  27  32
ATOM     32  O   UNL d   1      30.798 -12.510  -4.768  0.00  0.00    -0.360 OA
ATOM     33  H   UNL d   1      30.346 -11.822  -5.294  0.00  0.00     0.217 HD
ENDBRANCH  27  32
BRANCH  31  34
ATOM     34  O   UNL d   1      26.825 -15.177  -5.640  0.00  0.00    -0.360 OA
ATOM     35  H   UNL d   1      26.419 -15.516  -4.819  0.00  0.00     0.217 HD
ENDBRANCH  31  34
ENDBRANCH  24  26
BRANCH  23  36
ATOM     36  C   UNL d   1      26.301 -10.771  -5.188  0.00  0.00     0.025 C 
ATOM     37  C   UNL d   1      25.535 -11.096  -6.508  0.00  0.00     0.037 C 
ATOM     38  C   UNL d   1      25.529 -10.056  -4.076  0.00  0.00     0.037 C 
ATOM     39  C   UNL d   1      27.121  -9.527  -5.610  0.00  0.00     0.037 C 
ENDBRANCH  23  36
ENDBRANCH   1  23
TORSDOF 12
ENDMDL
MODEL 9
REMARK VINA RESULT:    -4.994      1.574      5.184
REMARK INTER + INTRA:         -15.807
REMARK INTER:                  -8.573
REMARK INTRA:                  -7.234
REMARK CONF_INDEPENDENT:        3.580
REMARK UNBOUND:                -7.234
REMARK  12 active torsions:
REMARK  status: ('A' for Active; 'I' for Inactive)
REMARK    1  A    between atoms: C_2  and  C_3 
REMARK    2  A    between atoms: C_3  and  C_4 
REMARK    3  A    between atoms: C_4  and  N_5 
REMARK       I    between atoms: N_5  and  C_6 
REMARK    4  A    between atoms: C_6  and  C_8 
REMARK    5  A    between atoms: C_8  and  C_9 
REMARK    6  A    between atoms: C_8  and  N_22 
REMARK    7  A    between atoms: C_9  and  C_10 
REMARK    8  A    between atoms: C_9  and  C_16 
REMARK       I    between atoms: N_22  and  C_23 
REMARK    9  A    between atoms: N_22  and  C_33 
REMARK   10  A    between atoms: C_23  and  C_25 
REMARK   11  A    between atoms: C_26  and  O_27 
REMARK   12  A    between atoms: C_31  and  O_32 
ROOT
ATOM      1  C   UNL d   1      27.188 -14.684  -2.863  0.00  0.00     0.187 C 
ENDROOT
BRANCH   1   2
ATOM      2  C   UNL d   1      28.142 -15.626  -3.779  0.00  0.00     0.221 C 
ATOM      3  N   UNL d   1      29.119 -16.388  -3.117  0.00  0.00    -0.261 NA
ATOM      4  H   UNL d   1      29.855 -15.739  -2.920  0.00  0.00     0.130 HD
ATOM      5  O   UNL d   1      28.133 -15.574  -4.982  0.00  0.00    -0.278 OA
BRANCH   3   6
ATOM      6  C   UNL d   1      29.858 -17.463  -3.748  0.00  0.00     0.095 C 
BRANCH   6   7
ATOM      7  C   UNL d   1      30.802 -18.153  -2.777  0.00  0.00     0.014 C 
BRANCH   7   8
ATOM      8  C   UNL d   1      30.404 -17.763  -1.362  0.00  0.00    -0.003 C 
ATOM      9  C   UNL d   1      31.603 -17.837  -0.446  0.00  0.00     0.005 C 
ENDBRANCH   7   8
ENDBRANCH   6   7
ENDBRANCH   3   6
ENDBRANCH   1   2
BRANCH   1  10
ATOM     10  C   UNL d   1      27.541 -15.321  -1.429  0.00  0.00     0.083 C 
BRANCH  10  11
ATOM     11  C   UNL d   1      27.463 -14.516  -0.152  0.00  0.00    -0.047 C 
ATOM     12  C   UNL d   1      26.655 -13.356  -0.069  0.00  0.00     0.008 C 
ATOM     13  C   UNL d   1      26.550 -12.685   1.140  0.00  0.00     0.001 C 
ATOM     14  C   UNL d   1      27.095 -13.259   2.289  0.00  0.00     0.000 C 
ATOM     15  C   UNL d   1      27.867 -14.415   2.207  0.00  0.00     0.001 C 
ATOM     16  C   UNL d   1      28.163 -14.949   0.966  0.00  0.00     0.008 C 
ENDBRANCH  10  11
BRANCH  10  17
ATOM     17  C   UNL d   1      26.617 -16.464  -1.017  0.00  0.00    -0.047 C 
ATOM     18  C   UNL d   1      25.223 -16.356  -1.116  0.00  0.00     0.008 C 
ATOM     19  C   UNL d   1      24.437 -17.455  -0.849  0.00  0.00     0.001 C 
ATOM     20  C   UNL d   1      24.988 -18.513  -0.144  0.00  0.00     0.000 C 
ATOM     21  C   UNL d   1      26.326 -18.491   0.230  0.00  0.00     0.001 C 
ATOM     22  C   UNL d   1      27.162 -17.536  -0.305  0.00  0.00     0.008 C 
ENDBRANCH  10  17
ENDBRANCH   1  10
BRANCH   1  23
ATOM     23  N   UNL d   1      27.417 -13.136  -3.048  0.00  0.00    -0.326 N 
ATOM     24  C   UNL d   1      28.636 -12.504  -2.656  0.00  0.00     0.260 C 
ATOM     25  O   UNL d   1      28.810 -11.283  -2.643  0.00  0.00    -0.267 OA
BRANCH  24  26
ATOM     26  C   UNL d   1      29.773 -13.174  -2.029  0.00  0.00     0.098 C 
ATOM     27  C   UNL d   1      30.618 -13.934  -2.871  0.00  0.00     0.084 C 
ATOM     28  C   UNL d   1      31.801 -14.474  -2.384  0.00  0.00     0.038 C 
ATOM     29  C   UNL d   1      32.176 -14.215  -1.072  0.00  0.00     0.005 C 
ATOM     30  C   UNL d   1      31.299 -13.554  -0.206  0.00  0.00     0.038 C 
ATOM     31  C   UNL d   1      30.098 -13.025  -0.680  0.00  0.00     0.084 C 
BRANCH  27  32
ATOM     32  O   UNL d   1      30.432 -14.067  -4.226  0.00  0.00    -0.360 OA
ATOM     33  H   UNL d   1      30.135 -14.980  -4.409  0.00  0.00     0.217 HD
ENDBRANCH  27  32
BRANCH  31  34
ATOM     34  O   UNL d   1      29.377 -12.188   0.134  0.00  0.00    -0.360 OA
ATOM     35  H   UNL d   1      28.934 -11.536  -0.441  0.00  0.00     0.217 HD
ENDBRANCH  31  34
ENDBRANCH  24  26
BRANCH  23  36
ATOM     36  C   UNL d   1      26.463 -12.262  -3.910  0.00  0.00     0.025 C 
ATOM     37  C   UNL d   1      25.905 -11.019  -3.150  0.00  0.00     0.037 C 
ATOM     38  C   UNL d   1      27.024 -12.042  -5.317  0.00  0.00     0.037 C 
ATOM     39  C   UNL d   1      25.155 -12.941  -4.385  0.00  0.00     0.037 C 
ENDBRANCH  23  36
ENDBRANCH   1  23
TORSDOF 12
ENDMDL
