MODEL 1
REMARK VINA RESULT:    -8.653      0.000      0.000
REMARK INTER + INTRA:         -12.456
REMARK INTER:                 -10.144
REMARK INTRA:                  -2.311
REMARK CONF_INDEPENDENT:        1.492
REMARK UNBOUND:                -2.311
REMARK  5 active torsions:
REMARK  status: ('A' for Active; 'I' for Inactive)
REMARK    1  A    between atoms: C_2  and  C_3 
REMARK       I    between atoms: C_2  and  N_15 
REMARK    2  A    between atoms: C_3  and  C_4 
REMARK    3  A    between atoms: N_15  and  N_16 
REMARK    4  A    between atoms: C_20  and  C_21 
REMARK    5  A    between atoms: C_20  and  C_27 
ROOT
ATOM      1  N   UNL d   1      27.915 -15.575   0.157  0.00  0.00    -0.167 N 
ATOM      2  C   UNL d   1      28.238 -16.614  -0.670  0.00  0.00     0.346 C 
ATOM      3  O   UNL d   1      29.219 -17.351  -0.636  0.00  0.00    -0.245 OA
ATOM      4  N   UNL d   1      27.255 -16.755  -1.608  0.00  0.00    -0.315 N 
ATOM      5  C   UNL d   1      26.092 -15.940  -1.327  0.00  0.00     0.173 C 
ATOM      6  C   UNL d   1      26.613 -15.181  -0.050  0.00  0.00     0.285 C 
ATOM      7  O   UNL d   1      25.982 -14.403   0.657  0.00  0.00    -0.267 OA
ATOM      8  H   UNL d   1      27.321 -17.451  -2.334  0.00  0.00     0.166 HD
ENDROOT
BRANCH   1   9
ATOM      9  N   UNL d   1      28.655 -15.169   1.260  0.00  0.00    -0.256 N 
ATOM     10  C   UNL d   1      28.969 -13.861   1.546  0.00  0.00     0.242 C 
ATOM     11  O   UNL d   1      29.646 -13.619   2.544  0.00  0.00    -0.271 OA
ATOM     12  H   UNL d   1      28.905 -15.868   1.956  0.00  0.00     0.191 HD
BRANCH  10  13
ATOM     13  C   UNL d   1      28.480 -12.791   0.600  0.00  0.00     0.166 C 
BRANCH  13  14
ATOM     14  C   UNL d   1      27.965 -11.548   1.270  0.00  0.00     0.074 C 
ATOM     15  N   UNL d   1      27.979 -11.527   2.568  0.00  0.00    -0.175 NA
ATOM     16  N   UNL d   1      27.476 -10.435   3.193  0.00  0.00    -0.243 N 
ATOM     17  C   UNL d   1      26.812  -9.395   2.589  0.00  0.00     0.272 C 
ATOM     18  H   UNL d   1      27.561 -10.418   4.204  0.00  0.00     0.192 HD
ATOM     19  O   UNL d   1      26.280  -8.495   3.230  0.00  0.00    -0.266 OA
ATOM     20  C   UNL d   1      26.797  -9.400   1.117  0.00  0.00     0.046 A 
ATOM     21  C   UNL d   1      26.210  -8.343   0.411  0.00  0.00     0.018 A 
ATOM     22  C   UNL d   1      27.422 -10.441   0.437  0.00  0.00     0.006 A 
ATOM     23  C   UNL d   1      26.273  -8.313  -0.982  0.00  0.00     0.001 A 
ATOM     24  C   UNL d   1      26.924  -9.332  -1.669  0.00  0.00     0.001 A 
ATOM     25  C   UNL d   1      27.493 -10.395  -0.965  0.00  0.00     0.014 A 
ENDBRANCH  13  14
ENDBRANCH  10  13
ENDBRANCH   1   9
BRANCH   5  26
ATOM     26  C   UNL d   1      25.828 -15.011  -2.514  0.00  0.00    -0.016 A 
ATOM     27  C   UNL d   1      25.904 -15.478  -3.833  0.00  0.00     0.010 A 
ATOM     28  C   UNL d   1      25.987 -14.582  -4.893  0.00  0.00     0.001 A 
ATOM     29  C   UNL d   1      25.927 -13.211  -4.659  0.00  0.00     0.000 A 
ATOM     30  C   UNL d   1      25.807 -12.725  -3.362  0.00  0.00     0.001 A 
ATOM     31  C   UNL d   1      25.721 -13.617  -2.297  0.00  0.00     0.010 A 
ENDBRANCH   5  26
BRANCH   5  32
ATOM     32  C   UNL d   1      24.881 -16.822  -0.968  0.00  0.00    -0.016 A 
ATOM     33  C   UNL d   1      23.560 -16.325  -0.978  0.00  0.00     0.010 A 
ATOM     34  C   UNL d   1      22.479 -17.080  -0.544  0.00  0.00     0.001 A 
ATOM     35  C   UNL d   1      22.685 -18.386  -0.138  0.00  0.00     0.000 A 
ATOM     36  C   UNL d   1      23.972 -18.921  -0.145  0.00  0.00     0.001 A 
ATOM     37  C   UNL d   1      25.061 -18.153  -0.561  0.00  0.00     0.010 A 
ENDBRANCH   5  32
TORSDOF 5
ENDMDL
MODEL 2
REMARK VINA RESULT:    -8.412      3.047      6.350
REMARK INTER + INTRA:         -13.236
REMARK INTER:                  -9.904
REMARK INTRA:                  -3.332
REMARK CONF_INDEPENDENT:        1.492
REMARK UNBOUND:                -3.332
REMARK  5 active torsions:
REMARK  status: ('A' for Active; 'I' for Inactive)
REMARK    1  A    between atoms: C_2  and  C_3 
REMARK       I    between atoms: C_2  and  N_15 
REMARK    2  A    between atoms: C_3  and  C_4 
REMARK    3  A    between atoms: N_15  and  N_16 
REMARK    4  A    between atoms: C_20  and  C_21 
REMARK    5  A    between atoms: C_20  and  C_27 
ROOT
ATOM      1  N   UNL d   1      28.103 -15.918   0.166  0.00  0.00    -0.167 N 
ATOM      2  C   UNL d   1      27.437 -14.823   0.642  0.00  0.00     0.346 C 
ATOM      3  O   UNL d   1      27.834 -13.953   1.412  0.00  0.00    -0.245 OA
ATOM      4  N   UNL d   1      26.181 -14.802   0.106  0.00  0.00    -0.315 N 
ATOM      5  C   UNL d   1      26.004 -15.782  -0.944  0.00  0.00     0.173 C 
ATOM      6  C   UNL d   1      27.408 -16.490  -0.874  0.00  0.00     0.285 C 
ATOM      7  O   UNL d   1      27.832 -17.368  -1.618  0.00  0.00    -0.267 OA
ATOM      8  H   UNL d   1      25.518 -14.085   0.356  0.00  0.00     0.166 HD
ENDROOT
BRANCH   1   9
ATOM      9  N   UNL d   1      29.424 -16.240   0.454  0.00  0.00    -0.256 N 
ATOM     10  C   UNL d   1      30.499 -15.869  -0.316  0.00  0.00     0.242 C 
ATOM     11  O   UNL d   1      31.625 -16.225   0.027  0.00  0.00    -0.271 OA
ATOM     12  H   UNL d   1      29.624 -16.700   1.339  0.00  0.00     0.191 HD
BRANCH  10  13
ATOM     13  C   UNL d   1      30.235 -15.057  -1.562  0.00  0.00     0.166 C 
BRANCH  13  14
ATOM     14  C   UNL d   1      30.073 -15.867  -2.817  0.00  0.00     0.074 C 
ATOM     15  N   UNL d   1      30.397 -17.123  -2.756  0.00  0.00    -0.175 NA
ATOM     16  N   UNL d   1      30.301 -17.862  -3.888  0.00  0.00    -0.243 N 
ATOM     17  C   UNL d   1      30.031 -17.378  -5.146  0.00  0.00     0.272 C 
ATOM     18  H   UNL d   1      30.498 -18.852  -3.796  0.00  0.00     0.192 HD
ATOM     19  O   UNL d   1      30.076 -18.086  -6.145  0.00  0.00    -0.266 OA
ATOM     20  C   UNL d   1      29.651 -15.958  -5.228  0.00  0.00     0.046 A 
ATOM     21  C   UNL d   1      29.284 -15.393  -6.456  0.00  0.00     0.018 A 
ATOM     22  C   UNL d   1      29.608 -15.199  -4.063  0.00  0.00     0.006 A 
ATOM     23  C   UNL d   1      28.844 -14.071  -6.514  0.00  0.00     0.001 A 
ATOM     24  C   UNL d   1      28.768 -13.314  -5.349  0.00  0.00     0.001 A 
ATOM     25  C   UNL d   1      29.151 -13.872  -4.128  0.00  0.00     0.014 A 
ENDBRANCH  13  14
ENDBRANCH  10  13
ENDBRANCH   1   9
BRANCH   5  26
ATOM     26  C   UNL d   1      24.843 -16.709  -0.578  0.00  0.00    -0.016 A 
ATOM     27  C   UNL d   1      25.070 -18.028  -0.160  0.00  0.00     0.010 A 
ATOM     28  C   UNL d   1      24.030 -18.950  -0.145  0.00  0.00     0.001 A 
ATOM     29  C   UNL d   1      22.738 -18.556  -0.479  0.00  0.00     0.000 A 
ATOM     30  C   UNL d   1      22.481 -17.242  -0.854  0.00  0.00     0.001 A 
ATOM     31  C   UNL d   1      23.517 -16.314  -0.869  0.00  0.00     0.010 A 
ENDBRANCH   5  26
BRANCH   5  32
ATOM     32  C   UNL d   1      25.819 -15.092  -2.310  0.00  0.00    -0.016 A 
ATOM     33  C   UNL d   1      25.906 -15.801  -3.527  0.00  0.00     0.010 A 
ATOM     34  C   UNL d   1      25.858 -15.167  -4.761  0.00  0.00     0.001 A 
ATOM     35  C   UNL d   1      25.661 -13.799  -4.811  0.00  0.00     0.000 A 
ATOM     36  C   UNL d   1      25.539 -13.071  -3.629  0.00  0.00     0.001 A 
ATOM     37  C   UNL d   1      25.610 -13.707  -2.389  0.00  0.00     0.010 A 
ENDBRANCH   5  32
TORSDOF 5
ENDMDL
MODEL 3
REMARK VINA RESULT:    -8.364      3.163      5.022
REMARK INTER + INTRA:         -13.074
REMARK INTER:                  -9.855
REMARK INTRA:                  -3.218
REMARK CONF_INDEPENDENT:        1.492
REMARK UNBOUND:                -3.218
REMARK  5 active torsions:
REMARK  status: ('A' for Active; 'I' for Inactive)
REMARK    1  A    between atoms: C_2  and  C_3 
REMARK       I    between atoms: C_2  and  N_15 
REMARK    2  A    between atoms: C_3  and  C_4 
REMARK    3  A    between atoms: N_15  and  N_16 
REMARK    4  A    between atoms: C_20  and  C_21 
REMARK    5  A    between atoms: C_20  and  C_27 
ROOT
ATOM      1  N   UNL d   1      26.333 -15.148  -3.937  0.00  0.00    -0.167 N 
ATOM      2  C   UNL d   1      25.171 -14.457  -3.732  0.00  0.00     0.346 C 
ATOM      3  O   UNL d   1      24.405 -13.973  -4.560  0.00  0.00    -0.245 OA
ATOM      4  N   UNL d   1      24.937 -14.375  -2.389  0.00  0.00    -0.315 N 
ATOM      5  C   UNL d   1      25.833 -15.205  -1.612  0.00  0.00     0.173 C 
ATOM      6  C   UNL d   1      26.747 -15.749  -2.771  0.00  0.00     0.285 C 
ATOM      7  O   UNL d   1      27.647 -16.578  -2.677  0.00  0.00    -0.267 OA
ATOM      8  H   UNL d   1      24.139 -13.876  -2.026  0.00  0.00     0.166 HD
ENDROOT
BRANCH   1   9
ATOM      9  N   UNL d   1      26.864 -15.471  -5.179  0.00  0.00    -0.256 N 
ATOM     10  C   UNL d   1      27.929 -14.825  -5.760  0.00  0.00     0.242 C 
ATOM     11  O   UNL d   1      28.306 -15.187  -6.874  0.00  0.00    -0.271 OA
ATOM     12  H   UNL d   1      26.509 -16.298  -5.654  0.00  0.00     0.191 HD
BRANCH  10  13
ATOM     13  C   UNL d   1      28.566 -13.684  -5.003  0.00  0.00     0.166 C 
BRANCH  13  14
ATOM     14  C   UNL d   1      27.620 -12.586  -4.608  0.00  0.00     0.074 C 
ATOM     15  N   UNL d   1      26.513 -12.490  -5.279  0.00  0.00    -0.175 NA
ATOM     16  N   UNL d   1      25.665 -11.479  -4.969  0.00  0.00    -0.243 N 
ATOM     17  C   UNL d   1      25.927 -10.445  -4.103  0.00  0.00     0.272 C 
ATOM     18  H   UNL d   1      24.780 -11.467  -5.464  0.00  0.00     0.192 HD
ATOM     19  O   UNL d   1      25.161  -9.499  -3.959  0.00  0.00    -0.266 OA
ATOM     20  C   UNL d   1      27.175 -10.547  -3.328  0.00  0.00     0.046 A 
ATOM     21  C   UNL d   1      27.491  -9.579  -2.365  0.00  0.00     0.018 A 
ATOM     22  C   UNL d   1      28.007 -11.643  -3.524  0.00  0.00     0.006 A 
ATOM     23  C   UNL d   1      28.631  -9.726  -1.576  0.00  0.00     0.001 A 
ATOM     24  C   UNL d   1      29.452 -10.836  -1.742  0.00  0.00     0.001 A 
ATOM     25  C   UNL d   1      29.146 -11.790  -2.715  0.00  0.00     0.014 A 
ENDBRANCH  13  14
ENDBRANCH  10  13
ENDBRANCH   1   9
BRANCH   5  26
ATOM     26  C   UNL d   1      26.588 -14.330  -0.609  0.00  0.00    -0.016 A 
ATOM     27  C   UNL d   1      27.030 -14.846   0.617  0.00  0.00     0.010 A 
ATOM     28  C   UNL d   1      27.415 -13.990   1.643  0.00  0.00     0.001 A 
ATOM     29  C   UNL d   1      27.431 -12.614   1.439  0.00  0.00     0.000 A 
ATOM     30  C   UNL d   1      27.039 -12.081   0.215  0.00  0.00     0.001 A 
ATOM     31  C   UNL d   1      26.655 -12.932  -0.816  0.00  0.00     0.010 A 
ENDBRANCH   5  26
BRANCH   5  32
ATOM     32  C   UNL d   1      25.065 -16.364  -0.946  0.00  0.00    -0.016 A 
ATOM     33  C   UNL d   1      25.726 -17.476  -0.381  0.00  0.00     0.010 A 
ATOM     34  C   UNL d   1      25.038 -18.575   0.114  0.00  0.00     0.001 A 
ATOM     35  C   UNL d   1      23.655 -18.567   0.109  0.00  0.00     0.000 A 
ATOM     36  C   UNL d   1      22.969 -17.472  -0.412  0.00  0.00     0.001 A 
ATOM     37  C   UNL d   1      23.663 -16.376  -0.930  0.00  0.00     0.010 A 
ENDBRANCH   5  32
TORSDOF 5
ENDMDL
MODEL 4
REMARK VINA RESULT:    -8.337      3.266      5.477
REMARK INTER + INTRA:         -12.682
REMARK INTER:                  -9.829
REMARK INTRA:                  -2.853
REMARK CONF_INDEPENDENT:        1.492
REMARK UNBOUND:                -2.853
REMARK  5 active torsions:
REMARK  status: ('A' for Active; 'I' for Inactive)
REMARK    1  A    between atoms: C_2  and  C_3 
REMARK       I    between atoms: C_2  and  N_15 
REMARK    2  A    between atoms: C_3  and  C_4 
REMARK    3  A    between atoms: N_15  and  N_16 
REMARK    4  A    between atoms: C_20  and  C_21 
REMARK    5  A    between atoms: C_20  and  C_27 
ROOT
ATOM      1  N   UNL d   1      26.343 -15.158  -3.836  0.00  0.00    -0.167 N 
ATOM      2  C   UNL d   1      25.177 -14.454  -3.717  0.00  0.00     0.346 C 
ATOM      3  O   UNL d   1      24.479 -13.963  -4.600  0.00  0.00    -0.245 OA
ATOM      4  N   UNL d   1      24.847 -14.364  -2.395  0.00  0.00    -0.315 N 
ATOM      5  C   UNL d   1      25.675 -15.201  -1.553  0.00  0.00     0.173 C 
ATOM      6  C   UNL d   1      26.665 -15.760  -2.642  0.00  0.00     0.285 C 
ATOM      7  O   UNL d   1      27.546 -16.598  -2.480  0.00  0.00    -0.267 OA
ATOM      8  H   UNL d   1      24.030 -13.855  -2.093  0.00  0.00     0.166 HD
ENDROOT
BRANCH   1   9
ATOM      9  N   UNL d   1      26.959 -15.492  -5.035  0.00  0.00    -0.256 N 
ATOM     10  C   UNL d   1      28.059 -14.846  -5.549  0.00  0.00     0.242 C 
ATOM     11  O   UNL d   1      28.512 -15.218  -6.630  0.00  0.00    -0.271 OA
ATOM     12  H   UNL d   1      26.641 -16.325  -5.524  0.00  0.00     0.191 HD
BRANCH  10  13
ATOM     13  C   UNL d   1      28.638 -13.694  -4.763  0.00  0.00     0.166 C 
BRANCH  13  14
ATOM     14  C   UNL d   1      27.747 -12.489  -4.666  0.00  0.00     0.074 C 
ATOM     15  N   UNL d   1      27.329 -12.156  -3.482  0.00  0.00    -0.175 NA
ATOM     16  N   UNL d   1      26.487 -11.099  -3.376  0.00  0.00    -0.243 N 
ATOM     17  C   UNL d   1      25.908 -10.422  -4.423  0.00  0.00     0.272 C 
ATOM     18  H   UNL d   1      26.230 -10.823  -2.435  0.00  0.00     0.192 HD
ATOM     19  O   UNL d   1      25.064  -9.550  -4.254  0.00  0.00    -0.266 OA
ATOM     20  C   UNL d   1      26.381 -10.781  -5.770  0.00  0.00     0.046 A 
ATOM     21  C   UNL d   1      25.905 -10.094  -6.894  0.00  0.00     0.018 A 
ATOM     22  C   UNL d   1      27.346 -11.773  -5.907  0.00  0.00     0.006 A 
ATOM     23  C   UNL d   1      26.419 -10.382  -8.158  0.00  0.00     0.001 A 
ATOM     24  C   UNL d   1      27.408 -11.349  -8.301  0.00  0.00     0.001 A 
ATOM     25  C   UNL d   1      27.868 -12.047  -7.183  0.00  0.00     0.014 A 
ENDBRANCH  13  14
ENDBRANCH  10  13
ENDBRANCH   1   9
BRANCH   5  26
ATOM     26  C   UNL d   1      26.365 -14.332  -0.500  0.00  0.00    -0.016 A 
ATOM     27  C   UNL d   1      26.654 -12.983  -0.747  0.00  0.00     0.010 A 
ATOM     28  C   UNL d   1      27.555 -12.297   0.060  0.00  0.00     0.001 A 
ATOM     29  C   UNL d   1      28.126 -12.923   1.163  0.00  0.00     0.000 A 
ATOM     30  C   UNL d   1      27.820 -14.248   1.454  0.00  0.00     0.001 A 
ATOM     31  C   UNL d   1      26.918 -14.939   0.651  0.00  0.00     0.010 A 
ENDBRANCH   5  26
BRANCH   5  32
ATOM     32  C   UNL d   1      24.847 -16.349  -0.942  0.00  0.00    -0.016 A 
ATOM     33  C   UNL d   1      25.452 -17.487  -0.366  0.00  0.00     0.010 A 
ATOM     34  C   UNL d   1      24.714 -18.575   0.078  0.00  0.00     0.001 A 
ATOM     35  C   UNL d   1      23.334 -18.529   0.012  0.00  0.00     0.000 A 
ATOM     36  C   UNL d   1      22.701 -17.408  -0.521  0.00  0.00     0.001 A 
ATOM     37  C   UNL d   1      23.446 -16.324  -0.989  0.00  0.00     0.010 A 
ENDBRANCH   5  32
TORSDOF 5
ENDMDL
MODEL 5
REMARK VINA RESULT:    -8.333      3.024      6.245
REMARK INTER + INTRA:         -13.116
REMARK INTER:                  -9.825
REMARK INTRA:                  -3.291
REMARK CONF_INDEPENDENT:        1.492
REMARK UNBOUND:                -3.291
REMARK  5 active torsions:
REMARK  status: ('A' for Active; 'I' for Inactive)
REMARK    1  A    between atoms: C_2  and  C_3 
REMARK       I    between atoms: C_2  and  N_15 
REMARK    2  A    between atoms: C_3  and  C_4 
REMARK    3  A    between atoms: N_15  and  N_16 
REMARK    4  A    between atoms: C_20  and  C_21 
REMARK    5  A    between atoms: C_20  and  C_27 
ROOT
ATOM      1  N   UNL d   1      28.189 -15.973   0.211  0.00  0.00    -0.167 N 
ATOM      2  C   UNL d   1      27.536 -14.892   0.733  0.00  0.00     0.346 C 
ATOM      3  O   UNL d   1      27.944 -14.057   1.536  0.00  0.00    -0.245 OA
ATOM      4  N   UNL d   1      26.279 -14.836   0.202  0.00  0.00    -0.315 N 
ATOM      5  C   UNL d   1      26.088 -15.772  -0.886  0.00  0.00     0.173 C 
ATOM      6  C   UNL d   1      27.486 -16.495  -0.849  0.00  0.00     0.285 C 
ATOM      7  O   UNL d   1      27.899 -17.347  -1.629  0.00  0.00    -0.267 OA
ATOM      8  H   UNL d   1      25.623 -14.123   0.484  0.00  0.00     0.166 HD
ENDROOT
BRANCH   1   9
ATOM      9  N   UNL d   1      29.507 -16.320   0.482  0.00  0.00    -0.256 N 
ATOM     10  C   UNL d   1      30.602 -15.633   0.015  0.00  0.00     0.242 C 
ATOM     11  O   UNL d   1      31.726 -16.042   0.306  0.00  0.00    -0.271 OA
ATOM     12  H   UNL d   1      29.680 -17.073   1.143  0.00  0.00     0.191 HD
BRANCH  10  13
ATOM     13  C   UNL d   1      30.364 -14.420  -0.852  0.00  0.00     0.166 C 
BRANCH  13  14
ATOM     14  C   UNL d   1      29.872 -14.726  -2.238  0.00  0.00     0.074 C 
ATOM     15  N   UNL d   1      29.022 -13.895  -2.761  0.00  0.00    -0.175 NA
ATOM     16  N   UNL d   1      28.531 -14.176  -3.992  0.00  0.00    -0.243 N 
ATOM     17  C   UNL d   1      28.733 -15.339  -4.695  0.00  0.00     0.272 C 
ATOM     18  H   UNL d   1      27.920 -13.477  -4.402  0.00  0.00     0.192 HD
ATOM     19  O   UNL d   1      28.161 -15.575  -5.753  0.00  0.00    -0.266 OA
ATOM     20  C   UNL d   1      29.702 -16.286  -4.119  0.00  0.00     0.046 A 
ATOM     21  C   UNL d   1      30.030 -17.465  -4.800  0.00  0.00     0.018 A 
ATOM     22  C   UNL d   1      30.328 -15.968  -2.919  0.00  0.00     0.006 A 
ATOM     23  C   UNL d   1      31.012 -18.316  -4.291  0.00  0.00     0.001 A 
ATOM     24  C   UNL d   1      31.666 -17.991  -3.108  0.00  0.00     0.001 A 
ATOM     25  C   UNL d   1      31.325 -16.825  -2.420  0.00  0.00     0.014 A 
ENDBRANCH  13  14
ENDBRANCH  10  13
ENDBRANCH   1   9
BRANCH   5  26
ATOM     26  C   UNL d   1      24.920 -16.701  -0.553  0.00  0.00    -0.016 A 
ATOM     27  C   UNL d   1      25.137 -18.020  -0.132  0.00  0.00     0.010 A 
ATOM     28  C   UNL d   1      24.098 -18.944  -0.148  0.00  0.00     0.001 A 
ATOM     29  C   UNL d   1      22.815 -18.551  -0.516  0.00  0.00     0.000 A 
ATOM     30  C   UNL d   1      22.566 -17.236  -0.895  0.00  0.00     0.001 A 
ATOM     31  C   UNL d   1      23.601 -16.307  -0.880  0.00  0.00     0.010 A 
ENDBRANCH   5  26
BRANCH   5  32
ATOM     32  C   UNL d   1      25.907 -15.026  -2.222  0.00  0.00    -0.016 A 
ATOM     33  C   UNL d   1      25.796 -13.620  -2.288  0.00  0.00     0.010 A 
ATOM     34  C   UNL d   1      25.515 -12.953  -3.472  0.00  0.00     0.001 A 
ATOM     35  C   UNL d   1      25.395 -13.676  -4.645  0.00  0.00     0.000 A 
ATOM     36  C   UNL d   1      25.530 -15.062  -4.623  0.00  0.00     0.001 A 
ATOM     37  C   UNL d   1      25.790 -15.735  -3.427  0.00  0.00     0.010 A 
ENDBRANCH   5  32
TORSDOF 5
ENDMDL
MODEL 6
REMARK VINA RESULT:    -8.197      3.714      6.175
REMARK INTER + INTRA:         -12.453
REMARK INTER:                  -9.688
REMARK INTRA:                  -2.765
REMARK CONF_INDEPENDENT:        1.492
REMARK UNBOUND:                -2.765
REMARK  5 active torsions:
REMARK  status: ('A' for Active; 'I' for Inactive)
REMARK    1  A    between atoms: C_2  and  C_3 
REMARK       I    between atoms: C_2  and  N_15 
REMARK    2  A    between atoms: C_3  and  C_4 
REMARK    3  A    between atoms: N_15  and  N_16 
REMARK    4  A    between atoms: C_20  and  C_21 
REMARK    5  A    between atoms: C_20  and  C_27 
ROOT
ATOM      1  N   UNL d   1      27.902 -15.674  -3.937  0.00  0.00    -0.167 N 
ATOM      2  C   UNL d   1      26.693 -15.257  -4.420  0.00  0.00     0.346 C 
ATOM      3  O   UNL d   1      26.305 -15.200  -5.584  0.00  0.00    -0.245 OA
ATOM      4  N   UNL d   1      25.898 -14.894  -3.370  0.00  0.00    -0.315 N 
ATOM      5  C   UNL d   1      26.465 -15.255  -2.088  0.00  0.00     0.173 C 
ATOM      6  C   UNL d   1      27.844 -15.839  -2.573  0.00  0.00     0.285 C 
ATOM      7  O   UNL d   1      28.706 -16.371  -1.882  0.00  0.00    -0.267 OA
ATOM      8  H   UNL d   1      24.970 -14.528  -3.519  0.00  0.00     0.166 HD
ENDROOT
BRANCH   1   9
ATOM      9  N   UNL d   1      28.947 -16.164  -4.709  0.00  0.00    -0.256 N 
ATOM     10  C   UNL d   1      29.845 -15.377  -5.391  0.00  0.00     0.242 C 
ATOM     11  O   UNL d   1      30.723 -15.922  -6.058  0.00  0.00    -0.271 OA
ATOM     12  H   UNL d   1      29.125 -17.166  -4.698  0.00  0.00     0.191 HD
BRANCH  10  13
ATOM     13  C   UNL d   1      29.686 -13.878  -5.301  0.00  0.00     0.166 C 
BRANCH  13  14
ATOM     14  C   UNL d   1      28.943 -13.255  -6.448  0.00  0.00     0.074 C 
ATOM     15  N   UNL d   1      29.353 -13.545  -7.646  0.00  0.00    -0.175 NA
ATOM     16  N   UNL d   1      28.725 -12.958  -8.694  0.00  0.00    -0.243 N 
ATOM     17  C   UNL d   1      27.781 -11.963  -8.614  0.00  0.00     0.272 C 
ATOM     18  H   UNL d   1      29.022 -13.253  -9.618  0.00  0.00     0.192 HD
ATOM     19  O   UNL d   1      27.340 -11.395  -9.606  0.00  0.00    -0.266 OA
ATOM     20  C   UNL d   1      27.299 -11.632  -7.262  0.00  0.00     0.046 A 
ATOM     21  C   UNL d   1      26.284 -10.683  -7.085  0.00  0.00     0.018 A 
ATOM     22  C   UNL d   1      27.827 -12.311  -6.170  0.00  0.00     0.006 A 
ATOM     23  C   UNL d   1      25.773 -10.435  -5.811  0.00  0.00     0.001 A 
ATOM     24  C   UNL d   1      26.273 -11.133  -4.717  0.00  0.00     0.001 A 
ATOM     25  C   UNL d   1      27.298 -12.064  -4.891  0.00  0.00     0.014 A 
ENDBRANCH  13  14
ENDBRANCH  10  13
ENDBRANCH   1   9
BRANCH   5  26
ATOM     26  C   UNL d   1      26.611 -13.998  -1.229  0.00  0.00    -0.016 A 
ATOM     27  C   UNL d   1      26.960 -12.765  -1.798  0.00  0.00     0.010 A 
ATOM     28  C   UNL d   1      27.405 -11.721  -0.996  0.00  0.00     0.001 A 
ATOM     29  C   UNL d   1      27.443 -11.866   0.387  0.00  0.00     0.000 A 
ATOM     30  C   UNL d   1      27.060 -13.065   0.978  0.00  0.00     0.001 A 
ATOM     31  C   UNL d   1      26.612 -14.113   0.181  0.00  0.00     0.010 A 
ENDBRANCH   5  26
BRANCH   5  32
ATOM     32  C   UNL d   1      25.626 -16.357  -1.411  0.00  0.00    -0.016 A 
ATOM     33  C   UNL d   1      24.230 -16.456  -1.593  0.00  0.00     0.010 A 
ATOM     34  C   UNL d   1      23.453 -17.371  -0.895  0.00  0.00     0.001 A 
ATOM     35  C   UNL d   1      24.067 -18.259  -0.031  0.00  0.00     0.000 A 
ATOM     36  C   UNL d   1      25.447 -18.211   0.150  0.00  0.00     0.001 A 
ATOM     37  C   UNL d   1      26.224 -17.275  -0.536  0.00  0.00     0.010 A 
ENDBRANCH   5  32
TORSDOF 5
ENDMDL
MODEL 7
REMARK VINA RESULT:    -8.045      3.638      7.018
REMARK INTER + INTRA:         -12.810
REMARK INTER:                  -9.536
REMARK INTRA:                  -3.273
REMARK CONF_INDEPENDENT:        1.492
REMARK UNBOUND:                -3.273
REMARK  5 active torsions:
REMARK  status: ('A' for Active; 'I' for Inactive)
REMARK    1  A    between atoms: C_2  and  C_3 
REMARK       I    between atoms: C_2  and  N_15 
REMARK    2  A    between atoms: C_3  and  C_4 
REMARK    3  A    between atoms: N_15  and  N_16 
REMARK    4  A    between atoms: C_20  and  C_21 
REMARK    5  A    between atoms: C_20  and  C_27 
ROOT
ATOM      1  N   UNL d   1      25.683 -14.164  -3.963  0.00  0.00    -0.167 N 
ATOM      2  C   UNL d   1      26.466 -15.238  -4.284  0.00  0.00     0.346 C 
ATOM      3  O   UNL d   1      26.897 -15.578  -5.382  0.00  0.00    -0.245 OA
ATOM      4  N   UNL d   1      26.745 -15.938  -3.145  0.00  0.00    -0.315 N 
ATOM      5  C   UNL d   1      26.334 -15.240  -1.944  0.00  0.00     0.173 C 
ATOM      6  C   UNL d   1      25.644 -13.987  -2.600  0.00  0.00     0.285 C 
ATOM      7  O   UNL d   1      25.179 -13.011  -2.020  0.00  0.00    -0.267 OA
ATOM      8  H   UNL d   1      27.288 -16.787  -3.172  0.00  0.00     0.166 HD
ENDROOT
BRANCH   1   9
ATOM      9  N   UNL d   1      25.243 -13.197  -4.859  0.00  0.00    -0.256 N 
ATOM     10  C   UNL d   1      26.030 -12.190  -5.364  0.00  0.00     0.242 C 
ATOM     11  O   UNL d   1      25.529 -11.379  -6.140  0.00  0.00    -0.271 OA
ATOM     12  H   UNL d   1      24.306 -13.289  -5.243  0.00  0.00     0.191 HD
BRANCH  10  13
ATOM     13  C   UNL d   1      27.471 -12.123  -4.917  0.00  0.00     0.166 C 
BRANCH  13  14
ATOM     14  C   UNL d   1      28.372 -13.148  -5.545  0.00  0.00     0.074 C 
ATOM     15  N   UNL d   1      28.148 -13.450  -6.788  0.00  0.00    -0.175 NA
ATOM     16  N   UNL d   1      28.920 -14.405  -7.361  0.00  0.00    -0.243 N 
ATOM     17  C   UNL d   1      29.833 -15.201  -6.712  0.00  0.00     0.272 C 
ATOM     18  H   UNL d   1      28.766 -14.573  -8.349  0.00  0.00     0.192 HD
ATOM     19  O   UNL d   1      30.412 -16.126  -7.270  0.00  0.00    -0.266 OA
ATOM     20  C   UNL d   1      30.105 -14.863  -5.305  0.00  0.00     0.046 A 
ATOM     21  C   UNL d   1      31.075 -15.569  -4.581  0.00  0.00     0.018 A 
ATOM     22  C   UNL d   1      29.426 -13.799  -4.720  0.00  0.00     0.006 A 
ATOM     23  C   UNL d   1      31.387 -15.189  -3.276  0.00  0.00     0.001 A 
ATOM     24  C   UNL d   1      30.736 -14.107  -2.695  0.00  0.00     0.001 A 
ATOM     25  C   UNL d   1      29.756 -13.416  -3.409  0.00  0.00     0.014 A 
ENDBRANCH  13  14
ENDBRANCH  10  13
ENDBRANCH   1   9
BRANCH   5  26
ATOM     26  C   UNL d   1      25.362 -16.121  -1.157  0.00  0.00    -0.016 A 
ATOM     27  C   UNL d   1      25.811 -17.232  -0.431  0.00  0.00     0.010 A 
ATOM     28  C   UNL d   1      24.913 -18.200   0.003  0.00  0.00     0.001 A 
ATOM     29  C   UNL d   1      23.548 -18.040  -0.219  0.00  0.00     0.000 A 
ATOM     30  C   UNL d   1      23.074 -16.923  -0.898  0.00  0.00     0.001 A 
ATOM     31  C   UNL d   1      23.968 -15.950  -1.334  0.00  0.00     0.010 A 
ENDBRANCH   5  26
BRANCH   5  32
ATOM     32  C   UNL d   1      27.561 -14.806  -1.119  0.00  0.00    -0.016 A 
ATOM     33  C   UNL d   1      28.575 -15.714  -0.745  0.00  0.00     0.010 A 
ATOM     34  C   UNL d   1      29.620 -15.356   0.095  0.00  0.00     0.001 A 
ATOM     35  C   UNL d   1      29.712 -14.051   0.542  0.00  0.00     0.000 A 
ATOM     36  C   UNL d   1      28.746 -13.118   0.167  0.00  0.00     0.001 A 
ATOM     37  C   UNL d   1      27.683 -13.486  -0.660  0.00  0.00     0.010 A 
ENDBRANCH   5  32
TORSDOF 5
ENDMDL
MODEL 8
REMARK VINA RESULT:    -7.766      2.939      4.851
REMARK INTER + INTRA:         -12.438
REMARK INTER:                  -9.258
REMARK INTRA:                  -3.180
REMARK CONF_INDEPENDENT:        1.492
REMARK UNBOUND:                -3.180
REMARK  5 active torsions:
REMARK  status: ('A' for Active; 'I' for Inactive)
REMARK    1  A    between atoms: C_2  and  C_3 
REMARK       I    between atoms: C_2  and  N_15 
REMARK    2  A    between atoms: C_3  and  C_4 
REMARK    3  A    between atoms: N_15  and  N_16 
REMARK    4  A    between atoms: C_20  and  C_21 
REMARK    5  A    between atoms: C_20  and  C_27 
ROOT
ATOM      1  N   UNL d   1      26.637 -15.221  -3.749  0.00  0.00    -0.167 N 
ATOM      2  C   UNL d   1      25.453 -14.540  -3.713  0.00  0.00     0.346 C 
ATOM      3  O   UNL d   1      24.796 -14.084  -4.644  0.00  0.00    -0.245 OA
ATOM      4  N   UNL d   1      25.047 -14.427  -2.413  0.00  0.00    -0.315 N 
ATOM      5  C   UNL d   1      25.843 -15.227  -1.507  0.00  0.00     0.173 C 
ATOM      6  C   UNL d   1      26.904 -15.789  -2.525  0.00  0.00     0.285 C 
ATOM      7  O   UNL d   1      27.791 -16.604  -2.295  0.00  0.00    -0.267 OA
ATOM      8  H   UNL d   1      24.205 -13.928  -2.170  0.00  0.00     0.166 HD
ENDROOT
BRANCH   1   9
ATOM      9  N   UNL d   1      27.327 -15.569  -4.904  0.00  0.00    -0.256 N 
ATOM     10  C   UNL d   1      27.664 -14.686  -5.902  0.00  0.00     0.242 C 
ATOM     11  O   UNL d   1      28.262 -15.110  -6.890  0.00  0.00    -0.271 OA
ATOM     12  H   UNL d   1      27.691 -16.516  -4.980  0.00  0.00     0.191 HD
BRANCH  10  13
ATOM     13  C   UNL d   1      27.259 -13.241  -5.739  0.00  0.00     0.166 C 
BRANCH  13  14
ATOM     14  C   UNL d   1      27.970 -12.509  -4.637  0.00  0.00     0.074 C 
ATOM     15  N   UNL d   1      29.129 -12.969  -4.274  0.00  0.00    -0.175 NA
ATOM     16  N   UNL d   1      29.768 -12.352  -3.250  0.00  0.00    -0.243 N 
ATOM     17  C   UNL d   1      29.243 -11.365  -2.451  0.00  0.00     0.272 C 
ATOM     18  H   UNL d   1      30.699 -12.691  -3.032  0.00  0.00     0.192 HD
ATOM     19  O   UNL d   1      29.834 -10.933  -1.468  0.00  0.00    -0.266 OA
ATOM     20  C   UNL d   1      27.934 -10.827  -2.857  0.00  0.00     0.046 A 
ATOM     21  C   UNL d   1      27.353  -9.768  -2.148  0.00  0.00     0.018 A 
ATOM     22  C   UNL d   1      27.308 -11.347  -3.985  0.00  0.00     0.006 A 
ATOM     23  C   UNL d   1      26.154  -9.207  -2.588  0.00  0.00     0.001 A 
ATOM     24  C   UNL d   1      25.538  -9.699  -3.733  0.00  0.00     0.001 A 
ATOM     25  C   UNL d   1      26.108 -10.767  -4.428  0.00  0.00     0.014 A 
ENDBRANCH  13  14
ENDBRANCH  10  13
ENDBRANCH   1   9
BRANCH   5  26
ATOM     26  C   UNL d   1      26.456 -14.319  -0.439  0.00  0.00    -0.016 A 
ATOM     27  C   UNL d   1      26.654 -12.952  -0.673  0.00  0.00     0.010 A 
ATOM     28  C   UNL d   1      27.492 -12.210   0.152  0.00  0.00     0.001 A 
ATOM     29  C   UNL d   1      28.090 -12.803   1.260  0.00  0.00     0.000 A 
ATOM     30  C   UNL d   1      27.872 -14.148   1.538  0.00  0.00     0.001 A 
ATOM     31  C   UNL d   1      27.033 -14.895   0.717  0.00  0.00     0.010 A 
ENDBRANCH   5  26
BRANCH   5  32
ATOM     32  C   UNL d   1      25.006 -16.378  -0.915  0.00  0.00    -0.016 A 
ATOM     33  C   UNL d   1      25.600 -17.481  -0.265  0.00  0.00     0.010 A 
ATOM     34  C   UNL d   1      24.861 -18.575   0.165  0.00  0.00     0.001 A 
ATOM     35  C   UNL d   1      23.488 -18.569   0.006  0.00  0.00     0.000 A 
ATOM     36  C   UNL d   1      22.864 -17.482  -0.603  0.00  0.00     0.001 A 
ATOM     37  C   UNL d   1      23.611 -16.392  -1.055  0.00  0.00     0.010 A 
ENDBRANCH   5  32
TORSDOF 5
ENDMDL
MODEL 9
REMARK VINA RESULT:    -7.584      3.925      6.566
REMARK INTER + INTRA:         -12.784
REMARK INTER:                  -9.075
REMARK INTRA:                  -3.709
REMARK CONF_INDEPENDENT:        1.492
REMARK UNBOUND:                -3.709
REMARK  5 active torsions:
REMARK  status: ('A' for Active; 'I' for Inactive)
REMARK    1  A    between atoms: C_2  and  C_3 
REMARK       I    between atoms: C_2  and  N_15 
REMARK    2  A    between atoms: C_3  and  C_4 
REMARK    3  A    between atoms: N_15  and  N_16 
REMARK    4  A    between atoms: C_20  and  C_21 
REMARK    5  A    between atoms: C_20  and  C_27 
ROOT
ATOM      1  N   UNL d   1      25.986 -13.297  -4.020  0.00  0.00    -0.167 N 
ATOM      2  C   UNL d   1      26.364 -12.770  -2.817  0.00  0.00     0.346 C 
ATOM      3  O   UNL d   1      26.218 -11.626  -2.395  0.00  0.00    -0.245 OA
ATOM      4  N   UNL d   1      26.961 -13.748  -2.073  0.00  0.00    -0.315 N 
ATOM      5  C   UNL d   1      26.822 -15.063  -2.663  0.00  0.00     0.173 C 
ATOM      6  C   UNL d   1      26.087 -14.669  -3.998  0.00  0.00     0.285 C 
ATOM      7  O   UNL d   1      25.653 -15.430  -4.856  0.00  0.00    -0.267 OA
ATOM      8  H   UNL d   1      27.339 -13.553  -1.159  0.00  0.00     0.166 HD
ENDROOT
BRANCH   1   9
ATOM      9  N   UNL d   1      25.304 -12.611  -5.017  0.00  0.00    -0.256 N 
ATOM     10  C   UNL d   1      25.859 -11.628  -5.801  0.00  0.00     0.242 C 
ATOM     11  O   UNL d   1      25.155 -11.075  -6.645  0.00  0.00    -0.271 OA
ATOM     12  H   UNL d   1      24.362 -12.914  -5.252  0.00  0.00     0.191 HD
BRANCH  10  13
ATOM     13  C   UNL d   1      27.306 -11.263  -5.566  0.00  0.00     0.166 C 
BRANCH  13  14
ATOM     14  C   UNL d   1      28.294 -12.320  -5.971  0.00  0.00     0.074 C 
ATOM     15  N   UNL d   1      28.092 -12.912  -7.109  0.00  0.00    -0.175 NA
ATOM     16  N   UNL d   1      28.946 -13.900  -7.474  0.00  0.00    -0.243 N 
ATOM     17  C   UNL d   1      29.931 -14.445  -6.686  0.00  0.00     0.272 C 
ATOM     18  H   UNL d   1      28.803 -14.299  -8.395  0.00  0.00     0.192 HD
ATOM     19  O   UNL d   1      30.589 -15.418  -7.037  0.00  0.00    -0.266 OA
ATOM     20  C   UNL d   1      30.177 -13.777  -5.398  0.00  0.00     0.046 A 
ATOM     21  C   UNL d   1      31.211 -14.214  -4.559  0.00  0.00     0.018 A 
ATOM     22  C   UNL d   1      29.406 -12.673  -5.049  0.00  0.00     0.006 A 
ATOM     23  C   UNL d   1      31.493 -13.524  -3.380  0.00  0.00     0.001 A 
ATOM     24  C   UNL d   1      30.749 -12.400  -3.039  0.00  0.00     0.001 A 
ATOM     25  C   UNL d   1      29.707 -11.977  -3.866  0.00  0.00     0.014 A 
ENDBRANCH  13  14
ENDBRANCH  10  13
ENDBRANCH   1   9
BRANCH   5  26
ATOM     26  C   UNL d   1      28.211 -15.661  -2.894  0.00  0.00    -0.016 A 
ATOM     27  C   UNL d   1      28.567 -16.217  -4.130  0.00  0.00     0.010 A 
ATOM     28  C   UNL d   1      29.684 -17.037  -4.237  0.00  0.00     0.001 A 
ATOM     29  C   UNL d   1      30.501 -17.258  -3.133  0.00  0.00     0.000 A 
ATOM     30  C   UNL d   1      30.193 -16.680  -1.906  0.00  0.00     0.001 A 
ATOM     31  C   UNL d   1      29.077 -15.857  -1.793  0.00  0.00     0.010 A 
ENDBRANCH   5  26
BRANCH   5  32
ATOM     32  C   UNL d   1      25.915 -15.957  -1.796  0.00  0.00    -0.016 A 
ATOM     33  C   UNL d   1      26.438 -16.879  -0.863  0.00  0.00     0.010 A 
ATOM     34  C   UNL d   1      25.633 -17.768  -0.166  0.00  0.00     0.001 A 
ATOM     35  C   UNL d   1      24.262 -17.719  -0.341  0.00  0.00     0.000 A 
ATOM     36  C   UNL d   1      23.707 -16.801  -1.230  0.00  0.00     0.001 A 
ATOM     37  C   UNL d   1      24.521 -15.922  -1.947  0.00  0.00     0.010 A 
ENDBRANCH   5  32
TORSDOF 5
ENDMDL
