MODEL 1
REMARK VINA RESULT:   -30.853      0.000      0.000
REMARK INTER + INTRA:         -33.605
REMARK INTER:                 -32.642
REMARK INTRA:                  -0.963
REMARK CONF_INDEPENDENT:        1.790
REMARK UNBOUND:                -0.963
REMARK  6 active torsions:
REMARK  status: ('A' for Active; 'I' for Inactive)
REMARK       I    between atoms: C_2  and  N_3 
REMARK    1  A    between atoms: C_2  and  C_16 
REMARK    2  A    between atoms: N_3  and  C_4 
REMARK    3  A    between atoms: C_4  and  C_5 
REMARK    4  A    between atoms: C_5  and  C_6 
REMARK    5  A    between atoms: C_6  and  C_7 
REMARK    6  A    between atoms: C_22  and  N_23 
ROOT
ATOM      1  O   UNL d   1      25.301 -15.432  -0.303  0.00  0.00    -0.266 OA
ATOM      2  C   UNL d   1      25.282 -15.744  -1.493  0.00  0.00     0.268 C 
ATOM      3  N   UNL d   1      24.920 -17.009  -1.919  0.00  0.00    -0.356 N 
ATOM      4  H   UNL d   1      25.004 -17.234  -2.902  0.00  0.00     0.162 HD
ENDROOT
BRANCH   2   5
ATOM      5  C   UNL d   1      25.660 -14.818  -2.544  0.00  0.00     0.102 A 
ATOM      6  C   UNL d   1      25.339 -13.480  -2.691  0.00  0.00     0.049 A 
ATOM      7  C   UNL d   1      26.027 -12.967  -3.825  0.00  0.00    -0.005 A 
ATOM      8  C   UNL d   1      26.100 -11.686  -4.407  0.00  0.00     0.014 A 
ATOM      9  C   UNL d   1      26.761 -14.015  -4.382  0.00  0.00     0.076 A 
ATOM     10  C   UNL d   1      26.905 -11.474  -5.529  0.00  0.00     0.003 A 
ATOM     11  C   UNL d   1      27.627 -12.526  -6.086  0.00  0.00     0.038 A 
ATOM     12  C   UNL d   1      27.566 -13.824  -5.533  0.00  0.00     0.130 A 
ATOM     13  N   UNL d   1      26.523 -15.124  -3.584  0.00  0.00    -0.349 N 
ATOM     14  H   UNL d   1      26.938 -16.038  -3.734  0.00  0.00     0.166 HD
BRANCH  12  15
ATOM     15  N   UNL d   1      28.340 -14.892  -6.179  0.00  0.00    -0.113 N 
ATOM     16  O   UNL d   1      28.803 -14.655  -7.304  0.00  0.00    -0.532 OA
ATOM     17  O   UNL d   1      28.495 -15.957  -5.564  0.00  0.00    -0.532 OA
ENDBRANCH  12  15
ENDBRANCH   2   5
BRANCH   3  18
ATOM     18  C   UNL d   1      24.511 -18.041  -0.977  0.00  0.00     0.123 C 
BRANCH  18  19
ATOM     19  C   UNL d   1      23.207 -18.733  -1.373  0.00  0.00     0.027 C 
BRANCH  19  20
ATOM     20  C   UNL d   1      21.984 -17.938  -0.902  0.00  0.00     0.080 C 
BRANCH  20  21
ATOM     21  C   UNL d   1      20.898 -18.840  -0.421  0.00  0.00     0.105 A 
ATOM     22  N   UNL d   1      19.902 -19.314  -1.141  0.00  0.00    -0.233 NA
ATOM     23  C   UNL d   1      19.162 -20.091  -0.284  0.00  0.00     0.085 A 
ATOM     24  C   UNL d   1      17.988 -20.821  -0.520  0.00  0.00     0.034 A 
ATOM     25  C   UNL d   1      19.726 -20.104   0.987  0.00  0.00     0.062 A 
ATOM     26  C   UNL d   1      17.421 -21.542   0.539  0.00  0.00     0.002 A 
ATOM     27  C   UNL d   1      18.018 -21.546   1.802  0.00  0.00     0.002 A 
ATOM     28  C   UNL d   1      19.191 -20.825   2.057  0.00  0.00     0.032 A 
ATOM     29  N   UNL d   1      20.821 -19.286   0.877  0.00  0.00    -0.343 N 
ATOM     30  H   UNL d   1      21.461 -19.056   1.621  0.00  0.00     0.167 HD
ENDBRANCH  20  21
ENDBRANCH  19  20
ENDBRANCH  18  19
ENDBRANCH   3  18
TORSDOF 6
ENDMDL
MODEL 2
REMARK VINA RESULT:   -30.649      2.384      2.916
REMARK INTER + INTRA:         -33.441
REMARK INTER:                 -32.439
REMARK INTRA:                  -1.002
REMARK CONF_INDEPENDENT:        1.790
REMARK UNBOUND:                -1.002
REMARK  6 active torsions:
REMARK  status: ('A' for Active; 'I' for Inactive)
REMARK       I    between atoms: C_2  and  N_3 
REMARK    1  A    between atoms: C_2  and  C_16 
REMARK    2  A    between atoms: N_3  and  C_4 
REMARK    3  A    between atoms: C_4  and  C_5 
REMARK    4  A    between atoms: C_5  and  C_6 
REMARK    5  A    between atoms: C_6  and  C_7 
REMARK    6  A    between atoms: C_22  and  N_23 
ROOT
ATOM      1  O   UNL d   1      26.402 -17.140   0.930  0.00  0.00    -0.266 OA
ATOM      2  C   UNL d   1      26.395 -17.346  -0.283  0.00  0.00     0.268 C 
ATOM      3  N   UNL d   1      25.341 -17.974  -0.920  0.00  0.00    -0.356 N 
ATOM      4  H   UNL d   1      25.427 -18.191  -1.905  0.00  0.00     0.162 HD
ENDROOT
BRANCH   2   5
ATOM      5  C   UNL d   1      27.503 -16.966  -1.139  0.00  0.00     0.102 A 
ATOM      6  C   UNL d   1      28.864 -17.057  -0.907  0.00  0.00     0.049 A 
ATOM      7  C   UNL d   1      29.557 -16.657  -2.082  0.00  0.00    -0.005 A 
ATOM      8  C   UNL d   1      30.924 -16.592  -2.417  0.00  0.00     0.014 A 
ATOM      9  C   UNL d   1      28.600 -16.302  -3.035  0.00  0.00     0.076 A 
ATOM     10  C   UNL d   1      31.310 -16.179  -3.694  0.00  0.00     0.003 A 
ATOM     11  C   UNL d   1      30.352 -15.816  -4.637  0.00  0.00     0.038 A 
ATOM     12  C   UNL d   1      28.975 -15.860  -4.328  0.00  0.00     0.130 A 
ATOM     13  N   UNL d   1      27.364 -16.502  -2.438  0.00  0.00    -0.349 N 
ATOM     14  H   UNL d   1      26.474 -16.343  -2.898  0.00  0.00     0.166 HD
BRANCH  12  15
ATOM     15  N   UNL d   1      28.017 -15.449  -5.363  0.00  0.00    -0.113 N 
ATOM     16  O   UNL d   1      28.472 -15.199  -6.489  0.00  0.00    -0.532 OA
ATOM     17  O   UNL d   1      26.817 -15.388  -5.059  0.00  0.00    -0.532 OA
ENDBRANCH  12  15
ENDBRANCH   2   5
BRANCH   3  18
ATOM     18  C   UNL d   1      24.158 -18.406  -0.189  0.00  0.00     0.123 C 
BRANCH  18  19
ATOM     19  C   UNL d   1      23.008 -17.401  -0.260  0.00  0.00     0.027 C 
BRANCH  19  20
ATOM     20  C   UNL d   1      21.931 -17.849  -1.254  0.00  0.00     0.080 C 
BRANCH  20  21
ATOM     21  C   UNL d   1      20.916 -18.726  -0.602  0.00  0.00     0.105 A 
ATOM     22  N   UNL d   1      19.905 -19.324  -1.197  0.00  0.00    -0.233 NA
ATOM     23  C   UNL d   1      19.250 -20.017  -0.209  0.00  0.00     0.085 A 
ATOM     24  C   UNL d   1      18.100 -20.816  -0.283  0.00  0.00     0.034 A 
ATOM     25  C   UNL d   1      19.883 -19.850   1.017  0.00  0.00     0.062 A 
ATOM     26  C   UNL d   1      17.626 -21.421   0.889  0.00  0.00     0.002 A 
ATOM     27  C   UNL d   1      18.292 -21.245   2.104  0.00  0.00     0.002 A 
ATOM     28  C   UNL d   1      19.443 -20.452   2.197  0.00  0.00     0.032 A 
ATOM     29  N   UNL d   1      20.932 -19.010   0.742  0.00  0.00    -0.343 N 
ATOM     30  H   UNL d   1      21.601 -18.664   1.413  0.00  0.00     0.167 HD
ENDBRANCH  20  21
ENDBRANCH  19  20
ENDBRANCH  18  19
ENDBRANCH   3  18
TORSDOF 6
ENDMDL
MODEL 3
REMARK VINA RESULT:   -30.280      1.665      2.053
REMARK INTER + INTRA:         -33.102
REMARK INTER:                 -32.070
REMARK INTRA:                  -1.032
REMARK CONF_INDEPENDENT:        1.790
REMARK UNBOUND:                -1.032
REMARK  6 active torsions:
REMARK  status: ('A' for Active; 'I' for Inactive)
REMARK       I    between atoms: C_2  and  N_3 
REMARK    1  A    between atoms: C_2  and  C_16 
REMARK    2  A    between atoms: N_3  and  C_4 
REMARK    3  A    between atoms: C_4  and  C_5 
REMARK    4  A    between atoms: C_5  and  C_6 
REMARK    5  A    between atoms: C_6  and  C_7 
REMARK    6  A    between atoms: C_22  and  N_23 
ROOT
ATOM      1  O   UNL d   1      24.124 -15.727  -1.783  0.00  0.00    -0.266 OA
ATOM      2  C   UNL d   1      25.228 -16.138  -1.427  0.00  0.00     0.268 C 
ATOM      3  N   UNL d   1      25.374 -17.200  -0.554  0.00  0.00    -0.356 N 
ATOM      4  H   UNL d   1      26.302 -17.441  -0.231  0.00  0.00     0.162 HD
ENDROOT
BRANCH   2   5
ATOM      5  C   UNL d   1      26.464 -15.528  -1.877  0.00  0.00     0.102 A 
ATOM      6  C   UNL d   1      27.546 -15.086  -1.135  0.00  0.00     0.049 A 
ATOM      7  C   UNL d   1      28.567 -14.658  -2.026  0.00  0.00    -0.005 A 
ATOM      8  C   UNL d   1      29.871 -14.161  -1.828  0.00  0.00     0.014 A 
ATOM      9  C   UNL d   1      28.089 -14.825  -3.327  0.00  0.00     0.076 A 
ATOM     10  C   UNL d   1      30.672 -13.846  -2.928  0.00  0.00     0.003 A 
ATOM     11  C   UNL d   1      30.186 -14.006  -4.222  0.00  0.00     0.038 A 
ATOM     12  C   UNL d   1      28.881 -14.490  -4.454  0.00  0.00     0.130 A 
ATOM     13  N   UNL d   1      26.814 -15.358  -3.207  0.00  0.00    -0.349 N 
ATOM     14  H   UNL d   1      26.220 -15.604  -3.992  0.00  0.00     0.166 HD
BRANCH  12  15
ATOM     15  N   UNL d   1      28.424 -14.621  -5.844  0.00  0.00    -0.113 N 
ATOM     16  O   UNL d   1      27.360 -15.227  -6.037  0.00  0.00    -0.532 OA
ATOM     17  O   UNL d   1      29.117 -14.114  -6.739  0.00  0.00    -0.532 OA
ENDBRANCH  12  15
ENDBRANCH   2   5
BRANCH   3  18
ATOM     18  C   UNL d   1      24.220 -17.914  -0.024  0.00  0.00     0.123 C 
BRANCH  18  19
ATOM     19  C   UNL d   1      23.392 -18.605  -1.108  0.00  0.00     0.027 C 
BRANCH  19  20
ATOM     20  C   UNL d   1      22.000 -17.978  -1.236  0.00  0.00     0.080 C 
BRANCH  20  21
ATOM     21  C   UNL d   1      20.948 -18.857  -0.648  0.00  0.00     0.105 A 
ATOM     22  N   UNL d   1      19.885 -19.325  -1.270  0.00  0.00    -0.233 NA
ATOM     23  C   UNL d   1      19.213 -20.080  -0.340  0.00  0.00     0.085 A 
ATOM     24  C   UNL d   1      18.013 -20.795  -0.461  0.00  0.00     0.034 A 
ATOM     25  C   UNL d   1      19.888 -20.085   0.875  0.00  0.00     0.062 A 
ATOM     26  C   UNL d   1      17.532 -21.494   0.654  0.00  0.00     0.002 A 
ATOM     27  C   UNL d   1      18.240 -21.491   1.859  0.00  0.00     0.002 A 
ATOM     28  C   UNL d   1      19.441 -20.785   1.998  0.00  0.00     0.032 A 
ATOM     29  N   UNL d   1      20.981 -19.286   0.657  0.00  0.00    -0.343 N 
ATOM     30  H   UNL d   1      21.688 -19.056   1.339  0.00  0.00     0.167 HD
ENDBRANCH  20  21
ENDBRANCH  19  20
ENDBRANCH  18  19
ENDBRANCH   3  18
TORSDOF 6
ENDMDL
MODEL 4
REMARK VINA RESULT:   -29.592      2.128      2.853
REMARK INTER + INTRA:         -32.322
REMARK INTER:                 -31.382
REMARK INTRA:                  -0.940
REMARK CONF_INDEPENDENT:        1.790
REMARK UNBOUND:                -0.940
REMARK  6 active torsions:
REMARK  status: ('A' for Active; 'I' for Inactive)
REMARK       I    between atoms: C_2  and  N_3 
REMARK    1  A    between atoms: C_2  and  C_16 
REMARK    2  A    between atoms: N_3  and  C_4 
REMARK    3  A    between atoms: C_4  and  C_5 
REMARK    4  A    between atoms: C_5  and  C_6 
REMARK    5  A    between atoms: C_6  and  C_7 
REMARK    6  A    between atoms: C_22  and  N_23 
ROOT
ATOM      1  O   UNL d   1      24.790 -17.047  -2.875  0.00  0.00    -0.266 OA
ATOM      2  C   UNL d   1      24.969 -16.019  -2.221  0.00  0.00     0.268 C 
ATOM      3  N   UNL d   1      24.728 -15.957  -0.861  0.00  0.00    -0.356 N 
ATOM      4  H   UNL d   1      24.812 -15.065  -0.392  0.00  0.00     0.162 HD
ENDROOT
BRANCH   2   5
ATOM      5  C   UNL d   1      25.427 -14.784  -2.829  0.00  0.00     0.102 A 
ATOM      6  C   UNL d   1      25.429 -14.409  -4.162  0.00  0.00     0.049 A 
ATOM      7  C   UNL d   1      25.878 -13.064  -4.258  0.00  0.00    -0.005 A 
ATOM      8  C   UNL d   1      26.038 -12.179  -5.342  0.00  0.00     0.014 A 
ATOM      9  C   UNL d   1      26.169 -12.624  -2.965  0.00  0.00     0.076 A 
ATOM     10  C   UNL d   1      26.481 -10.873  -5.117  0.00  0.00     0.003 A 
ATOM     11  C   UNL d   1      26.778 -10.443  -3.827  0.00  0.00     0.038 A 
ATOM     12  C   UNL d   1      26.640 -11.309  -2.721  0.00  0.00     0.130 A 
ATOM     13  N   UNL d   1      25.883 -13.685  -2.119  0.00  0.00    -0.349 N 
ATOM     14  H   UNL d   1      25.981 -13.655  -1.110  0.00  0.00     0.166 HD
BRANCH  12  15
ATOM     15  N   UNL d   1      26.985 -10.796  -1.389  0.00  0.00    -0.113 N 
ATOM     16  O   UNL d   1      27.270 -11.630  -0.517  0.00  0.00    -0.532 OA
ATOM     17  O   UNL d   1      26.983  -9.569  -1.215  0.00  0.00    -0.532 OA
ENDBRANCH  12  15
ENDBRANCH   2   5
BRANCH   3  18
ATOM     18  C   UNL d   1      24.271 -17.121  -0.116  0.00  0.00     0.123 C 
BRANCH  18  19
ATOM     19  C   UNL d   1      22.754 -17.151   0.082  0.00  0.00     0.027 C 
BRANCH  19  20
ATOM     20  C   UNL d   1      22.054 -17.901  -1.057  0.00  0.00     0.080 C 
BRANCH  20  21
ATOM     21  C   UNL d   1      20.969 -18.785  -0.542  0.00  0.00     0.105 A 
ATOM     22  N   UNL d   1      19.904 -19.181  -1.208  0.00  0.00    -0.233 NA
ATOM     23  C   UNL d   1      19.196 -19.974  -0.338  0.00  0.00     0.085 A 
ATOM     24  C   UNL d   1      17.978 -20.644  -0.522  0.00  0.00     0.034 A 
ATOM     25  C   UNL d   1      19.850 -20.076   0.884  0.00  0.00     0.062 A 
ATOM     26  C   UNL d   1      17.460 -21.398   0.538  0.00  0.00     0.002 A 
ATOM     27  C   UNL d   1      18.147 -21.493   1.751  0.00  0.00     0.002 A 
ATOM     28  C   UNL d   1      19.365 -20.832   1.953  0.00  0.00     0.032 A 
ATOM     29  N   UNL d   1      20.968 -19.296   0.733  0.00  0.00    -0.343 N 
ATOM     30  H   UNL d   1      21.670 -19.131   1.439  0.00  0.00     0.167 HD
ENDBRANCH  20  21
ENDBRANCH  19  20
ENDBRANCH  18  19
ENDBRANCH   3  18
TORSDOF 6
ENDMDL
MODEL 5
REMARK VINA RESULT:   -29.382      2.499      3.864
REMARK INTER + INTRA:         -32.105
REMARK INTER:                 -31.171
REMARK INTRA:                  -0.934
REMARK CONF_INDEPENDENT:        1.790
REMARK UNBOUND:                -0.934
REMARK  6 active torsions:
REMARK  status: ('A' for Active; 'I' for Inactive)
REMARK       I    between atoms: C_2  and  N_3 
REMARK    1  A    between atoms: C_2  and  C_16 
REMARK    2  A    between atoms: N_3  and  C_4 
REMARK    3  A    between atoms: C_4  and  C_5 
REMARK    4  A    between atoms: C_5  and  C_6 
REMARK    5  A    between atoms: C_6  and  C_7 
REMARK    6  A    between atoms: C_22  and  N_23 
ROOT
ATOM      1  O   UNL d   1      25.331 -16.427  -3.279  0.00  0.00    -0.266 OA
ATOM      2  C   UNL d   1      25.513 -16.009  -2.136  0.00  0.00     0.268 C 
ATOM      3  N   UNL d   1      25.129 -16.726  -1.018  0.00  0.00    -0.356 N 
ATOM      4  H   UNL d   1      25.227 -16.297  -0.107  0.00  0.00     0.162 HD
ENDROOT
BRANCH   2   5
ATOM      5  C   UNL d   1      26.125 -14.721  -1.870  0.00  0.00     0.102 A 
ATOM      6  C   UNL d   1      26.574 -13.762  -2.760  0.00  0.00     0.049 A 
ATOM      7  C   UNL d   1      27.001 -12.621  -2.027  0.00  0.00    -0.005 A 
ATOM      8  C   UNL d   1      27.503 -11.363  -2.413  0.00  0.00     0.014 A 
ATOM      9  C   UNL d   1      26.825 -12.902  -0.671  0.00  0.00     0.076 A 
ATOM     10  C   UNL d   1      27.816 -10.408  -1.442  0.00  0.00     0.003 A 
ATOM     11  C   UNL d   1      27.647 -10.698  -0.090  0.00  0.00     0.038 A 
ATOM     12  C   UNL d   1      27.157 -11.953   0.329  0.00  0.00     0.130 A 
ATOM     13  N   UNL d   1      26.289 -14.179  -0.605  0.00  0.00    -0.349 N 
ATOM     14  H   UNL d   1      26.037 -14.651   0.258  0.00  0.00     0.166 HD
BRANCH  12  15
ATOM     15  N   UNL d   1      27.017 -12.199   1.770  0.00  0.00    -0.113 N 
ATOM     16  O   UNL d   1      26.878 -13.376   2.133  0.00  0.00    -0.532 OA
ATOM     17  O   UNL d   1      27.058 -11.226   2.537  0.00  0.00    -0.532 OA
ENDBRANCH  12  15
ENDBRANCH   2   5
BRANCH   3  18
ATOM     18  C   UNL d   1      24.508 -18.038  -1.131  0.00  0.00     0.123 C 
BRANCH  18  19
ATOM     19  C   UNL d   1      23.311 -18.219  -0.196  0.00  0.00     0.027 C 
BRANCH  19  20
ATOM     20  C   UNL d   1      21.988 -17.943  -0.918  0.00  0.00     0.080 C 
BRANCH  20  21
ATOM     21  C   UNL d   1      20.903 -18.844  -0.432  0.00  0.00     0.105 A 
ATOM     22  N   UNL d   1      19.904 -19.319  -1.148  0.00  0.00    -0.233 NA
ATOM     23  C   UNL d   1      19.166 -20.094  -0.288  0.00  0.00     0.085 A 
ATOM     24  C   UNL d   1      17.992 -20.824  -0.519  0.00  0.00     0.034 A 
ATOM     25  C   UNL d   1      19.734 -20.104   0.981  0.00  0.00     0.062 A 
ATOM     26  C   UNL d   1      17.427 -21.543   0.542  0.00  0.00     0.002 A 
ATOM     27  C   UNL d   1      18.028 -21.545   1.803  0.00  0.00     0.002 A 
ATOM     28  C   UNL d   1      19.202 -20.823   2.054  0.00  0.00     0.032 A 
ATOM     29  N   UNL d   1      20.829 -19.287   0.866  0.00  0.00    -0.343 N 
ATOM     30  H   UNL d   1      21.472 -19.056   1.609  0.00  0.00     0.167 HD
ENDBRANCH  20  21
ENDBRANCH  19  20
ENDBRANCH  18  19
ENDBRANCH   3  18
TORSDOF 6
ENDMDL
MODEL 6
REMARK VINA RESULT:   -29.349      2.328      2.703
REMARK INTER + INTRA:         -32.108
REMARK INTER:                 -31.139
REMARK INTRA:                  -0.969
REMARK CONF_INDEPENDENT:        1.790
REMARK UNBOUND:                -0.969
REMARK  6 active torsions:
REMARK  status: ('A' for Active; 'I' for Inactive)
REMARK       I    between atoms: C_2  and  N_3 
REMARK    1  A    between atoms: C_2  and  C_16 
REMARK    2  A    between atoms: N_3  and  C_4 
REMARK    3  A    between atoms: C_4  and  C_5 
REMARK    4  A    between atoms: C_5  and  C_6 
REMARK    5  A    between atoms: C_6  and  C_7 
REMARK    6  A    between atoms: C_22  and  N_23 
ROOT
ATOM      1  O   UNL d   1      25.320 -16.363  -3.314  0.00  0.00    -0.266 OA
ATOM      2  C   UNL d   1      25.381 -15.831  -2.206  0.00  0.00     0.268 C 
ATOM      3  N   UNL d   1      24.975 -16.477  -1.052  0.00  0.00    -0.356 N 
ATOM      4  H   UNL d   1      24.970 -15.961  -0.182  0.00  0.00     0.162 HD
ENDROOT
BRANCH   2   5
ATOM      5  C   UNL d   1      25.865 -14.476  -2.022  0.00  0.00     0.102 A 
ATOM      6  C   UNL d   1      26.483 -13.905  -0.923  0.00  0.00     0.049 A 
ATOM      7  C   UNL d   1      26.870 -12.578  -1.254  0.00  0.00    -0.005 A 
ATOM      8  C   UNL d   1      27.554 -11.571  -0.545  0.00  0.00     0.014 A 
ATOM      9  C   UNL d   1      26.463 -12.335  -2.567  0.00  0.00     0.076 A 
ATOM     10  C   UNL d   1      27.823 -10.345  -1.159  0.00  0.00     0.003 A 
ATOM     11  C   UNL d   1      27.407 -10.106  -2.465  0.00  0.00     0.038 A 
ATOM     12  C   UNL d   1      26.708 -11.090  -3.198  0.00  0.00     0.130 A 
ATOM     13  N   UNL d   1      25.860 -13.503  -3.009  0.00  0.00    -0.349 N 
ATOM     14  H   UNL d   1      25.478 -13.633  -3.941  0.00  0.00     0.166 HD
BRANCH  12  15
ATOM     15  N   UNL d   1      26.284 -10.767  -4.567  0.00  0.00    -0.113 N 
ATOM     16  O   UNL d   1      25.985 -11.716  -5.306  0.00  0.00    -0.532 OA
ATOM     17  O   UNL d   1      26.237  -9.573  -4.899  0.00  0.00    -0.532 OA
ENDBRANCH  12  15
ENDBRANCH   2   5
BRANCH   3  18
ATOM     18  C   UNL d   1      24.472 -17.843  -1.082  0.00  0.00     0.123 C 
BRANCH  18  19
ATOM     19  C   UNL d   1      23.276 -18.063  -0.154  0.00  0.00     0.027 C 
BRANCH  19  20
ATOM     20  C   UNL d   1      21.949 -17.827  -0.883  0.00  0.00     0.080 C 
BRANCH  20  21
ATOM     21  C   UNL d   1      20.891 -18.765  -0.409  0.00  0.00     0.105 A 
ATOM     22  N   UNL d   1      19.905 -19.257  -1.130  0.00  0.00    -0.233 NA
ATOM     23  C   UNL d   1      19.191 -20.065  -0.279  0.00  0.00     0.085 A 
ATOM     24  C   UNL d   1      18.037 -20.825  -0.519  0.00  0.00     0.034 A 
ATOM     25  C   UNL d   1      19.761 -20.078   0.988  0.00  0.00     0.062 A 
ATOM     26  C   UNL d   1      17.495 -21.574   0.533  0.00  0.00     0.002 A 
ATOM     27  C   UNL d   1      18.098 -21.577   1.793  0.00  0.00     0.002 A 
ATOM     28  C   UNL d   1      19.252 -20.826   2.051  0.00  0.00     0.032 A 
ATOM     29  N   UNL d   1      20.833 -19.229   0.883  0.00  0.00    -0.343 N 
ATOM     30  H   UNL d   1      21.470 -18.989   1.628  0.00  0.00     0.167 HD
ENDBRANCH  20  21
ENDBRANCH  19  20
ENDBRANCH  18  19
ENDBRANCH   3  18
TORSDOF 6
ENDMDL
MODEL 7
REMARK VINA RESULT:   -29.245      3.559      4.913
REMARK INTER + INTRA:         -31.960
REMARK INTER:                 -31.035
REMARK INTRA:                  -0.925
REMARK CONF_INDEPENDENT:        1.790
REMARK UNBOUND:                -0.925
REMARK  6 active torsions:
REMARK  status: ('A' for Active; 'I' for Inactive)
REMARK       I    between atoms: C_2  and  N_3 
REMARK    1  A    between atoms: C_2  and  C_16 
REMARK    2  A    between atoms: N_3  and  C_4 
REMARK    3  A    between atoms: C_4  and  C_5 
REMARK    4  A    between atoms: C_5  and  C_6 
REMARK    5  A    between atoms: C_6  and  C_7 
REMARK    6  A    between atoms: C_22  and  N_23 
ROOT
ATOM      1  O   UNL d   1      25.993 -16.141  -2.037  0.00  0.00    -0.266 OA
ATOM      2  C   UNL d   1      26.194 -16.242  -0.827  0.00  0.00     0.268 C 
ATOM      3  N   UNL d   1      25.494 -17.133  -0.034  0.00  0.00    -0.356 N 
ATOM      4  H   UNL d   1      25.642 -17.113   0.967  0.00  0.00     0.162 HD
ENDROOT
BRANCH   2   5
ATOM      5  C   UNL d   1      27.165 -15.419  -0.131  0.00  0.00     0.102 A 
ATOM      6  C   UNL d   1      28.539 -15.565  -0.046  0.00  0.00     0.049 A 
ATOM      7  C   UNL d   1      29.074 -14.453   0.660  0.00  0.00    -0.005 A 
ATOM      8  C   UNL d   1      30.387 -14.070   0.998  0.00  0.00     0.014 A 
ATOM      9  C   UNL d   1      28.006 -13.632   1.025  0.00  0.00     0.076 A 
ATOM     10  C   UNL d   1      30.610 -12.876   1.688  0.00  0.00     0.003 A 
ATOM     11  C   UNL d   1      29.540 -12.066   2.057  0.00  0.00     0.038 A 
ATOM     12  C   UNL d   1      28.212 -12.428   1.744  0.00  0.00     0.130 A 
ATOM     13  N   UNL d   1      26.862 -14.239   0.529  0.00  0.00    -0.349 N 
ATOM     14  H   UNL d   1      25.925 -13.861   0.626  0.00  0.00     0.166 HD
BRANCH  12  15
ATOM     15  N   UNL d   1      27.128 -11.536   2.176  0.00  0.00    -0.113 N 
ATOM     16  O   UNL d   1      27.449 -10.518   2.807  0.00  0.00    -0.532 OA
ATOM     17  O   UNL d   1      25.964 -11.842   1.879  0.00  0.00    -0.532 OA
ENDBRANCH  12  15
ENDBRANCH   2   5
BRANCH   3  18
ATOM     18  C   UNL d   1      24.492 -18.027  -0.596  0.00  0.00     0.123 C 
BRANCH  18  19
ATOM     19  C   UNL d   1      23.155 -17.972   0.145  0.00  0.00     0.027 C 
BRANCH  19  20
ATOM     20  C   UNL d   1      21.973 -17.948  -0.830  0.00  0.00     0.080 C 
BRANCH  20  21
ATOM     21  C   UNL d   1      20.872 -18.846  -0.376  0.00  0.00     0.105 A 
ATOM     22  N   UNL d   1      19.897 -19.323  -1.122  0.00  0.00    -0.233 NA
ATOM     23  C   UNL d   1      19.131 -20.094  -0.284  0.00  0.00     0.085 A 
ATOM     24  C   UNL d   1      17.964 -20.824  -0.550  0.00  0.00     0.034 A 
ATOM     25  C   UNL d   1      19.658 -20.102   1.003  0.00  0.00     0.062 A 
ATOM     26  C   UNL d   1      17.365 -21.539   0.496  0.00  0.00     0.002 A 
ATOM     27  C   UNL d   1      17.926 -21.538   1.775  0.00  0.00     0.002 A 
ATOM     28  C   UNL d   1      19.092 -20.817   2.060  0.00  0.00     0.032 A 
ATOM     29  N   UNL d   1      20.758 -19.286   0.920  0.00  0.00    -0.343 N 
ATOM     30  H   UNL d   1      21.376 -19.052   1.682  0.00  0.00     0.167 HD
ENDBRANCH  20  21
ENDBRANCH  19  20
ENDBRANCH  18  19
ENDBRANCH   3  18
TORSDOF 6
ENDMDL
MODEL 8
REMARK VINA RESULT:   -29.189      1.989      2.254
REMARK INTER + INTRA:         -31.700
REMARK INTER:                 -30.979
REMARK INTRA:                  -0.721
REMARK CONF_INDEPENDENT:        1.790
REMARK UNBOUND:                -0.721
REMARK  6 active torsions:
REMARK  status: ('A' for Active; 'I' for Inactive)
REMARK       I    between atoms: C_2  and  N_3 
REMARK    1  A    between atoms: C_2  and  C_16 
REMARK    2  A    between atoms: N_3  and  C_4 
REMARK    3  A    between atoms: C_4  and  C_5 
REMARK    4  A    between atoms: C_5  and  C_6 
REMARK    5  A    between atoms: C_6  and  C_7 
REMARK    6  A    between atoms: C_22  and  N_23 
ROOT
ATOM      1  O   UNL d   1      23.231 -14.867  -2.263  0.00  0.00    -0.266 OA
ATOM      2  C   UNL d   1      24.409 -15.180  -2.092  0.00  0.00     0.268 C 
ATOM      3  N   UNL d   1      24.797 -16.102  -1.138  0.00  0.00    -0.356 N 
ATOM      4  H   UNL d   1      25.785 -16.258  -0.986  0.00  0.00     0.162 HD
ENDROOT
BRANCH   2   5
ATOM      5  C   UNL d   1      25.487 -14.591  -2.864  0.00  0.00     0.102 A 
ATOM      6  C   UNL d   1      26.799 -15.010  -3.001  0.00  0.00     0.049 A 
ATOM      7  C   UNL d   1      27.451 -14.170  -3.944  0.00  0.00    -0.005 A 
ATOM      8  C   UNL d   1      28.752 -14.160  -4.485  0.00  0.00     0.014 A 
ATOM      9  C   UNL d   1      26.525 -13.216  -4.371  0.00  0.00     0.076 A 
ATOM     10  C   UNL d   1      29.102 -13.205  -5.442  0.00  0.00     0.003 A 
ATOM     11  C   UNL d   1      28.177 -12.251  -5.857  0.00  0.00     0.038 A 
ATOM     12  C   UNL d   1      26.870 -12.227  -5.325  0.00  0.00     0.130 A 
ATOM     13  N   UNL d   1      25.342 -13.498  -3.703  0.00  0.00    -0.349 N 
ATOM     14  H   UNL d   1      24.479 -12.979  -3.824  0.00  0.00     0.166 HD
BRANCH  12  15
ATOM     15  N   UNL d   1      25.947 -11.184  -5.794  0.00  0.00    -0.113 N 
ATOM     16  O   UNL d   1      25.497 -11.301  -6.943  0.00  0.00    -0.532 OA
ATOM     17  O   UNL d   1      25.664 -10.260  -5.017  0.00  0.00    -0.532 OA
ENDBRANCH  12  15
ENDBRANCH   2   5
BRANCH   3  18
ATOM     18  C   UNL d   1      23.824 -16.779  -0.293  0.00  0.00     0.123 C 
BRANCH  18  19
ATOM     19  C   UNL d   1      23.449 -18.171  -0.804  0.00  0.00     0.027 C 
BRANCH  19  20
ATOM     20  C   UNL d   1      22.105 -18.156  -1.540  0.00  0.00     0.080 C 
BRANCH  20  21
ATOM     21  C   UNL d   1      21.065 -18.921  -0.792  0.00  0.00     0.105 A 
ATOM     22  N   UNL d   1      19.904 -19.325  -1.265  0.00  0.00    -0.233 NA
ATOM     23  C   UNL d   1      19.290 -19.983  -0.228  0.00  0.00     0.085 A 
ATOM     24  C   UNL d   1      18.033 -20.602  -0.175  0.00  0.00     0.034 A 
ATOM     25  C   UNL d   1      20.100 -19.993   0.902  0.00  0.00     0.062 A 
ATOM     26  C   UNL d   1      17.634 -21.212   1.022  0.00  0.00     0.002 A 
ATOM     27  C   UNL d   1      18.475 -21.217   2.136  0.00  0.00     0.002 A 
ATOM     28  C   UNL d   1      19.735 -20.606   2.103  0.00  0.00     0.032 A 
ATOM     29  N   UNL d   1      21.218 -19.296   0.521  0.00  0.00    -0.343 N 
ATOM     30  H   UNL d   1      22.015 -19.096   1.105  0.00  0.00     0.167 HD
ENDBRANCH  20  21
ENDBRANCH  19  20
ENDBRANCH  18  19
ENDBRANCH   3  18
TORSDOF 6
ENDMDL
MODEL 9
REMARK VINA RESULT:   -29.092      2.251      2.534
REMARK INTER + INTRA:         -31.784
REMARK INTER:                 -30.882
REMARK INTRA:                  -0.902
REMARK CONF_INDEPENDENT:        1.790
REMARK UNBOUND:                -0.902
REMARK  6 active torsions:
REMARK  status: ('A' for Active; 'I' for Inactive)
REMARK       I    between atoms: C_2  and  N_3 
REMARK    1  A    between atoms: C_2  and  C_16 
REMARK    2  A    between atoms: N_3  and  C_4 
REMARK    3  A    between atoms: C_4  and  C_5 
REMARK    4  A    between atoms: C_5  and  C_6 
REMARK    5  A    between atoms: C_6  and  C_7 
REMARK    6  A    between atoms: C_22  and  N_23 
ROOT
ATOM      1  O   UNL d   1      23.723 -14.608  -2.727  0.00  0.00    -0.266 OA
ATOM      2  C   UNL d   1      24.772 -15.158  -2.394  0.00  0.00     0.268 C 
ATOM      3  N   UNL d   1      24.843 -16.020  -1.315  0.00  0.00    -0.356 N 
ATOM      4  H   UNL d   1      25.748 -16.378  -1.037  0.00  0.00     0.162 HD
ENDROOT
BRANCH   2   5
ATOM      5  C   UNL d   1      26.023 -14.929  -3.092  0.00  0.00     0.102 A 
ATOM      6  C   UNL d   1      26.364 -15.222  -4.401  0.00  0.00     0.049 A 
ATOM      7  C   UNL d   1      27.667 -14.717  -4.658  0.00  0.00    -0.005 A 
ATOM      8  C   UNL d   1      28.481 -14.696  -5.808  0.00  0.00     0.014 A 
ATOM      9  C   UNL d   1      28.130 -14.126  -3.481  0.00  0.00     0.076 A 
ATOM     10  C   UNL d   1      29.737 -14.085  -5.763  0.00  0.00     0.003 A 
ATOM     11  C   UNL d   1      30.196 -13.506  -4.584  0.00  0.00     0.038 A 
ATOM     12  C   UNL d   1      29.410 -13.520  -3.412  0.00  0.00     0.130 A 
ATOM     13  N   UNL d   1      27.112 -14.266  -2.549  0.00  0.00    -0.349 N 
ATOM     14  H   UNL d   1      27.154 -13.915  -1.598  0.00  0.00     0.166 HD
BRANCH  12  15
ATOM     15  N   UNL d   1      29.961 -12.905  -2.197  0.00  0.00    -0.113 N 
ATOM     16  O   UNL d   1      30.905 -12.115  -2.340  0.00  0.00    -0.532 OA
ATOM     17  O   UNL d   1      29.447 -13.199  -1.107  0.00  0.00    -0.532 OA
ENDBRANCH  12  15
ENDBRANCH   2   5
BRANCH   3  18
ATOM     18  C   UNL d   1      23.666 -16.348  -0.524  0.00  0.00     0.123 C 
BRANCH  18  19
ATOM     19  C   UNL d   1      23.297 -17.831  -0.583  0.00  0.00     0.027 C 
BRANCH  19  20
ATOM     20  C   UNL d   1      22.063 -18.068  -1.461  0.00  0.00     0.080 C 
BRANCH  20  21
ATOM     21  C   UNL d   1      21.026 -18.862  -0.741  0.00  0.00     0.105 A 
ATOM     22  N   UNL d   1      19.904 -19.325  -1.253  0.00  0.00    -0.233 NA
ATOM     23  C   UNL d   1      19.274 -19.988  -0.229  0.00  0.00     0.085 A 
ATOM     24  C   UNL d   1      18.043 -20.659  -0.216  0.00  0.00     0.034 A 
ATOM     25  C   UNL d   1      20.035 -19.941   0.934  0.00  0.00     0.062 A 
ATOM     26  C   UNL d   1      17.619 -21.262   0.976  0.00  0.00     0.002 A 
ATOM     27  C   UNL d   1      18.412 -21.209   2.125  0.00  0.00     0.002 A 
ATOM     28  C   UNL d   1      19.645 -20.546   2.131  0.00  0.00     0.032 A 
ATOM     29  N   UNL d   1      21.138 -19.205   0.584  0.00  0.00    -0.343 N 
ATOM     30  H   UNL d   1      21.901 -18.960   1.198  0.00  0.00     0.167 HD
ENDBRANCH  20  21
ENDBRANCH  19  20
ENDBRANCH  18  19
ENDBRANCH   3  18
TORSDOF 6
ENDMDL
