MODEL 1
REMARK VINA RESULT:   -10.186      0.000      0.000
REMARK INTER + INTRA:         -16.299
REMARK INTER:                 -14.064
REMARK INTRA:                  -2.236
REMARK CONF_INDEPENDENT:        3.878
REMARK UNBOUND:                -2.236
REMARK  13 active torsions:
REMARK  status: ('A' for Active; 'I' for Inactive)
REMARK    1  A    between atoms: C_2  and  O_3 
REMARK    2  A    between atoms: O_3  and  C_4 
REMARK    3  A    between atoms: C_6  and  C_7 
REMARK    4  A    between atoms: C_9  and  N_10 
REMARK    5  A    between atoms: C_13  and  C_14 
REMARK    6  A    between atoms: C_24  and  O_25 
REMARK    7  A    between atoms: O_25  and  C_26 
REMARK    8  A    between atoms: C_26  and  C_27 
REMARK    9  A    between atoms: C_27  and  O_28 
REMARK   10  A    between atoms: O_28  and  C_29 
REMARK   11  A    between atoms: C_29  and  C_30 
REMARK   12  A    between atoms: C_30  and  O_31 
REMARK   13  A    between atoms: O_31  and  C_32 
ROOT
ATOM      1  C   UNL d   1      27.490 -15.653  -0.308  0.00  0.00     0.102 C 
ATOM      2  C   UNL d   1      28.035 -15.634   0.992  0.00  0.00     0.051 C 
ATOM      3  C   UNL d   1      27.774 -14.552   1.840  0.00  0.00    -0.032 C 
ATOM      4  C   UNL d   1      27.212 -13.414   1.318  0.00  0.00     0.014 C 
ATOM      5  C   UNL d   1      26.495 -13.478   0.160  0.00  0.00     0.040 C 
ATOM      6  C   UNL d   1      26.623 -14.574  -0.676  0.00  0.00     0.102 C 
ENDROOT
BRANCH   3   7
ATOM      7  C   UNL d   1      27.972 -14.609   3.277  0.00  0.00     0.032 C 
ATOM      8  C   UNL d   1      27.993 -13.592   4.171  0.00  0.00     0.082 C 
ATOM      9  C   UNL d   1      28.153 -14.136   5.517  0.00  0.00     0.162 C 
ATOM     10  C   UNL d   1      27.830 -12.022   4.122  0.00  0.00     0.283 C 
ATOM     11  N   UNL d   1      28.440 -13.227   6.458  0.00  0.00    -0.189 N 
ATOM     12  N   UNL d   1      29.067 -13.807   7.484  0.00  0.00    -0.161 NA
ATOM     13  C   UNL d   1      28.362 -11.888   6.380  0.00  0.00     0.201 C 
ATOM     14  C   UNL d   1      28.763 -13.164   8.548  0.00  0.00     0.102 C 
ATOM     15  S   UNL d   1      28.530 -11.392   8.125  0.00  0.00    -0.033 SA
ATOM     16  N   UNL d   1      28.184 -11.237   5.265  0.00  0.00    -0.182 NA
ATOM     17  O   UNL d   1      27.251 -11.500   3.172  0.00  0.00    -0.265 OA
BRANCH   9  18
ATOM     18  N   UNL d   1      28.155 -15.357   5.967  0.00  0.00    -0.281 NA
ATOM     19  H   UNL d   1      28.616 -15.575   6.825  0.00  0.00     0.188 HD
ENDBRANCH   9  18
BRANCH  14  20
ATOM     20  C   UNL d   1      28.868 -13.988   9.855  0.00  0.00     0.038 C 
ATOM     21  C   UNL d   1      30.335 -14.191  10.137  0.00  0.00     0.016 C 
ATOM     22  C   UNL d   1      28.265 -13.556  11.278  0.00  0.00     0.016 C 
ENDBRANCH  14  20
ENDBRANCH   3   7
BRANCH   1  23
ATOM     23  O   UNL d   1      27.735 -16.856  -0.950  0.00  0.00    -0.349 OA
BRANCH  23  24
ATOM     24  C   UNL d   1      27.719 -18.051  -0.174  0.00  0.00     0.171 C 
ATOM     25  C   UNL d   1      26.358 -18.524   0.268  0.00  0.00     0.034 C 
ENDBRANCH  23  24
ENDBRANCH   1  23
BRANCH   6  26
ATOM     26  O   UNL d   1      25.815 -14.314  -1.772  0.00  0.00    -0.346 OA
BRANCH  26  27
ATOM     27  C   UNL d   1      24.864 -15.308  -1.883  0.00  0.00     0.201 C 
BRANCH  27  28
ATOM     28  C   UNL d   1      25.157 -16.663  -2.441  0.00  0.00     0.194 C 
BRANCH  28  29
ATOM     29  O   UNL d   1      24.271 -17.618  -1.805  0.00  0.00    -0.387 OA
BRANCH  29  30
ATOM     30  C   UNL d   1      23.323 -16.896  -1.024  0.00  0.00     0.194 C 
BRANCH  30  31
ATOM     31  C   UNL d   1      22.495 -17.769  -0.086  0.00  0.00     0.201 C 
BRANCH  31  32
ATOM     32  O   UNL d   1      21.543 -18.462  -0.904  0.00  0.00    -0.349 OA
BRANCH  32  33
ATOM     33  C   UNL d   1      20.544 -19.128  -0.253  0.00  0.00     0.068 A 
ATOM     34  C   UNL d   1      20.729 -19.325   1.118  0.00  0.00     0.037 A 
ATOM     35  C   UNL d   1      19.834 -20.112   1.847  0.00  0.00     0.003 A 
ATOM     36  C   UNL d   1      18.713 -20.651   1.221  0.00  0.00     0.000 A 
ATOM     37  C   UNL d   1      18.519 -20.448  -0.145  0.00  0.00     0.003 A 
ATOM     38  C   UNL d   1      19.440 -19.700  -0.883  0.00  0.00     0.037 A 
ENDBRANCH  32  33
ENDBRANCH  31  32
ENDBRANCH  30  31
ENDBRANCH  29  30
ENDBRANCH  28  29
ENDBRANCH  27  28
ENDBRANCH  26  27
ENDBRANCH   6  26
TORSDOF 13
ENDMDL
MODEL 2
REMARK VINA RESULT:    -9.178      3.468      6.232
REMARK INTER + INTRA:         -15.462
REMARK INTER:                 -13.056
REMARK INTRA:                  -2.406
REMARK CONF_INDEPENDENT:        3.878
REMARK UNBOUND:                -2.406
REMARK  13 active torsions:
REMARK  status: ('A' for Active; 'I' for Inactive)
REMARK    1  A    between atoms: C_2  and  O_3 
REMARK    2  A    between atoms: O_3  and  C_4 
REMARK    3  A    between atoms: C_6  and  C_7 
REMARK    4  A    between atoms: C_9  and  N_10 
REMARK    5  A    between atoms: C_13  and  C_14 
REMARK    6  A    between atoms: C_24  and  O_25 
REMARK    7  A    between atoms: O_25  and  C_26 
REMARK    8  A    between atoms: C_26  and  C_27 
REMARK    9  A    between atoms: C_27  and  O_28 
REMARK   10  A    between atoms: O_28  and  C_29 
REMARK   11  A    between atoms: C_29  and  C_30 
REMARK   12  A    between atoms: C_30  and  O_31 
REMARK   13  A    between atoms: O_31  and  C_32 
ROOT
ATOM      1  C   UNL d   1      25.632 -16.190  -1.634  0.00  0.00     0.102 C 
ATOM      2  C   UNL d   1      26.350 -16.292  -0.425  0.00  0.00     0.051 C 
ATOM      3  C   UNL d   1      26.979 -15.160   0.107  0.00  0.00    -0.032 C 
ATOM      4  C   UNL d   1      27.107 -14.038  -0.673  0.00  0.00     0.014 C 
ATOM      5  C   UNL d   1      26.260 -13.838  -1.723  0.00  0.00     0.040 C 
ATOM      6  C   UNL d   1      25.523 -14.893  -2.231  0.00  0.00     0.102 C 
ENDROOT
BRANCH   3   7
ATOM      7  C   UNL d   1      27.414 -15.075   1.489  0.00  0.00     0.032 C 
ATOM      8  C   UNL d   1      27.411 -14.001   2.314  0.00  0.00     0.082 C 
ATOM      9  C   UNL d   1      27.876 -14.408   3.637  0.00  0.00     0.162 C 
ATOM     10  C   UNL d   1      26.984 -12.483   2.215  0.00  0.00     0.283 C 
ATOM     11  N   UNL d   1      28.157 -13.395   4.468  0.00  0.00    -0.189 N 
ATOM     12  N   UNL d   1      29.030 -13.790   5.398  0.00  0.00    -0.161 NA
ATOM     13  C   UNL d   1      27.846 -12.094   4.338  0.00  0.00     0.201 C 
ATOM     14  C   UNL d   1      28.800 -13.121   6.465  0.00  0.00     0.102 C 
ATOM     15  S   UNL d   1      28.212 -11.445   6.001  0.00  0.00    -0.033 SA
ATOM     16  N   UNL d   1      27.385 -11.567   3.239  0.00  0.00    -0.182 NA
ATOM     17  O   UNL d   1      26.181 -12.132   1.355  0.00  0.00    -0.265 OA
BRANCH   9  18
ATOM     18  N   UNL d   1      28.153 -15.575   4.141  0.00  0.00    -0.281 NA
ATOM     19  H   UNL d   1      29.077 -15.779   4.456  0.00  0.00     0.188 HD
ENDBRANCH   9  18
BRANCH  14  20
ATOM     20  C   UNL d   1      29.251 -13.816   7.774  0.00  0.00     0.038 C 
ATOM     21  C   UNL d   1      30.742 -13.624   7.889  0.00  0.00     0.016 C 
ATOM     22  C   UNL d   1      28.710 -13.470   9.245  0.00  0.00     0.016 C 
ENDBRANCH  14  20
ENDBRANCH   3   7
BRANCH   1  23
ATOM     23  O   UNL d   1      24.964 -17.367  -1.934  0.00  0.00    -0.349 OA
BRANCH  23  24
ATOM     24  C   UNL d   1      23.928 -17.798  -1.055  0.00  0.00     0.171 C 
ATOM     25  C   UNL d   1      23.027 -16.712  -0.527  0.00  0.00     0.034 C 
ENDBRANCH  23  24
ENDBRANCH   1  23
BRANCH   6  26
ATOM     26  O   UNL d   1      24.812 -14.380  -3.304  0.00  0.00    -0.346 OA
BRANCH  26  27
ATOM     27  C   UNL d   1      25.622 -14.360  -4.421  0.00  0.00     0.201 C 
BRANCH  27  28
ATOM     28  C   UNL d   1      26.304 -15.575  -4.961  0.00  0.00     0.194 C 
BRANCH  28  29
ATOM     29  O   UNL d   1      27.227 -15.157  -5.997  0.00  0.00    -0.387 OA
BRANCH  29  30
ATOM     30  C   UNL d   1      28.401 -14.648  -5.370  0.00  0.00     0.194 C 
BRANCH  30  31
ATOM     31  C   UNL d   1      29.351 -15.728  -4.859  0.00  0.00     0.201 C 
BRANCH  31  32
ATOM     32  O   UNL d   1      30.177 -16.105  -5.968  0.00  0.00    -0.349 OA
BRANCH  32  33
ATOM     33  C   UNL d   1      30.404 -17.441  -6.138  0.00  0.00     0.068 A 
ATOM     34  C   UNL d   1      30.332 -18.228  -4.985  0.00  0.00     0.037 A 
ATOM     35  C   UNL d   1      30.682 -19.579  -5.028  0.00  0.00     0.003 A 
ATOM     36  C   UNL d   1      31.042 -20.166  -6.239  0.00  0.00     0.000 A 
ATOM     37  C   UNL d   1      31.104 -19.387  -7.394  0.00  0.00     0.003 A 
ATOM     38  C   UNL d   1      30.801 -18.024  -7.341  0.00  0.00     0.037 A 
ENDBRANCH  32  33
ENDBRANCH  31  32
ENDBRANCH  30  31
ENDBRANCH  29  30
ENDBRANCH  28  29
ENDBRANCH  27  28
ENDBRANCH  26  27
ENDBRANCH   6  26
TORSDOF 13
ENDMDL
MODEL 3
REMARK VINA RESULT:    -8.973      3.164      6.121
REMARK INTER + INTRA:         -15.353
REMARK INTER:                 -12.851
REMARK INTRA:                  -2.501
REMARK CONF_INDEPENDENT:        3.878
REMARK UNBOUND:                -2.501
REMARK  13 active torsions:
REMARK  status: ('A' for Active; 'I' for Inactive)
REMARK    1  A    between atoms: C_2  and  O_3 
REMARK    2  A    between atoms: O_3  and  C_4 
REMARK    3  A    between atoms: C_6  and  C_7 
REMARK    4  A    between atoms: C_9  and  N_10 
REMARK    5  A    between atoms: C_13  and  C_14 
REMARK    6  A    between atoms: C_24  and  O_25 
REMARK    7  A    between atoms: O_25  and  C_26 
REMARK    8  A    between atoms: C_26  and  C_27 
REMARK    9  A    between atoms: C_27  and  O_28 
REMARK   10  A    between atoms: O_28  and  C_29 
REMARK   11  A    between atoms: C_29  and  C_30 
REMARK   12  A    between atoms: C_30  and  O_31 
REMARK   13  A    between atoms: O_31  and  C_32 
ROOT
ATOM      1  C   UNL d   1      25.645 -16.397  -1.436  0.00  0.00     0.102 C 
ATOM      2  C   UNL d   1      26.372 -16.451  -0.229  0.00  0.00     0.051 C 
ATOM      3  C   UNL d   1      26.973 -15.291   0.273  0.00  0.00    -0.032 C 
ATOM      4  C   UNL d   1      27.067 -14.184  -0.535  0.00  0.00     0.014 C 
ATOM      5  C   UNL d   1      26.210 -14.031  -1.584  0.00  0.00     0.040 C 
ATOM      6  C   UNL d   1      25.499 -15.118  -2.064  0.00  0.00     0.102 C 
ENDROOT
BRANCH   3   7
ATOM      7  C   UNL d   1      27.412 -15.161   1.650  0.00  0.00     0.032 C 
ATOM      8  C   UNL d   1      27.417 -14.060   2.438  0.00  0.00     0.082 C 
ATOM      9  C   UNL d   1      27.883 -14.424   3.773  0.00  0.00     0.162 C 
ATOM     10  C   UNL d   1      26.998 -12.544   2.289  0.00  0.00     0.283 C 
ATOM     11  N   UNL d   1      28.172 -13.386   4.568  0.00  0.00    -0.189 N 
ATOM     12  N   UNL d   1      29.045 -13.753   5.510  0.00  0.00    -0.161 NA
ATOM     13  C   UNL d   1      27.867 -12.088   4.396  0.00  0.00     0.201 C 
ATOM     14  C   UNL d   1      28.822 -13.048   6.553  0.00  0.00     0.102 C 
ATOM     15  S   UNL d   1      28.240 -11.385   6.034  0.00  0.00    -0.033 SA
ATOM     16  N   UNL d   1      27.406 -11.596   3.280  0.00  0.00    -0.182 NA
ATOM     17  O   UNL d   1      26.194 -12.218   1.420  0.00  0.00    -0.265 OA
BRANCH   9  18
ATOM     18  N   UNL d   1      28.155 -15.575   4.315  0.00  0.00    -0.281 NA
ATOM     19  H   UNL d   1      29.093 -15.800   4.571  0.00  0.00     0.188 HD
ENDBRANCH   9  18
BRANCH  14  20
ATOM     20  C   UNL d   1      29.272 -13.700   7.884  0.00  0.00     0.038 C 
ATOM     21  C   UNL d   1      30.755 -13.466   8.015  0.00  0.00     0.016 C 
ATOM     22  C   UNL d   1      28.701 -13.337   9.339  0.00  0.00     0.016 C 
ENDBRANCH  14  20
ENDBRANCH   3   7
BRANCH   1  23
ATOM     23  O   UNL d   1      25.007 -17.598  -1.705  0.00  0.00    -0.349 OA
BRANCH  23  24
ATOM     24  C   UNL d   1      24.134 -18.134  -0.714  0.00  0.00     0.171 C 
ATOM     25  C   UNL d   1      22.836 -17.395  -0.520  0.00  0.00     0.034 C 
ENDBRANCH  23  24
ENDBRANCH   1  23
BRANCH   6  26
ATOM     26  O   UNL d   1      24.769 -14.649  -3.144  0.00  0.00    -0.346 OA
BRANCH  26  27
ATOM     27  C   UNL d   1      25.608 -14.494  -4.229  0.00  0.00     0.201 C 
BRANCH  27  28
ATOM     28  C   UNL d   1      26.919 -15.200  -4.358  0.00  0.00     0.194 C 
BRANCH  28  29
ATOM     29  O   UNL d   1      27.172 -15.438  -5.765  0.00  0.00    -0.387 OA
BRANCH  29  30
ATOM     30  C   UNL d   1      28.205 -14.553  -6.188  0.00  0.00     0.194 C 
BRANCH  30  31
ATOM     31  C   UNL d   1      28.120 -13.157  -5.576  0.00  0.00     0.201 C 
BRANCH  31  32
ATOM     32  O   UNL d   1      27.027 -12.492  -6.222  0.00  0.00    -0.349 OA
BRANCH  32  33
ATOM     33  C   UNL d   1      26.419 -11.489  -5.522  0.00  0.00     0.068 A 
ATOM     34  C   UNL d   1      25.862 -10.458  -6.284  0.00  0.00     0.037 A 
ATOM     35  C   UNL d   1      25.341  -9.321  -5.663  0.00  0.00     0.003 A 
ATOM     36  C   UNL d   1      25.314  -9.239  -4.272  0.00  0.00     0.000 A 
ATOM     37  C   UNL d   1      25.859 -10.271  -3.508  0.00  0.00     0.003 A 
ATOM     38  C   UNL d   1      26.423 -11.386  -4.132  0.00  0.00     0.037 A 
ENDBRANCH  32  33
ENDBRANCH  31  32
ENDBRANCH  30  31
ENDBRANCH  29  30
ENDBRANCH  28  29
ENDBRANCH  27  28
ENDBRANCH  26  27
ENDBRANCH   6  26
TORSDOF 13
ENDMDL
MODEL 4
REMARK VINA RESULT:    -8.411      2.622      5.264
REMARK INTER + INTRA:         -15.539
REMARK INTER:                 -12.289
REMARK INTRA:                  -3.250
REMARK CONF_INDEPENDENT:        3.878
REMARK UNBOUND:                -3.250
REMARK  13 active torsions:
REMARK  status: ('A' for Active; 'I' for Inactive)
REMARK    1  A    between atoms: C_2  and  O_3 
REMARK    2  A    between atoms: O_3  and  C_4 
REMARK    3  A    between atoms: C_6  and  C_7 
REMARK    4  A    between atoms: C_9  and  N_10 
REMARK    5  A    between atoms: C_13  and  C_14 
REMARK    6  A    between atoms: C_24  and  O_25 
REMARK    7  A    between atoms: O_25  and  C_26 
REMARK    8  A    between atoms: C_26  and  C_27 
REMARK    9  A    between atoms: C_27  and  O_28 
REMARK   10  A    between atoms: O_28  and  C_29 
REMARK   11  A    between atoms: C_29  and  C_30 
REMARK   12  A    between atoms: C_30  and  O_31 
REMARK   13  A    between atoms: O_31  and  C_32 
ROOT
ATOM      1  C   UNL d   1      26.566 -14.883  -0.677  0.00  0.00     0.102 C 
ATOM      2  C   UNL d   1      26.984 -15.300   0.604  0.00  0.00     0.051 C 
ATOM      3  C   UNL d   1      27.857 -14.498   1.346  0.00  0.00    -0.032 C 
ATOM      4  C   UNL d   1      28.496 -13.453   0.724  0.00  0.00     0.014 C 
ATOM      5  C   UNL d   1      27.965 -12.907  -0.407  0.00  0.00     0.040 C 
ATOM      6  C   UNL d   1      27.013 -13.601  -1.133  0.00  0.00     0.102 C 
ENDROOT
BRANCH   3   7
ATOM      7  C   UNL d   1      28.047 -14.649   2.777  0.00  0.00     0.032 C 
ATOM      8  C   UNL d   1      28.044 -13.695   3.738  0.00  0.00     0.082 C 
ATOM      9  C   UNL d   1      28.205 -14.326   5.045  0.00  0.00     0.162 C 
ATOM     10  C   UNL d   1      27.855 -12.128   3.794  0.00  0.00     0.283 C 
ATOM     11  N   UNL d   1      28.470 -13.479   6.047  0.00  0.00    -0.189 N 
ATOM     12  N   UNL d   1      29.100 -14.117   7.037  0.00  0.00    -0.161 NA
ATOM     13  C   UNL d   1      28.369 -12.139   6.061  0.00  0.00     0.201 C 
ATOM     14  C   UNL d   1      28.779 -13.552   8.139  0.00  0.00     0.102 C 
ATOM     15  S   UNL d   1      28.518 -11.760   7.836  0.00  0.00    -0.033 SA
ATOM     16  N   UNL d   1      28.188 -11.417   4.990  0.00  0.00    -0.182 NA
ATOM     17  O   UNL d   1      27.274 -11.552   2.878  0.00  0.00    -0.265 OA
BRANCH   9  18
ATOM     18  N   UNL d   1      28.225 -15.575   5.411  0.00  0.00    -0.281 NA
ATOM     19  H   UNL d   1      28.585 -15.830   6.306  0.00  0.00     0.188 HD
ENDBRANCH   9  18
BRANCH  14  20
ATOM     20  C   UNL d   1      28.888 -14.462   9.388  0.00  0.00     0.038 C 
ATOM     21  C   UNL d   1      30.350 -14.549   9.748  0.00  0.00     0.016 C 
ATOM     22  C   UNL d   1      28.167 -14.199  10.798  0.00  0.00     0.016 C 
ENDBRANCH  14  20
ENDBRANCH   3   7
BRANCH   1  23
ATOM     23  O   UNL d   1      25.600 -15.727  -1.201  0.00  0.00    -0.349 OA
BRANCH  23  24
ATOM     24  C   UNL d   1      25.713 -17.124  -0.945  0.00  0.00     0.171 C 
ATOM     25  C   UNL d   1      24.453 -17.807  -0.482  0.00  0.00     0.034 C 
ENDBRANCH  23  24
ENDBRANCH   1  23
BRANCH   6  26
ATOM     26  O   UNL d   1      26.720 -12.810  -2.232  0.00  0.00    -0.346 OA
BRANCH  26  27
ATOM     27  C   UNL d   1      25.527 -13.226  -2.788  0.00  0.00     0.201 C 
BRANCH  27  28
ATOM     28  C   UNL d   1      25.262 -13.217  -4.259  0.00  0.00     0.194 C 
BRANCH  28  29
ATOM     29  O   UNL d   1      24.780 -14.529  -4.642  0.00  0.00    -0.387 OA
BRANCH  29  30
ATOM     30  C   UNL d   1      25.908 -15.356  -4.913  0.00  0.00     0.194 C 
BRANCH  30  31
ATOM     31  C   UNL d   1      27.182 -14.584  -5.245  0.00  0.00     0.201 C 
BRANCH  31  32
ATOM     32  O   UNL d   1      28.189 -15.561  -5.540  0.00  0.00    -0.349 OA
BRANCH  32  33
ATOM     33  C   UNL d   1      28.957 -15.985  -4.494  0.00  0.00     0.068 A 
ATOM     34  C   UNL d   1      29.952 -16.918  -4.802  0.00  0.00     0.037 A 
ATOM     35  C   UNL d   1      30.699 -17.517  -3.784  0.00  0.00     0.003 A 
ATOM     36  C   UNL d   1      30.500 -17.136  -2.460  0.00  0.00     0.000 A 
ATOM     37  C   UNL d   1      29.517 -16.197  -2.150  0.00  0.00     0.003 A 
ATOM     38  C   UNL d   1      28.737 -15.634  -3.163  0.00  0.00     0.037 A 
ENDBRANCH  32  33
ENDBRANCH  31  32
ENDBRANCH  30  31
ENDBRANCH  29  30
ENDBRANCH  28  29
ENDBRANCH  27  28
ENDBRANCH  26  27
ENDBRANCH   6  26
TORSDOF 13
ENDMDL
MODEL 5
REMARK VINA RESULT:    -8.374      2.185      3.538
REMARK INTER + INTRA:         -15.848
REMARK INTER:                 -12.252
REMARK INTRA:                  -3.596
REMARK CONF_INDEPENDENT:        3.878
REMARK UNBOUND:                -3.596
REMARK  13 active torsions:
REMARK  status: ('A' for Active; 'I' for Inactive)
REMARK    1  A    between atoms: C_2  and  O_3 
REMARK    2  A    between atoms: O_3  and  C_4 
REMARK    3  A    between atoms: C_6  and  C_7 
REMARK    4  A    between atoms: C_9  and  N_10 
REMARK    5  A    between atoms: C_13  and  C_14 
REMARK    6  A    between atoms: C_24  and  O_25 
REMARK    7  A    between atoms: O_25  and  C_26 
REMARK    8  A    between atoms: C_26  and  C_27 
REMARK    9  A    between atoms: C_27  and  O_28 
REMARK   10  A    between atoms: O_28  and  C_29 
REMARK   11  A    between atoms: C_29  and  C_30 
REMARK   12  A    between atoms: C_30  and  O_31 
REMARK   13  A    between atoms: O_31  and  C_32 
ROOT
ATOM      1  C   UNL d   1      27.008 -13.702  -0.950  0.00  0.00     0.102 C 
ATOM      2  C   UNL d   1      26.879 -13.874   0.443  0.00  0.00     0.051 C 
ATOM      3  C   UNL d   1      27.607 -14.880   1.089  0.00  0.00    -0.032 C 
ATOM      4  C   UNL d   1      28.232 -15.842   0.335  0.00  0.00     0.014 C 
ATOM      5  C   UNL d   1      28.551 -15.587  -0.966  0.00  0.00     0.040 C 
ATOM      6  C   UNL d   1      27.948 -14.537  -1.636  0.00  0.00     0.102 C 
ENDROOT
BRANCH   3   7
ATOM      7  C   UNL d   1      27.825 -14.899   2.524  0.00  0.00     0.032 C 
ATOM      8  C   UNL d   1      27.877 -13.858   3.388  0.00  0.00     0.082 C 
ATOM      9  C   UNL d   1      28.048 -14.367   4.747  0.00  0.00     0.162 C 
ATOM     10  C   UNL d   1      27.741 -12.287   3.297  0.00  0.00     0.283 C 
ATOM     11  N   UNL d   1      28.365 -13.437   5.657  0.00  0.00    -0.189 N 
ATOM     12  N   UNL d   1      28.997 -13.998   6.690  0.00  0.00    -0.161 NA
ATOM     13  C   UNL d   1      28.309 -12.099   5.542  0.00  0.00     0.201 C 
ATOM     14  C   UNL d   1      28.720 -13.320   7.739  0.00  0.00     0.102 C 
ATOM     15  S   UNL d   1      28.512 -11.557   7.270  0.00  0.00    -0.033 SA
ATOM     16  N   UNL d   1      28.126 -11.477   4.411  0.00  0.00    -0.182 NA
ATOM     17  O   UNL d   1      27.158 -11.782   2.341  0.00  0.00    -0.265 OA
BRANCH   9  18
ATOM     18  N   UNL d   1      28.035 -15.574   5.231  0.00  0.00    -0.281 NA
ATOM     19  H   UNL d   1      28.766 -15.879   5.838  0.00  0.00     0.188 HD
ENDBRANCH   9  18
BRANCH  14  20
ATOM     20  C   UNL d   1      28.830 -14.109   9.068  0.00  0.00     0.038 C 
ATOM     21  C   UNL d   1      30.298 -14.260   9.376  0.00  0.00     0.016 C 
ATOM     22  C   UNL d   1      28.192 -13.662  10.471  0.00  0.00     0.016 C 
ENDBRANCH  14  20
ENDBRANCH   3   7
BRANCH   1  23
ATOM     23  O   UNL d   1      26.327 -12.578  -1.393  0.00  0.00    -0.349 OA
BRANCH  23  24
ATOM     24  C   UNL d   1      27.089 -11.467  -1.856  0.00  0.00     0.171 C 
ATOM     25  C   UNL d   1      27.229 -11.350  -3.351  0.00  0.00     0.034 C 
ENDBRANCH  23  24
ENDBRANCH   1  23
BRANCH   6  26
ATOM     26  O   UNL d   1      28.442 -14.576  -2.930  0.00  0.00    -0.346 OA
BRANCH  26  27
ATOM     27  C   UNL d   1      27.556 -15.261  -3.736  0.00  0.00     0.201 C 
BRANCH  27  28
ATOM     28  C   UNL d   1      26.974 -14.686  -4.987  0.00  0.00     0.194 C 
BRANCH  28  29
ATOM     29  O   UNL d   1      25.535 -14.852  -4.938  0.00  0.00    -0.387 OA
BRANCH  29  30
ATOM     30  C   UNL d   1      25.003 -13.874  -4.049  0.00  0.00     0.194 C 
BRANCH  30  31
ATOM     31  C   UNL d   1      24.405 -14.454  -2.770  0.00  0.00     0.201 C 
BRANCH  31  32
ATOM     32  O   UNL d   1      25.151 -15.641  -2.470  0.00  0.00    -0.349 OA
BRANCH  32  33
ATOM     33  C   UNL d   1      24.616 -16.483  -1.537  0.00  0.00     0.068 A 
ATOM     34  C   UNL d   1      25.484 -17.441  -1.005  0.00  0.00     0.037 A 
ATOM     35  C   UNL d   1      25.002 -18.434  -0.149  0.00  0.00     0.003 A 
ATOM     36  C   UNL d   1      23.661 -18.434   0.231  0.00  0.00     0.000 A 
ATOM     37  C   UNL d   1      22.795 -17.472  -0.289  0.00  0.00     0.003 A 
ATOM     38  C   UNL d   1      23.268 -16.508  -1.183  0.00  0.00     0.037 A 
ENDBRANCH  32  33
ENDBRANCH  31  32
ENDBRANCH  30  31
ENDBRANCH  29  30
ENDBRANCH  28  29
ENDBRANCH  27  28
ENDBRANCH  26  27
ENDBRANCH   6  26
TORSDOF 13
ENDMDL
MODEL 6
REMARK VINA RESULT:    -8.167      2.410      3.470
REMARK INTER + INTRA:         -15.419
REMARK INTER:                 -12.045
REMARK INTRA:                  -3.373
REMARK CONF_INDEPENDENT:        3.878
REMARK UNBOUND:                -3.373
REMARK  13 active torsions:
REMARK  status: ('A' for Active; 'I' for Inactive)
REMARK    1  A    between atoms: C_2  and  O_3 
REMARK    2  A    between atoms: O_3  and  C_4 
REMARK    3  A    between atoms: C_6  and  C_7 
REMARK    4  A    between atoms: C_9  and  N_10 
REMARK    5  A    between atoms: C_13  and  C_14 
REMARK    6  A    between atoms: C_24  and  O_25 
REMARK    7  A    between atoms: O_25  and  C_26 
REMARK    8  A    between atoms: C_26  and  C_27 
REMARK    9  A    between atoms: C_27  and  O_28 
REMARK   10  A    between atoms: O_28  and  C_29 
REMARK   11  A    between atoms: C_29  and  C_30 
REMARK   12  A    between atoms: C_30  and  O_31 
REMARK   13  A    between atoms: O_31  and  C_32 
ROOT
ATOM      1  C   UNL d   1      28.338 -14.199  -0.190  0.00  0.00     0.102 C 
ATOM      2  C   UNL d   1      28.760 -14.240   1.155  0.00  0.00     0.051 C 
ATOM      3  C   UNL d   1      27.921 -13.751   2.162  0.00  0.00    -0.032 C 
ATOM      4  C   UNL d   1      26.821 -13.008   1.813  0.00  0.00     0.014 C 
ATOM      5  C   UNL d   1      26.281 -13.134   0.567  0.00  0.00     0.040 C 
ATOM      6  C   UNL d   1      27.018 -13.710  -0.453  0.00  0.00     0.102 C 
ENDROOT
BRANCH   3   7
ATOM      7  C   UNL d   1      28.098 -14.078   3.565  0.00  0.00     0.032 C 
ATOM      8  C   UNL d   1      28.114 -13.247   4.634  0.00  0.00     0.082 C 
ATOM      9  C   UNL d   1      28.250 -14.036   5.856  0.00  0.00     0.162 C 
ATOM     10  C   UNL d   1      27.964 -11.694   4.879  0.00  0.00     0.283 C 
ATOM     11  N   UNL d   1      28.530 -13.322   6.954  0.00  0.00    -0.189 N 
ATOM     12  N   UNL d   1      29.137 -14.091   7.862  0.00  0.00    -0.161 NA
ATOM     13  C   UNL d   1      28.464 -11.991   7.129  0.00  0.00     0.201 C 
ATOM     14  C   UNL d   1      28.823 -13.655   9.023  0.00  0.00     0.102 C 
ATOM     15  S   UNL d   1      28.610 -11.833   8.937  0.00  0.00    -0.033 SA
ATOM     16  N   UNL d   1      28.308 -11.141   6.153  0.00  0.00    -0.182 NA
ATOM     17  O   UNL d   1      27.404 -10.997   4.036  0.00  0.00    -0.265 OA
BRANCH   9  18
ATOM     18  N   UNL d   1      28.235 -15.319   6.069  0.00  0.00    -0.281 NA
ATOM     19  H   UNL d   1      28.214 -15.673   7.002  0.00  0.00     0.188 HD
ENDBRANCH   9  18
BRANCH  14  20
ATOM     20  C   UNL d   1      28.901 -14.711  10.154  0.00  0.00     0.038 C 
ATOM     21  C   UNL d   1      30.321 -15.217  10.193  0.00  0.00     0.016 C 
ATOM     22  C   UNL d   1      28.550 -14.449  11.698  0.00  0.00     0.016 C 
ENDBRANCH  14  20
ENDBRANCH   3   7
BRANCH   1  23
ATOM     23  O   UNL d   1      29.230 -14.849  -1.028  0.00  0.00    -0.349 OA
BRANCH  23  24
ATOM     24  C   UNL d   1      29.583 -16.195  -0.722  0.00  0.00     0.171 C 
ATOM     25  C   UNL d   1      29.886 -17.076  -1.907  0.00  0.00     0.034 C 
ENDBRANCH  23  24
ENDBRANCH   1  23
BRANCH   6  26
ATOM     26  O   UNL d   1      26.219 -13.645  -1.584  0.00  0.00    -0.346 OA
BRANCH  26  27
ATOM     27  C   UNL d   1      26.495 -12.480  -2.271  0.00  0.00     0.201 C 
BRANCH  27  28
ATOM     28  C   UNL d   1      26.220 -12.305  -3.729  0.00  0.00     0.194 C 
BRANCH  28  29
ATOM     29  O   UNL d   1      25.342 -13.374  -4.159  0.00  0.00    -0.387 OA
BRANCH  29  30
ATOM     30  C   UNL d   1      26.144 -14.420  -4.700  0.00  0.00     0.194 C 
BRANCH  30  31
ATOM     31  C   UNL d   1      26.396 -15.575  -3.735  0.00  0.00     0.201 C 
BRANCH  31  32
ATOM     32  O   UNL d   1      25.155 -15.822  -3.059  0.00  0.00    -0.349 OA
BRANCH  32  33
ATOM     33  C   UNL d   1      25.209 -16.614  -1.948  0.00  0.00     0.068 A 
ATOM     34  C   UNL d   1      23.979 -17.018  -1.421  0.00  0.00     0.037 A 
ATOM     35  C   UNL d   1      23.921 -17.713  -0.211  0.00  0.00     0.003 A 
ATOM     36  C   UNL d   1      25.099 -18.066   0.444  0.00  0.00     0.000 A 
ATOM     37  C   UNL d   1      26.329 -17.676  -0.084  0.00  0.00     0.003 A 
ATOM     38  C   UNL d   1      26.383 -16.939  -1.270  0.00  0.00     0.037 A 
ENDBRANCH  32  33
ENDBRANCH  31  32
ENDBRANCH  30  31
ENDBRANCH  29  30
ENDBRANCH  28  29
ENDBRANCH  27  28
ENDBRANCH  26  27
ENDBRANCH   6  26
TORSDOF 13
ENDMDL
MODEL 7
REMARK VINA RESULT:    -8.086      2.247      5.471
REMARK INTER + INTRA:         -15.879
REMARK INTER:                 -11.964
REMARK INTRA:                  -3.916
REMARK CONF_INDEPENDENT:        3.878
REMARK UNBOUND:                -3.916
REMARK  13 active torsions:
REMARK  status: ('A' for Active; 'I' for Inactive)
REMARK    1  A    between atoms: C_2  and  O_3 
REMARK    2  A    between atoms: O_3  and  C_4 
REMARK    3  A    between atoms: C_6  and  C_7 
REMARK    4  A    between atoms: C_9  and  N_10 
REMARK    5  A    between atoms: C_13  and  C_14 
REMARK    6  A    between atoms: C_24  and  O_25 
REMARK    7  A    between atoms: O_25  and  C_26 
REMARK    8  A    between atoms: C_26  and  C_27 
REMARK    9  A    between atoms: C_27  and  O_28 
REMARK   10  A    between atoms: O_28  and  C_29 
REMARK   11  A    between atoms: C_29  and  C_30 
REMARK   12  A    between atoms: C_30  and  O_31 
REMARK   13  A    between atoms: O_31  and  C_32 
ROOT
ATOM      1  C   UNL d   1      25.657 -16.241  -1.458  0.00  0.00     0.102 C 
ATOM      2  C   UNL d   1      26.383 -16.326  -0.253  0.00  0.00     0.051 C 
ATOM      3  C   UNL d   1      26.978 -15.178   0.283  0.00  0.00    -0.032 C 
ATOM      4  C   UNL d   1      27.068 -14.048  -0.491  0.00  0.00     0.014 C 
ATOM      5  C   UNL d   1      26.211 -13.869  -1.537  0.00  0.00     0.040 C 
ATOM      6  C   UNL d   1      25.505 -14.944  -2.048  0.00  0.00     0.102 C 
ENDROOT
BRANCH   3   7
ATOM      7  C   UNL d   1      27.415 -15.086   1.664  0.00  0.00     0.032 C 
ATOM      8  C   UNL d   1      27.417 -14.008   2.483  0.00  0.00     0.082 C 
ATOM      9  C   UNL d   1      27.883 -14.409   3.808  0.00  0.00     0.162 C 
ATOM     10  C   UNL d   1      26.996 -12.489   2.376  0.00  0.00     0.283 C 
ATOM     11  N   UNL d   1      28.169 -13.393   4.632  0.00  0.00    -0.189 N 
ATOM     12  N   UNL d   1      29.041 -13.785   5.564  0.00  0.00    -0.161 NA
ATOM     13  C   UNL d   1      27.862 -12.091   4.496  0.00  0.00     0.201 C 
ATOM     14  C   UNL d   1      28.816 -13.110   6.627  0.00  0.00     0.102 C 
ATOM     15  S   UNL d   1      28.232 -11.435   6.154  0.00  0.00    -0.033 SA
ATOM     16  N   UNL d   1      27.401 -11.569   3.394  0.00  0.00    -0.182 NA
ATOM     17  O   UNL d   1      26.193 -12.141   1.515  0.00  0.00    -0.265 OA
BRANCH   9  18
ATOM     18  N   UNL d   1      28.156 -15.574   4.318  0.00  0.00    -0.281 NA
ATOM     19  H   UNL d   1      29.058 -15.753   4.706  0.00  0.00     0.188 HD
ENDBRANCH   9  18
BRANCH  14  20
ATOM     20  C   UNL d   1      29.266 -13.799   7.939  0.00  0.00     0.038 C 
ATOM     21  C   UNL d   1      30.739 -13.527   8.102  0.00  0.00     0.016 C 
ATOM     22  C   UNL d   1      28.663 -13.506   9.398  0.00  0.00     0.016 C 
ENDBRANCH  14  20
ENDBRANCH   3   7
BRANCH   1  23
ATOM     23  O   UNL d   1      25.026 -17.436  -1.762  0.00  0.00    -0.349 OA
BRANCH  23  24
ATOM     24  C   UNL d   1      24.378 -18.144  -0.709  0.00  0.00     0.171 C 
ATOM     25  C   UNL d   1      22.902 -17.882  -0.557  0.00  0.00     0.034 C 
ENDBRANCH  23  24
ENDBRANCH   1  23
BRANCH   6  26
ATOM     26  O   UNL d   1      24.775 -14.448  -3.116  0.00  0.00    -0.346 OA
BRANCH  26  27
ATOM     27  C   UNL d   1      25.583 -14.384  -4.232  0.00  0.00     0.201 C 
BRANCH  27  28
ATOM     28  C   UNL d   1      25.910 -15.573  -5.076  0.00  0.00     0.194 C 
BRANCH  28  29
ATOM     29  O   UNL d   1      27.034 -15.233  -5.926  0.00  0.00    -0.387 OA
BRANCH  29  30
ATOM     30  C   UNL d   1      27.819 -14.251  -5.256  0.00  0.00     0.194 C 
BRANCH  30  31
ATOM     31  C   UNL d   1      29.135 -14.782  -4.694  0.00  0.00     0.201 C 
BRANCH  31  32
ATOM     32  O   UNL d   1      28.810 -15.942  -3.917  0.00  0.00    -0.349 OA
BRANCH  32  33
ATOM     33  C   UNL d   1      29.249 -15.957  -2.624  0.00  0.00     0.068 A 
ATOM     34  C   UNL d   1      29.842 -14.778  -2.163  0.00  0.00     0.037 A 
ATOM     35  C   UNL d   1      30.446 -14.734  -0.904  0.00  0.00     0.003 A 
ATOM     36  C   UNL d   1      30.401 -15.851  -0.073  0.00  0.00     0.000 A 
ATOM     37  C   UNL d   1      29.800 -17.026  -0.524  0.00  0.00     0.003 A 
ATOM     38  C   UNL d   1      29.238 -17.083  -1.803  0.00  0.00     0.037 A 
ENDBRANCH  32  33
ENDBRANCH  31  32
ENDBRANCH  30  31
ENDBRANCH  29  30
ENDBRANCH  28  29
ENDBRANCH  27  28
ENDBRANCH  26  27
ENDBRANCH   6  26
TORSDOF 13
ENDMDL
MODEL 8
REMARK VINA RESULT:    -7.795      2.294      3.835
REMARK INTER + INTRA:         -15.059
REMARK INTER:                 -11.673
REMARK INTRA:                  -3.386
REMARK CONF_INDEPENDENT:        3.878
REMARK UNBOUND:                -3.386
REMARK  13 active torsions:
REMARK  status: ('A' for Active; 'I' for Inactive)
REMARK    1  A    between atoms: C_2  and  O_3 
REMARK    2  A    between atoms: O_3  and  C_4 
REMARK    3  A    between atoms: C_6  and  C_7 
REMARK    4  A    between atoms: C_9  and  N_10 
REMARK    5  A    between atoms: C_13  and  C_14 
REMARK    6  A    between atoms: C_24  and  O_25 
REMARK    7  A    between atoms: O_25  and  C_26 
REMARK    8  A    between atoms: C_26  and  C_27 
REMARK    9  A    between atoms: C_27  and  O_28 
REMARK   10  A    between atoms: O_28  and  C_29 
REMARK   11  A    between atoms: C_29  and  C_30 
REMARK   12  A    between atoms: C_30  and  O_31 
REMARK   13  A    between atoms: O_31  and  C_32 
ROOT
ATOM      1  C   UNL d   1      27.415 -12.674   0.011  0.00  0.00     0.102 C 
ATOM      2  C   UNL d   1      27.261 -12.977   1.380  0.00  0.00     0.051 C 
ATOM      3  C   UNL d   1      27.715 -14.204   1.876  0.00  0.00    -0.032 C 
ATOM      4  C   UNL d   1      28.066 -15.194   0.992  0.00  0.00     0.014 C 
ATOM      5  C   UNL d   1      28.426 -14.871  -0.284  0.00  0.00     0.040 C 
ATOM      6  C   UNL d   1      28.104 -13.630  -0.803  0.00  0.00     0.102 C 
ENDROOT
BRANCH   3   7
ATOM      7  C   UNL d   1      27.935 -14.452   3.289  0.00  0.00     0.032 C 
ATOM      8  C   UNL d   1      27.980 -13.563   4.309  0.00  0.00     0.082 C 
ATOM      9  C   UNL d   1      28.157 -14.281   5.568  0.00  0.00     0.162 C 
ATOM     10  C   UNL d   1      27.830 -11.998   4.471  0.00  0.00     0.283 C 
ATOM     11  N   UNL d   1      28.467 -13.507   6.616  0.00  0.00    -0.189 N 
ATOM     12  N   UNL d   1      29.106 -14.222   7.546  0.00  0.00    -0.161 NA
ATOM     13  C   UNL d   1      28.400 -12.168   6.718  0.00  0.00     0.201 C 
ATOM     14  C   UNL d   1      28.825 -13.723   8.690  0.00  0.00     0.102 C 
ATOM     15  S   UNL d   1      28.601 -11.910   8.510  0.00  0.00    -0.033 SA
ATOM     16  N   UNL d   1      28.210 -11.375   5.702  0.00  0.00    -0.182 NA
ATOM     17  O   UNL d   1      27.241 -11.352   3.609  0.00  0.00    -0.265 OA
BRANCH   9  18
ATOM     18  N   UNL d   1      28.155 -15.551   5.852  0.00  0.00    -0.281 NA
ATOM     19  H   UNL d   1      28.246 -15.854   6.799  0.00  0.00     0.188 HD
ENDBRANCH   9  18
BRANCH  14  20
ATOM     20  C   UNL d   1      28.943 -14.714   9.875  0.00  0.00     0.038 C 
ATOM     21  C   UNL d   1      30.391 -15.123   9.970  0.00  0.00     0.016 C 
ATOM     22  C   UNL d   1      28.537 -14.400  11.395  0.00  0.00     0.016 C 
ENDBRANCH  14  20
ENDBRANCH   3   7
BRANCH   1  23
ATOM     23  O   UNL d   1      27.039 -11.371  -0.271  0.00  0.00    -0.349 OA
BRANCH  23  24
ATOM     24  C   UNL d   1      27.410 -10.347   0.648  0.00  0.00     0.171 C 
ATOM     25  C   UNL d   1      28.890 -10.113   0.802  0.00  0.00     0.034 C 
ENDBRANCH  23  24
ENDBRANCH   1  23
BRANCH   6  26
ATOM     26  O   UNL d   1      28.558 -13.635  -2.112  0.00  0.00    -0.346 OA
BRANCH  26  27
ATOM     27  C   UNL d   1      27.990 -12.580  -2.797  0.00  0.00     0.201 C 
BRANCH  27  28
ATOM     28  C   UNL d   1      26.831 -12.735  -3.726  0.00  0.00     0.194 C 
BRANCH  28  29
ATOM     29  O   UNL d   1      25.628 -12.887  -2.932  0.00  0.00    -0.387 OA
BRANCH  29  30
ATOM     30  C   UNL d   1      24.854 -13.944  -3.492  0.00  0.00     0.194 C 
BRANCH  30  31
ATOM     31  C   UNL d   1      25.536 -15.309  -3.442  0.00  0.00     0.201 C 
BRANCH  31  32
ATOM     32  O   UNL d   1      25.984 -15.494  -2.093  0.00  0.00    -0.349 OA
BRANCH  32  33
ATOM     33  C   UNL d   1      25.226 -16.309  -1.301  0.00  0.00     0.068 A 
ATOM     34  C   UNL d   1      25.926 -17.251  -0.542  0.00  0.00     0.037 A 
ATOM     35  C   UNL d   1      25.238 -18.219   0.194  0.00  0.00     0.003 A 
ATOM     36  C   UNL d   1      23.845 -18.207   0.226  0.00  0.00     0.000 A 
ATOM     37  C   UNL d   1      23.144 -17.261  -0.521  0.00  0.00     0.003 A 
ATOM     38  C   UNL d   1      23.832 -16.324  -1.295  0.00  0.00     0.037 A 
ENDBRANCH  32  33
ENDBRANCH  31  32
ENDBRANCH  30  31
ENDBRANCH  29  30
ENDBRANCH  28  29
ENDBRANCH  27  28
ENDBRANCH  26  27
ENDBRANCH   6  26
TORSDOF 13
ENDMDL
MODEL 9
REMARK VINA RESULT:    -7.549      2.337      5.232
REMARK INTER + INTRA:         -15.246
REMARK INTER:                 -11.427
REMARK INTRA:                  -3.819
REMARK CONF_INDEPENDENT:        3.878
REMARK UNBOUND:                -3.819
REMARK  13 active torsions:
REMARK  status: ('A' for Active; 'I' for Inactive)
REMARK    1  A    between atoms: C_2  and  O_3 
REMARK    2  A    between atoms: O_3  and  C_4 
REMARK    3  A    between atoms: C_6  and  C_7 
REMARK    4  A    between atoms: C_9  and  N_10 
REMARK    5  A    between atoms: C_13  and  C_14 
REMARK    6  A    between atoms: C_24  and  O_25 
REMARK    7  A    between atoms: O_25  and  C_26 
REMARK    8  A    between atoms: C_26  and  C_27 
REMARK    9  A    between atoms: C_27  and  O_28 
REMARK   10  A    between atoms: O_28  and  C_29 
REMARK   11  A    between atoms: C_29  and  C_30 
REMARK   12  A    between atoms: C_30  and  O_31 
REMARK   13  A    between atoms: O_31  and  C_32 
ROOT
ATOM      1  C   UNL d   1      26.425 -15.635  -0.699  0.00  0.00     0.102 C 
ATOM      2  C   UNL d   1      26.974 -15.856   0.581  0.00  0.00     0.051 C 
ATOM      3  C   UNL d   1      27.546 -14.791   1.285  0.00  0.00    -0.032 C 
ATOM      4  C   UNL d   1      27.797 -13.613   0.626  0.00  0.00     0.014 C 
ATOM      5  C   UNL d   1      27.101 -13.303  -0.505  0.00  0.00     0.040 C 
ATOM      6  C   UNL d   1      26.420 -14.291  -1.193  0.00  0.00     0.102 C 
ENDROOT
BRANCH   3   7
ATOM      7  C   UNL d   1      27.794 -14.831   2.714  0.00  0.00     0.032 C 
ATOM      8  C   UNL d   1      27.827 -13.806   3.598  0.00  0.00     0.082 C 
ATOM      9  C   UNL d   1      28.044 -14.335   4.943  0.00  0.00     0.162 C 
ATOM     10  C   UNL d   1      27.633 -12.240   3.542  0.00  0.00     0.283 C 
ATOM     11  N   UNL d   1      28.346 -13.413   5.865  0.00  0.00    -0.189 N 
ATOM     12  N   UNL d   1      29.019 -13.972   6.874  0.00  0.00    -0.161 NA
ATOM     13  C   UNL d   1      28.239 -12.076   5.780  0.00  0.00     0.201 C 
ATOM     14  C   UNL d   1      28.740 -13.325   7.942  0.00  0.00     0.102 C 
ATOM     15  S   UNL d   1      28.459 -11.562   7.513  0.00  0.00    -0.033 SA
ATOM     16  N   UNL d   1      28.012 -11.438   4.666  0.00  0.00    -0.182 NA
ATOM     17  O   UNL d   1      27.012 -11.738   2.609  0.00  0.00    -0.265 OA
BRANCH   9  18
ATOM     18  N   UNL d   1      28.084 -15.551   5.402  0.00  0.00    -0.281 NA
ATOM     19  H   UNL d   1      28.590 -15.756   6.238  0.00  0.00     0.188 HD
ENDBRANCH   9  18
BRANCH  14  20
ATOM     20  C   UNL d   1      28.905 -14.135   9.252  0.00  0.00     0.038 C 
ATOM     21  C   UNL d   1      30.380 -14.378   9.442  0.00  0.00     0.016 C 
ATOM     22  C   UNL d   1      28.408 -13.668  10.705  0.00  0.00     0.016 C 
ENDBRANCH  14  20
ENDBRANCH   3   7
BRANCH   1  23
ATOM     23  O   UNL d   1      25.782 -16.764  -1.183  0.00  0.00    -0.349 OA
BRANCH  23  24
ATOM     24  C   UNL d   1      25.274 -17.706  -0.243  0.00  0.00     0.171 C 
ATOM     25  C   UNL d   1      23.886 -18.222  -0.520  0.00  0.00     0.034 C 
ENDBRANCH  23  24
ENDBRANCH   1  23
BRANCH   6  26
ATOM     26  O   UNL d   1      25.868 -13.672  -2.303  0.00  0.00    -0.346 OA
BRANCH  26  27
ATOM     27  C   UNL d   1      25.439 -14.632  -3.196  0.00  0.00     0.201 C 
BRANCH  27  28
ATOM     28  C   UNL d   1      25.690 -14.553  -4.667  0.00  0.00     0.194 C 
BRANCH  28  29
ATOM     29  O   UNL d   1      26.655 -15.575  -5.020  0.00  0.00    -0.387 OA
BRANCH  29  30
ATOM     30  C   UNL d   1      27.888 -14.935  -5.335  0.00  0.00     0.194 C 
BRANCH  30  31
ATOM     31  C   UNL d   1      29.094 -15.510  -4.596  0.00  0.00     0.201 C 
BRANCH  31  32
ATOM     32  O   UNL d   1      28.576 -16.276  -3.501  0.00  0.00    -0.349 OA
BRANCH  32  33
ATOM     33  C   UNL d   1      29.226 -16.154  -2.305  0.00  0.00     0.068 A 
ATOM     34  C   UNL d   1      29.802 -14.907  -2.044  0.00  0.00     0.037 A 
ATOM     35  C   UNL d   1      30.603 -14.721  -0.915  0.00  0.00     0.003 A 
ATOM     36  C   UNL d   1      30.778 -15.762  -0.008  0.00  0.00     0.000 A 
ATOM     37  C   UNL d   1      30.196 -17.004  -0.259  0.00  0.00     0.003 A 
ATOM     38  C   UNL d   1      29.434 -17.204  -1.413  0.00  0.00     0.037 A 
ENDBRANCH  32  33
ENDBRANCH  31  32
ENDBRANCH  30  31
ENDBRANCH  29  30
ENDBRANCH  28  29
ENDBRANCH  27  28
ENDBRANCH  26  27
ENDBRANCH   6  26
TORSDOF 13
ENDMDL
