MODEL 1
REMARK VINA RESULT:    -8.670      0.000      0.000
REMARK INTER + INTRA:         -11.067
REMARK INTER:                  -9.863
REMARK INTRA:                  -1.204
REMARK CONF_INDEPENDENT:        1.193
REMARK UNBOUND:                -1.204
REMARK  4 active torsions:
REMARK  status: ('A' for Active; 'I' for Inactive)
REMARK    1  A    between atoms: C_4  and  C_5 
REMARK       I    between atoms: C_5  and  N_7 
REMARK    2  A    between atoms: N_7  and  N_8 
REMARK       I    between atoms: N_8  and  C_9 
REMARK    3  A    between atoms: C_9  and  C_11 
REMARK    4  A    between atoms: C_15  and  O_16 
ROOT
ATOM      1  N   UNL d   1      22.390 -18.690  -0.079  0.00  0.00    -0.263 N 
ATOM      2  C   UNL d   1      21.030 -18.687  -0.368  0.00  0.00     0.270 C 
ATOM      3  O   UNL d   1      20.548 -18.006  -1.270  0.00  0.00    -0.266 OA
ATOM      4  H   UNL d   1      22.827 -19.327   0.586  0.00  0.00     0.190 HD
ENDROOT
BRANCH   1   5
ATOM      5  N   UNL d   1      23.281 -17.907  -0.882  0.00  0.00    -0.263 N 
ATOM      6  C   UNL d   1      24.637 -17.864  -0.570  0.00  0.00     0.272 C 
ATOM      7  O   UNL d   1      25.082 -18.521   0.376  0.00  0.00    -0.266 OA
ATOM      8  H   UNL d   1      22.857 -17.388  -1.646  0.00  0.00     0.190 HD
BRANCH   6   9
ATOM      9  C   UNL d   1      25.494 -17.001  -1.403  0.00  0.00     0.065 A 
ATOM     10  C   UNL d   1      25.185 -16.259  -2.594  0.00  0.00     0.052 A 
ATOM     11  C   UNL d   1      26.322 -15.567  -2.962  0.00  0.00     0.050 A 
ATOM     12  C   UNL d   1      26.646 -14.600  -4.036  0.00  0.00     0.076 C 
ATOM     13  O   UNL d   1      27.330 -15.858  -2.102  0.00  0.00    -0.319 OA
ATOM     14  C   UNL d   1      26.839 -16.718  -1.165  0.00  0.00     0.065 A 
ATOM     15  C   UNL d   1      27.834 -17.116  -0.141  0.00  0.00     0.077 C 
ENDBRANCH   6   9
ENDBRANCH   1   5
BRANCH   2  16
ATOM     16  C   UNL d   1      20.146 -19.571   0.462  0.00  0.00     0.036 A 
ATOM     17  C   UNL d   1      20.280 -19.642   1.854  0.00  0.00     0.017 A 
ATOM     18  C   UNL d   1      19.415 -20.451   2.609  0.00  0.00     0.004 A 
ATOM     19  C   UNL d   1      18.405 -21.190   1.986  0.00  0.00     0.036 A 
ATOM     20  C   UNL d   1      18.258 -21.098   0.606  0.00  0.00     0.066 A 
ATOM     21  C   UNL d   1      19.111 -20.293  -0.155  0.00  0.00     0.053 A 
BRANCH  20  22
ATOM     22  O   UNL d   1      17.280 -21.789  -0.052  0.00  0.00    -0.361 OA
ATOM     23  H   UNL d   1      17.185 -22.676   0.335  0.00  0.00     0.217 HD
ENDBRANCH  20  22
ENDBRANCH   2  16
TORSDOF 4
ENDMDL
MODEL 2
REMARK VINA RESULT:    -8.222      0.908      1.547
REMARK INTER + INTRA:         -10.596
REMARK INTER:                  -9.415
REMARK INTRA:                  -1.181
REMARK CONF_INDEPENDENT:        1.193
REMARK UNBOUND:                -1.181
REMARK  4 active torsions:
REMARK  status: ('A' for Active; 'I' for Inactive)
REMARK    1  A    between atoms: C_4  and  C_5 
REMARK       I    between atoms: C_5  and  N_7 
REMARK    2  A    between atoms: N_7  and  N_8 
REMARK       I    between atoms: N_8  and  C_9 
REMARK    3  A    between atoms: C_9  and  C_11 
REMARK    4  A    between atoms: C_15  and  O_16 
ROOT
ATOM      1  N   UNL d   1      22.621 -18.771   0.024  0.00  0.00    -0.263 N 
ATOM      2  C   UNL d   1      21.295 -18.631  -0.371  0.00  0.00     0.270 C 
ATOM      3  O   UNL d   1      20.951 -17.867  -1.270  0.00  0.00    -0.266 OA
ATOM      4  H   UNL d   1      22.943 -19.475   0.686  0.00  0.00     0.190 HD
ENDROOT
BRANCH   1   5
ATOM      5  N   UNL d   1      23.640 -18.036  -0.663  0.00  0.00    -0.263 N 
ATOM      6  C   UNL d   1      24.926 -17.974  -0.132  0.00  0.00     0.272 C 
ATOM      7  O   UNL d   1      25.201 -18.575   0.911  0.00  0.00    -0.266 OA
ATOM      8  H   UNL d   1      23.354 -17.562  -1.515  0.00  0.00     0.190 HD
BRANCH   6   9
ATOM      9  C   UNL d   1      25.917 -17.161  -0.859  0.00  0.00     0.065 A 
ATOM     10  C   UNL d   1      27.351 -17.254  -0.891  0.00  0.00     0.052 A 
ATOM     11  C   UNL d   1      27.813 -16.292  -1.768  0.00  0.00     0.050 A 
ATOM     12  C   UNL d   1      29.149 -15.911  -2.279  0.00  0.00     0.076 C 
ATOM     13  O   UNL d   1      26.766 -15.580  -2.255  0.00  0.00    -0.319 OA
ATOM     14  C   UNL d   1      25.626 -16.096  -1.713  0.00  0.00     0.065 A 
ATOM     15  C   UNL d   1      24.389 -15.421  -2.170  0.00  0.00     0.077 C 
ENDBRANCH   6   9
ENDBRANCH   1   5
BRANCH   2  16
ATOM     16  C   UNL d   1      20.271 -19.467   0.338  0.00  0.00     0.036 A 
ATOM     17  C   UNL d   1      20.280 -19.613   1.731  0.00  0.00     0.017 A 
ATOM     18  C   UNL d   1      19.288 -20.374   2.371  0.00  0.00     0.004 A 
ATOM     19  C   UNL d   1      18.275 -20.991   1.630  0.00  0.00     0.036 A 
ATOM     20  C   UNL d   1      18.255 -20.825   0.250  0.00  0.00     0.066 A 
ATOM     21  C   UNL d   1      19.235 -20.066  -0.397  0.00  0.00     0.053 A 
BRANCH  20  22
ATOM     22  O   UNL d   1      17.280 -21.395  -0.520  0.00  0.00    -0.361 OA
ATOM     23  H   UNL d   1      16.933 -22.189  -0.078  0.00  0.00     0.217 HD
ENDBRANCH  20  22
ENDBRANCH   2  16
TORSDOF 4
ENDMDL
MODEL 3
REMARK VINA RESULT:    -6.702      2.984      9.333
REMARK INTER + INTRA:          -9.125
REMARK INTER:                  -7.895
REMARK INTRA:                  -1.230
REMARK CONF_INDEPENDENT:        1.193
REMARK UNBOUND:                -1.230
REMARK  4 active torsions:
REMARK  status: ('A' for Active; 'I' for Inactive)
REMARK    1  A    between atoms: C_4  and  C_5 
REMARK       I    between atoms: C_5  and  N_7 
REMARK    2  A    between atoms: N_7  and  N_8 
REMARK       I    between atoms: N_8  and  C_9 
REMARK    3  A    between atoms: C_9  and  C_11 
REMARK    4  A    between atoms: C_15  and  O_16 
ROOT
ATOM      1  N   UNL d   1      26.098 -14.995  -3.466  0.00  0.00    -0.263 N 
ATOM      2  C   UNL d   1      26.307 -15.050  -4.839  0.00  0.00     0.270 C 
ATOM      3  O   UNL d   1      25.851 -15.950  -5.541  0.00  0.00    -0.266 OA
ATOM      4  H   UNL d   1      26.370 -14.205  -2.883  0.00  0.00     0.190 HD
ENDROOT
BRANCH   1   5
ATOM      5  N   UNL d   1      25.287 -15.994  -2.838  0.00  0.00    -0.263 N 
ATOM      6  C   UNL d   1      25.061 -15.940  -1.464  0.00  0.00     0.272 C 
ATOM      7  O   UNL d   1      25.530 -15.018  -0.790  0.00  0.00    -0.266 OA
ATOM      8  H   UNL d   1      24.929 -16.728  -3.443  0.00  0.00     0.190 HD
BRANCH   6   9
ATOM      9  C   UNL d   1      24.260 -17.024  -0.870  0.00  0.00     0.065 A 
ATOM     10  C   UNL d   1      22.840 -17.245  -0.884  0.00  0.00     0.052 A 
ATOM     11  C   UNL d   1      22.596 -18.435  -0.226  0.00  0.00     0.050 A 
ATOM     12  C   UNL d   1      21.382 -19.237   0.048  0.00  0.00     0.076 C 
ATOM     13  O   UNL d   1      23.764 -18.951   0.231  0.00  0.00    -0.319 OA
ATOM     14  C   UNL d   1      24.766 -18.109  -0.152  0.00  0.00     0.065 A 
ATOM     15  C   UNL d   1      26.114 -18.556   0.270  0.00  0.00     0.077 C 
ENDBRANCH   6   9
ENDBRANCH   1   5
BRANCH   2  16
ATOM     16  C   UNL d   1      27.112 -13.947  -5.460  0.00  0.00     0.036 A 
ATOM     17  C   UNL d   1      26.872 -12.601  -5.153  0.00  0.00     0.017 A 
ATOM     18  C   UNL d   1      27.665 -11.592  -5.723  0.00  0.00     0.004 A 
ATOM     19  C   UNL d   1      28.707 -11.913  -6.598  0.00  0.00     0.036 A 
ATOM     20  C   UNL d   1      28.959 -13.251  -6.882  0.00  0.00     0.066 A 
ATOM     21  C   UNL d   1      28.178 -14.264  -6.318  0.00  0.00     0.053 A 
BRANCH  20  22
ATOM     22  O   UNL d   1      29.973 -13.620  -7.719  0.00  0.00    -0.361 OA
ATOM     23  H   UNL d   1      29.606 -13.954  -8.556  0.00  0.00     0.217 HD
ENDBRANCH  20  22
ENDBRANCH   2  16
TORSDOF 4
ENDMDL
MODEL 4
REMARK VINA RESULT:    -6.565      1.793      2.187
REMARK INTER + INTRA:          -8.334
REMARK INTER:                  -7.759
REMARK INTRA:                  -0.575
REMARK CONF_INDEPENDENT:        1.193
REMARK UNBOUND:                -0.575
REMARK  4 active torsions:
REMARK  status: ('A' for Active; 'I' for Inactive)
REMARK    1  A    between atoms: C_4  and  C_5 
REMARK       I    between atoms: C_5  and  N_7 
REMARK    2  A    between atoms: N_7  and  N_8 
REMARK       I    between atoms: N_8  and  C_9 
REMARK    3  A    between atoms: C_9  and  C_11 
REMARK    4  A    between atoms: C_15  and  O_16 
ROOT
ATOM      1  N   UNL d   1      22.738 -17.673   0.302  0.00  0.00    -0.263 N 
ATOM      2  C   UNL d   1      22.340 -18.888  -0.247  0.00  0.00     0.270 C 
ATOM      3  O   UNL d   1      23.075 -19.558  -0.969  0.00  0.00    -0.266 OA
ATOM      4  H   UNL d   1      22.191 -17.156   0.988  0.00  0.00     0.190 HD
ENDROOT
BRANCH   1   5
ATOM      5  N   UNL d   1      24.066 -17.195   0.062  0.00  0.00    -0.263 N 
ATOM      6  C   UNL d   1      24.295 -16.267  -0.951  0.00  0.00     0.272 C 
ATOM      7  O   UNL d   1      23.356 -15.831  -1.623  0.00  0.00    -0.266 OA
ATOM      8  H   UNL d   1      24.797 -17.591   0.646  0.00  0.00     0.190 HD
BRANCH   6   9
ATOM      9  C   UNL d   1      25.690 -15.852  -1.181  0.00  0.00     0.065 A 
ATOM     10  C   UNL d   1      26.216 -14.686  -1.836  0.00  0.00     0.052 A 
ATOM     11  C   UNL d   1      27.593 -14.738  -1.742  0.00  0.00     0.050 A 
ATOM     12  C   UNL d   1      28.695 -13.838  -2.151  0.00  0.00     0.076 C 
ATOM     13  O   UNL d   1      27.963 -15.878  -1.107  0.00  0.00    -0.319 OA
ATOM     14  C   UNL d   1      26.825 -16.551  -0.768  0.00  0.00     0.065 A 
ATOM     15  C   UNL d   1      27.076 -17.821  -0.048  0.00  0.00     0.077 C 
ENDBRANCH   6   9
ENDBRANCH   1   5
BRANCH   2  16
ATOM     16  C   UNL d   1      20.961 -19.376   0.083  0.00  0.00     0.036 A 
ATOM     17  C   UNL d   1      19.984 -19.540  -0.908  0.00  0.00     0.017 A 
ATOM     18  C   UNL d   1      18.712 -20.033  -0.575  0.00  0.00     0.004 A 
ATOM     19  C   UNL d   1      18.403 -20.373   0.746  0.00  0.00     0.036 A 
ATOM     20  C   UNL d   1      19.382 -20.233   1.723  0.00  0.00     0.066 A 
ATOM     21  C   UNL d   1      20.653 -19.747   1.402  0.00  0.00     0.053 A 
BRANCH  20  22
ATOM     22  O   UNL d   1      19.137 -20.564   3.026  0.00  0.00    -0.361 OA
ATOM     23  H   UNL d   1      19.975 -20.611   3.517  0.00  0.00     0.217 HD
ENDBRANCH  20  22
ENDBRANCH   2  16
TORSDOF 4
ENDMDL
MODEL 5
REMARK VINA RESULT:    -6.508      1.177      8.097
REMARK INTER + INTRA:          -8.837
REMARK INTER:                  -7.701
REMARK INTRA:                  -1.136
REMARK CONF_INDEPENDENT:        1.193
REMARK UNBOUND:                -1.136
REMARK  4 active torsions:
REMARK  status: ('A' for Active; 'I' for Inactive)
REMARK    1  A    between atoms: C_4  and  C_5 
REMARK       I    between atoms: C_5  and  N_7 
REMARK    2  A    between atoms: N_7  and  N_8 
REMARK       I    between atoms: N_8  and  C_9 
REMARK    3  A    between atoms: C_9  and  C_11 
REMARK    4  A    between atoms: C_15  and  O_16 
ROOT
ATOM      1  N   UNL d   1      23.575 -17.866  -0.573  0.00  0.00    -0.263 N 
ATOM      2  C   UNL d   1      24.791 -17.882   0.100  0.00  0.00     0.270 C 
ATOM      3  O   UNL d   1      24.985 -18.575   1.097  0.00  0.00    -0.266 OA
ATOM      4  H   UNL d   1      23.426 -17.389  -1.461  0.00  0.00     0.190 HD
ENDROOT
BRANCH   1   5
ATOM      5  N   UNL d   1      22.512 -18.716  -0.127  0.00  0.00    -0.263 N 
ATOM      6  C   UNL d   1      21.202 -18.450  -0.517  0.00  0.00     0.272 C 
ATOM      7  O   UNL d   1      20.955 -17.503  -1.270  0.00  0.00    -0.266 OA
ATOM      8  H   UNL d   1      22.777 -19.477   0.492  0.00  0.00     0.190 HD
BRANCH   6   9
ATOM      9  C   UNL d   1      20.148 -19.330   0.017  0.00  0.00     0.065 A 
ATOM     10  C   UNL d   1      19.099 -20.040  -0.663  0.00  0.00     0.052 A 
ATOM     11  C   UNL d   1      18.406 -20.769   0.284  0.00  0.00     0.050 A 
ATOM     12  C   UNL d   1      17.280 -21.729   0.233  0.00  0.00     0.076 C 
ATOM     13  O   UNL d   1      18.927 -20.530   1.513  0.00  0.00    -0.319 OA
ATOM     14  C   UNL d   1      19.973 -19.668   1.360  0.00  0.00     0.065 A 
ATOM     15  C   UNL d   1      20.655 -19.325   2.629  0.00  0.00     0.077 C 
ENDBRANCH   6   9
ENDBRANCH   1   5
BRANCH   2  16
ATOM     16  C   UNL d   1      25.893 -17.021  -0.442  0.00  0.00     0.036 A 
ATOM     17  C   UNL d   1      27.169 -17.012   0.136  0.00  0.00     0.017 A 
ATOM     18  C   UNL d   1      28.191 -16.223  -0.415  0.00  0.00     0.004 A 
ATOM     19  C   UNL d   1      27.955 -15.440  -1.549  0.00  0.00     0.036 A 
ATOM     20  C   UNL d   1      26.694 -15.470  -2.136  0.00  0.00     0.066 A 
ATOM     21  C   UNL d   1      25.670 -16.255  -1.598  0.00  0.00     0.053 A 
BRANCH  20  22
ATOM     22  O   UNL d   1      26.413 -14.735  -3.253  0.00  0.00    -0.361 OA
ATOM     23  H   UNL d   1      26.478 -13.787  -3.049  0.00  0.00     0.217 HD
ENDBRANCH  20  22
ENDBRANCH   2  16
TORSDOF 4
ENDMDL
MODEL 6
REMARK VINA RESULT:    -6.154      3.475      9.139
REMARK INTER + INTRA:          -8.552
REMARK INTER:                  -7.347
REMARK INTRA:                  -1.205
REMARK CONF_INDEPENDENT:        1.193
REMARK UNBOUND:                -1.205
REMARK  4 active torsions:
REMARK  status: ('A' for Active; 'I' for Inactive)
REMARK    1  A    between atoms: C_4  and  C_5 
REMARK       I    between atoms: C_5  and  N_7 
REMARK    2  A    between atoms: N_7  and  N_8 
REMARK       I    between atoms: N_8  and  C_9 
REMARK    3  A    between atoms: C_9  and  C_11 
REMARK    4  A    between atoms: C_15  and  O_16 
ROOT
ATOM      1  N   UNL d   1      25.469 -13.839  -2.618  0.00  0.00    -0.263 N 
ATOM      2  C   UNL d   1      25.173 -13.306  -3.868  0.00  0.00     0.270 C 
ATOM      3  O   UNL d   1      24.386 -13.842  -4.646  0.00  0.00    -0.266 OA
ATOM      4  H   UNL d   1      26.028 -13.359  -1.916  0.00  0.00     0.190 HD
ENDROOT
BRANCH   1   5
ATOM      5  N   UNL d   1      24.807 -15.035  -2.190  0.00  0.00    -0.263 N 
ATOM      6  C   UNL d   1      25.096 -15.577  -0.940  0.00  0.00     0.272 C 
ATOM      7  O   UNL d   1      25.897 -15.015  -0.186  0.00  0.00    -0.266 OA
ATOM      8  H   UNL d   1      24.160 -15.452  -2.853  0.00  0.00     0.190 HD
BRANCH   6   9
ATOM      9  C   UNL d   1      24.421 -16.835  -0.578  0.00  0.00     0.065 A 
ATOM     10  C   UNL d   1      23.033 -17.198  -0.653  0.00  0.00     0.052 A 
ATOM     11  C   UNL d   1      22.922 -18.513  -0.242  0.00  0.00     0.050 A 
ATOM     12  C   UNL d   1      21.803 -19.477  -0.144  0.00  0.00     0.076 C 
ATOM     13  O   UNL d   1      24.142 -18.981   0.121  0.00  0.00    -0.319 OA
ATOM     14  C   UNL d   1      25.046 -17.978  -0.078  0.00  0.00     0.065 A 
ATOM     15  C   UNL d   1      26.437 -18.354   0.265  0.00  0.00     0.077 C 
ENDBRANCH   6   9
ENDBRANCH   1   5
BRANCH   2  16
ATOM     16  C   UNL d   1      25.845 -12.019  -4.247  0.00  0.00     0.036 A 
ATOM     17  C   UNL d   1      26.733 -11.946  -5.328  0.00  0.00     0.017 A 
ATOM     18  C   UNL d   1      27.319 -10.720  -5.681  0.00  0.00     0.004 A 
ATOM     19  C   UNL d   1      27.024  -9.556  -4.966  0.00  0.00     0.036 A 
ATOM     20  C   UNL d   1      26.124  -9.626  -3.908  0.00  0.00     0.066 A 
ATOM     21  C   UNL d   1      25.530 -10.841  -3.550  0.00  0.00     0.053 A 
BRANCH  20  22
ATOM     22  O   UNL d   1      25.789  -8.517  -3.185  0.00  0.00    -0.361 OA
ATOM     23  H   UNL d   1      24.822  -8.444  -3.121  0.00  0.00     0.217 HD
ENDBRANCH  20  22
ENDBRANCH   2  16
TORSDOF 4
ENDMDL
MODEL 7
REMARK VINA RESULT:    -6.135      9.489     10.474
REMARK INTER + INTRA:          -8.582
REMARK INTER:                  -7.328
REMARK INTRA:                  -1.254
REMARK CONF_INDEPENDENT:        1.193
REMARK UNBOUND:                -1.254
REMARK  4 active torsions:
REMARK  status: ('A' for Active; 'I' for Inactive)
REMARK    1  A    between atoms: C_4  and  C_5 
REMARK       I    between atoms: C_5  and  N_7 
REMARK    2  A    between atoms: N_7  and  N_8 
REMARK       I    between atoms: N_8  and  C_9 
REMARK    3  A    between atoms: C_9  and  C_11 
REMARK    4  A    between atoms: C_15  and  O_16 
ROOT
ATOM      1  N   UNL d   1      31.732 -20.990   1.094  0.00  0.00    -0.263 N 
ATOM      2  C   UNL d   1      30.985 -21.507   2.146  0.00  0.00     0.270 C 
ATOM      3  O   UNL d   1      29.877 -22.015   1.983  0.00  0.00    -0.266 OA
ATOM      4  H   UNL d   1      32.694 -20.667   1.187  0.00  0.00     0.190 HD
ENDROOT
BRANCH   1   5
ATOM      5  N   UNL d   1      31.225 -21.086  -0.242  0.00  0.00    -0.263 N 
ATOM      6  C   UNL d   1      32.047 -20.766  -1.319  0.00  0.00     0.272 C 
ATOM      7  O   UNL d   1      33.220 -20.429  -1.131  0.00  0.00    -0.266 OA
ATOM      8  H   UNL d   1      30.253 -21.367  -0.334  0.00  0.00     0.190 HD
BRANCH   6   9
ATOM      9  C   UNL d   1      31.453 -20.836  -2.665  0.00  0.00     0.065 A 
ATOM     10  C   UNL d   1      31.421 -19.859  -3.719  0.00  0.00     0.052 A 
ATOM     11  C   UNL d   1      30.787 -20.433  -4.803  0.00  0.00     0.050 A 
ATOM     12  C   UNL d   1      30.490 -19.991  -6.184  0.00  0.00     0.076 C 
ATOM     13  O   UNL d   1      30.387 -21.689  -4.484  0.00  0.00    -0.319 OA
ATOM     14  C   UNL d   1      30.783 -21.937  -3.202  0.00  0.00     0.065 A 
ATOM     15  C   UNL d   1      30.423 -23.290  -2.718  0.00  0.00     0.077 C 
ENDBRANCH   6   9
ENDBRANCH   1   5
BRANCH   2  16
ATOM     16  C   UNL d   1      31.585 -21.438   3.519  0.00  0.00     0.036 A 
ATOM     17  C   UNL d   1      32.953 -21.200   3.711  0.00  0.00     0.017 A 
ATOM     18  C   UNL d   1      33.480 -21.106   5.008  0.00  0.00     0.004 A 
ATOM     19  C   UNL d   1      32.652 -21.241   6.127  0.00  0.00     0.036 A 
ATOM     20  C   UNL d   1      31.291 -21.452   5.934  0.00  0.00     0.066 A 
ATOM     21  C   UNL d   1      30.754 -21.544   4.647  0.00  0.00     0.053 A 
BRANCH  20  22
ATOM     22  O   UNL d   1      30.435 -21.578   6.992  0.00  0.00    -0.361 OA
ATOM     23  H   UNL d   1      29.876 -22.364   6.872  0.00  0.00     0.217 HD
ENDBRANCH  20  22
ENDBRANCH   2  16
TORSDOF 4
ENDMDL
MODEL 8
REMARK VINA RESULT:    -6.071      4.046      6.630
REMARK INTER + INTRA:          -8.479
REMARK INTER:                  -7.264
REMARK INTRA:                  -1.215
REMARK CONF_INDEPENDENT:        1.193
REMARK UNBOUND:                -1.215
REMARK  4 active torsions:
REMARK  status: ('A' for Active; 'I' for Inactive)
REMARK    1  A    between atoms: C_4  and  C_5 
REMARK       I    between atoms: C_5  and  N_7 
REMARK    2  A    between atoms: N_7  and  N_8 
REMARK       I    between atoms: N_8  and  C_9 
REMARK    3  A    between atoms: C_9  and  C_11 
REMARK    4  A    between atoms: C_15  and  O_16 
ROOT
ATOM      1  N   UNL d   1      26.422 -15.387  -3.508  0.00  0.00    -0.263 N 
ATOM      2  C   UNL d   1      25.225 -15.310  -2.803  0.00  0.00     0.270 C 
ATOM      3  O   UNL d   1      24.378 -14.450  -3.032  0.00  0.00    -0.266 OA
ATOM      4  H   UNL d   1      27.086 -16.153  -3.413  0.00  0.00     0.190 HD
ENDROOT
BRANCH   1   5
ATOM      5  N   UNL d   1      26.670 -14.463  -4.573  0.00  0.00    -0.263 N 
ATOM      6  C   UNL d   1      27.765 -14.653  -5.412  0.00  0.00     0.272 C 
ATOM      7  O   UNL d   1      28.505 -15.630  -5.263  0.00  0.00    -0.266 OA
ATOM      8  H   UNL d   1      26.028 -13.678  -4.645  0.00  0.00     0.190 HD
BRANCH   6   9
ATOM      9  C   UNL d   1      27.996 -13.640  -6.458  0.00  0.00     0.065 A 
ATOM     10  C   UNL d   1      28.803 -13.699  -7.645  0.00  0.00     0.052 A 
ATOM     11  C   UNL d   1      28.641 -12.505  -8.321  0.00  0.00     0.050 A 
ATOM     12  C   UNL d   1      29.138 -11.966  -9.607  0.00  0.00     0.076 C 
ATOM     13  O   UNL d   1      27.818 -11.691  -7.615  0.00  0.00    -0.319 OA
ATOM     14  C   UNL d   1      27.428 -12.366  -6.496  0.00  0.00     0.065 A 
ATOM     15  C   UNL d   1      26.506 -11.598  -5.627  0.00  0.00     0.077 C 
ENDBRANCH   6   9
ENDBRANCH   1   5
BRANCH   2  16
ATOM     16  C   UNL d   1      24.984 -16.338  -1.737  0.00  0.00     0.036 A 
ATOM     17  C   UNL d   1      26.037 -17.064  -1.166  0.00  0.00     0.017 A 
ATOM     18  C   UNL d   1      25.785 -17.995  -0.145  0.00  0.00     0.004 A 
ATOM     19  C   UNL d   1      24.484 -18.208   0.320  0.00  0.00     0.036 A 
ATOM     20  C   UNL d   1      23.443 -17.469  -0.232  0.00  0.00     0.066 A 
ATOM     21  C   UNL d   1      23.683 -16.536  -1.246  0.00  0.00     0.053 A 
BRANCH  20  22
ATOM     22  O   UNL d   1      22.155 -17.627   0.195  0.00  0.00    -0.361 OA
ATOM     23  H   UNL d   1      21.997 -17.075   0.980  0.00  0.00     0.217 HD
ENDBRANCH  20  22
ENDBRANCH   2  16
TORSDOF 4
ENDMDL
MODEL 9
REMARK VINA RESULT:    -6.025      3.090      5.339
REMARK INTER + INTRA:          -8.423
REMARK INTER:                  -7.218
REMARK INTRA:                  -1.205
REMARK CONF_INDEPENDENT:        1.193
REMARK UNBOUND:                -1.205
REMARK  4 active torsions:
REMARK  status: ('A' for Active; 'I' for Inactive)
REMARK    1  A    between atoms: C_4  and  C_5 
REMARK       I    between atoms: C_5  and  N_7 
REMARK    2  A    between atoms: N_7  and  N_8 
REMARK       I    between atoms: N_8  and  C_9 
REMARK    3  A    between atoms: C_9  and  C_11 
REMARK    4  A    between atoms: C_15  and  O_16 
ROOT
ATOM      1  N   UNL d   1      24.646 -15.280  -2.284  0.00  0.00    -0.263 N 
ATOM      2  C   UNL d   1      24.727 -15.912  -1.048  0.00  0.00     0.270 C 
ATOM      3  O   UNL d   1      25.485 -15.530  -0.159  0.00  0.00    -0.266 OA
ATOM      4  H   UNL d   1      23.950 -15.508  -2.992  0.00  0.00     0.190 HD
ENDROOT
BRANCH   1   5
ATOM      5  N   UNL d   1      25.437 -14.111  -2.529  0.00  0.00    -0.263 N 
ATOM      6  C   UNL d   1      25.388 -13.491  -3.774  0.00  0.00     0.272 C 
ATOM      7  O   UNL d   1      24.643 -13.924  -4.659  0.00  0.00    -0.266 OA
ATOM      8  H   UNL d   1      26.030 -13.803  -1.764  0.00  0.00     0.190 HD
BRANCH   6   9
ATOM      9  C   UNL d   1      26.262 -12.323  -3.981  0.00  0.00     0.065 A 
ATOM     10  C   UNL d   1      26.252 -11.032  -3.349  0.00  0.00     0.052 A 
ATOM     11  C   UNL d   1      27.313 -10.309  -3.859  0.00  0.00     0.050 A 
ATOM     12  C   UNL d   1      27.877  -8.967  -3.590  0.00  0.00     0.076 C 
ATOM     13  O   UNL d   1      27.961 -11.048  -4.793  0.00  0.00    -0.319 OA
ATOM     14  C   UNL d   1      27.335 -12.258  -4.871  0.00  0.00     0.065 A 
ATOM     15  C   UNL d   1      27.948 -13.184  -5.851  0.00  0.00     0.077 C 
ENDBRANCH   6   9
ENDBRANCH   1   5
BRANCH   2  16
ATOM     16  C   UNL d   1      23.834 -17.095  -0.817  0.00  0.00     0.036 A 
ATOM     17  C   UNL d   1      24.345 -18.327  -0.388  0.00  0.00     0.017 A 
ATOM     18  C   UNL d   1      23.480 -19.407  -0.146  0.00  0.00     0.004 A 
ATOM     19  C   UNL d   1      22.100 -19.269  -0.323  0.00  0.00     0.036 A 
ATOM     20  C   UNL d   1      21.593 -18.038  -0.725  0.00  0.00     0.066 A 
ATOM     21  C   UNL d   1      22.444 -16.955  -0.965  0.00  0.00     0.053 A 
BRANCH  20  22
ATOM     22  O   UNL d   1      20.252 -17.845  -0.899  0.00  0.00    -0.361 OA
ATOM     23  H   UNL d   1      20.092 -17.386  -1.741  0.00  0.00     0.217 HD
ENDBRANCH  20  22
ENDBRANCH   2  16
TORSDOF 4
ENDMDL
