MODEL 1
REMARK VINA RESULT:    -6.357      0.000      0.000
REMARK INTER + INTRA:         -10.605
REMARK INTER:                  -8.147
REMARK INTRA:                  -2.458
REMARK CONF_INDEPENDENT:        1.790
REMARK UNBOUND:                -2.458
REMARK  6 active torsions:
REMARK  status: ('A' for Active; 'I' for Inactive)
REMARK    1  A    between atoms: C_4  and  O_5 
REMARK    2  A    between atoms: C_6  and  C_7 
REMARK    3  A    between atoms: C_12  and  C_13 
REMARK    4  A    between atoms: N_20  and  C_21 
REMARK    5  A    between atoms: C_21  and  C_22 
REMARK    6  A    between atoms: C_22  and  O_23 
ROOT
ATOM      1  C   UNL d   1      26.583 -13.459  -4.791  0.00  0.00     0.074 A 
ATOM      2  N   UNL d   1      25.989 -12.322  -5.298  0.00  0.00    -0.276 N 
ATOM      3  N   UNL d   1      26.601 -11.823  -6.416  0.00  0.00    -0.168 NA
ATOM      4  C   UNL d   1      27.569 -12.716  -6.640  0.00  0.00     0.155 A 
ATOM      5  C   UNL d   1      27.585 -13.725  -5.683  0.00  0.00     0.035 A 
ATOM      6  C   UNL d   1      28.677 -14.671  -5.954  0.00  0.00     0.162 C 
ATOM      7  N   UNL d   1      29.482 -13.904  -6.937  0.00  0.00    -0.331 N 
ATOM      8  C   UNL d   1      28.711 -12.876  -7.534  0.00  0.00     0.275 C 
ATOM      9  O   UNL d   1      28.971 -12.248  -8.556  0.00  0.00    -0.266 OA
ATOM     10  H   UNL d   1      25.187 -11.835  -4.909  0.00  0.00     0.189 HD
ENDROOT
BRANCH   1  11
ATOM     11  C   UNL d   1      26.146 -14.197  -3.616  0.00  0.00     0.028 C 
ATOM     12  C   UNL d   1      24.796 -14.386  -3.335  0.00  0.00     0.078 C 
ATOM     13  C   UNL d   1      24.403 -15.278  -2.335  0.00  0.00     0.045 C 
ATOM     14  C   UNL d   1      25.356 -16.088  -1.691  0.00  0.00    -0.038 C 
ATOM     15  C   UNL d   1      24.934 -17.197  -0.774  0.00  0.00     0.050 C 
ATOM     16  C   UNL d   1      26.710 -15.856  -1.933  0.00  0.00     0.041 C 
ATOM     17  C   UNL d   1      27.088 -14.855  -2.820  0.00  0.00     0.041 C 
ATOM     18 CL   UNL d   1      27.939 -16.804  -1.174  0.00  0.00    -0.084 Cl
BRANCH  12  19
ATOM     19  O   UNL d   1      23.873 -13.700  -4.076  0.00  0.00    -0.360 OA
ATOM     20  H   UNL d   1      24.005 -13.883  -5.020  0.00  0.00     0.217 HD
ENDBRANCH  12  19
ENDBRANCH   1  11
BRANCH   6  21
ATOM     21  C   UNL d   1      29.342 -14.969  -4.654  0.00  0.00     0.008 A 
ATOM     22  C   UNL d   1      29.772 -13.946  -3.783  0.00  0.00     0.012 A 
ATOM     23  C   UNL d   1      30.620 -14.249  -2.722  0.00  0.00     0.001 A 
ATOM     24  C   UNL d   1      30.965 -15.577  -2.465  0.00  0.00     0.003 A 
ATOM     25  C   UNL d   1      30.441 -16.609  -3.247  0.00  0.00     0.043 A 
ATOM     26  C   UNL d   1      29.668 -16.298  -4.355  0.00  0.00     0.125 A 
ATOM     27  F   UNL d   1      29.310 -17.281  -5.195  0.00  0.00    -0.205 F 
ENDBRANCH   6  21
BRANCH   7  28
ATOM     28  C   UNL d   1      30.917 -14.137  -7.210  0.00  0.00     0.153 C 
BRANCH  28  29
ATOM     29  C   UNL d   1      31.684 -13.026  -7.954  0.00  0.00     0.184 C 
BRANCH  29  30
ATOM     30  O   UNL d   1      31.465 -12.996  -9.354  0.00  0.00    -0.399 OA
ATOM     31  H   UNL d   1      30.572 -13.325  -9.527  0.00  0.00     0.209 HD
ENDBRANCH  29  30
ENDBRANCH  28  29
ENDBRANCH   7  28
TORSDOF 6
ENDMDL
MODEL 2
REMARK VINA RESULT:    -6.280      4.293      7.545
REMARK INTER + INTRA:         -10.967
REMARK INTER:                  -8.070
REMARK INTRA:                  -2.898
REMARK CONF_INDEPENDENT:        1.790
REMARK UNBOUND:                -2.898
REMARK  6 active torsions:
REMARK  status: ('A' for Active; 'I' for Inactive)
REMARK    1  A    between atoms: C_4  and  O_5 
REMARK    2  A    between atoms: C_6  and  C_7 
REMARK    3  A    between atoms: C_12  and  C_13 
REMARK    4  A    between atoms: N_20  and  C_21 
REMARK    5  A    between atoms: C_21  and  C_22 
REMARK    6  A    between atoms: C_22  and  O_23 
ROOT
ATOM      1  C   UNL d   1      27.965 -16.965  -1.207  0.00  0.00     0.074 A 
ATOM      2  N   UNL d   1      28.358 -17.693  -0.103  0.00  0.00    -0.276 N 
ATOM      3  N   UNL d   1      27.322 -18.223   0.616  0.00  0.00    -0.168 NA
ATOM      4  C   UNL d   1      26.255 -17.861  -0.102  0.00  0.00     0.155 A 
ATOM      5  C   UNL d   1      26.603 -17.106  -1.217  0.00  0.00     0.035 A 
ATOM      6  C   UNL d   1      25.402 -16.709  -1.964  0.00  0.00     0.162 C 
ATOM      7  N   UNL d   1      24.338 -17.010  -0.973  0.00  0.00    -0.331 N 
ATOM      8  C   UNL d   1      24.802 -17.917   0.011  0.00  0.00     0.275 C 
ATOM      9  O   UNL d   1      24.125 -18.574   0.797  0.00  0.00    -0.266 OA
ATOM     10  H   UNL d   1      29.311 -17.836   0.216  0.00  0.00     0.189 HD
ENDROOT
BRANCH   1  11
ATOM     11  C   UNL d   1      28.850 -16.292  -2.144  0.00  0.00     0.028 C 
ATOM     12  C   UNL d   1      30.223 -16.223  -1.927  0.00  0.00     0.078 C 
ATOM     13  C   UNL d   1      31.074 -15.772  -2.939  0.00  0.00     0.045 C 
ATOM     14  C   UNL d   1      30.570 -15.507  -4.225  0.00  0.00    -0.038 C 
ATOM     15  C   UNL d   1      31.493 -15.232  -5.375  0.00  0.00     0.050 C 
ATOM     16  C   UNL d   1      29.190 -15.523  -4.423  0.00  0.00     0.041 C 
ATOM     17  C   UNL d   1      28.346 -15.824  -3.361  0.00  0.00     0.041 C 
ATOM     18 CL   UNL d   1      28.495 -15.200  -5.972  0.00  0.00    -0.084 Cl
BRANCH  12  19
ATOM     19  O   UNL d   1      30.714 -16.629  -0.717  0.00  0.00    -0.360 OA
ATOM     20  H   UNL d   1      30.148 -16.296  -0.002  0.00  0.00     0.217 HD
ENDBRANCH  12  19
ENDBRANCH   1  11
BRANCH   6  21
ATOM     21  C   UNL d   1      25.561 -15.276  -2.338  0.00  0.00     0.008 A 
ATOM     22  C   UNL d   1      25.431 -14.833  -3.672  0.00  0.00     0.012 A 
ATOM     23  C   UNL d   1      25.849 -13.552  -4.020  0.00  0.00     0.001 A 
ATOM     24  C   UNL d   1      26.302 -12.675  -3.033  0.00  0.00     0.003 A 
ATOM     25  C   UNL d   1      26.314 -13.064  -1.692  0.00  0.00     0.043 A 
ATOM     26  C   UNL d   1      25.981 -14.368  -1.358  0.00  0.00     0.125 A 
ATOM     27  F   UNL d   1      26.156 -14.780  -0.093  0.00  0.00    -0.205 F 
ENDBRANCH   6  21
BRANCH   7  28
ATOM     28  C   UNL d   1      22.993 -16.394  -0.974  0.00  0.00     0.153 C 
BRANCH  28  29
ATOM     29  C   UNL d   1      21.781 -17.344  -0.897  0.00  0.00     0.184 C 
BRANCH  29  30
ATOM     30  O   UNL d   1      22.083 -18.705  -1.154  0.00  0.00    -0.399 OA
ATOM     31  H   UNL d   1      22.471 -19.084  -0.353  0.00  0.00     0.209 HD
ENDBRANCH  29  30
ENDBRANCH  28  29
ENDBRANCH   7  28
TORSDOF 6
ENDMDL
MODEL 3
REMARK VINA RESULT:    -6.255     10.398     12.059
REMARK INTER + INTRA:         -10.669
REMARK INTER:                  -8.045
REMARK INTRA:                  -2.624
REMARK CONF_INDEPENDENT:        1.790
REMARK UNBOUND:                -2.624
REMARK  6 active torsions:
REMARK  status: ('A' for Active; 'I' for Inactive)
REMARK    1  A    between atoms: C_4  and  O_5 
REMARK    2  A    between atoms: C_6  and  C_7 
REMARK    3  A    between atoms: C_12  and  C_13 
REMARK    4  A    between atoms: N_20  and  C_21 
REMARK    5  A    between atoms: C_21  and  C_22 
REMARK    6  A    between atoms: C_22  and  O_23 
ROOT
ATOM      1  C   UNL d   1      29.632 -10.910   7.365  0.00  0.00     0.074 A 
ATOM      2  N   UNL d   1      30.242  -9.721   7.704  0.00  0.00    -0.276 N 
ATOM      3  N   UNL d   1      29.868  -8.659   6.927  0.00  0.00    -0.168 NA
ATOM      4  C   UNL d   1      28.951  -9.199   6.120  0.00  0.00     0.155 A 
ATOM      5  C   UNL d   1      28.774 -10.557   6.359  0.00  0.00     0.035 A 
ATOM      6  C   UNL d   1      27.776 -11.116   5.436  0.00  0.00     0.162 C 
ATOM      7  N   UNL d   1      27.676 -10.026   4.432  0.00  0.00    -0.331 N 
ATOM      8  C   UNL d   1      28.163  -8.804   4.958  0.00  0.00     0.275 C 
ATOM      9  O   UNL d   1      27.979  -7.675   4.510  0.00  0.00    -0.266 OA
ATOM     10  H   UNL d   1      30.935  -9.585   8.435  0.00  0.00     0.189 HD
ENDROOT
BRANCH   1  11
ATOM     11  C   UNL d   1      29.843 -12.193   8.018  0.00  0.00     0.028 C 
ATOM     12  C   UNL d   1      31.098 -12.795   8.052  0.00  0.00     0.078 C 
ATOM     13  C   UNL d   1      31.323 -13.907   8.866  0.00  0.00     0.045 C 
ATOM     14  C   UNL d   1      30.327 -14.349   9.756  0.00  0.00    -0.038 C 
ATOM     15  C   UNL d   1      30.623 -15.398  10.786  0.00  0.00     0.050 C 
ATOM     16  C   UNL d   1      29.056 -13.781   9.679  0.00  0.00     0.041 C 
ATOM     17  C   UNL d   1      28.806 -12.777   8.751  0.00  0.00     0.041 C 
ATOM     18 CL   UNL d   1      27.779 -14.278  10.733  0.00  0.00    -0.084 Cl
BRANCH  12  19
ATOM     19  O   UNL d   1      32.100 -12.258   7.291  0.00  0.00    -0.360 OA
ATOM     20  H   UNL d   1      32.466 -12.935   6.701  0.00  0.00     0.217 HD
ENDBRANCH  12  19
ENDBRANCH   1  11
BRANCH   6  21
ATOM     21  C   UNL d   1      28.306 -12.417   4.939  0.00  0.00     0.008 A 
ATOM     22  C   UNL d   1      27.693 -13.645   5.265  0.00  0.00     0.012 A 
ATOM     23  C   UNL d   1      28.361 -14.841   5.013  0.00  0.00     0.001 A 
ATOM     24  C   UNL d   1      29.590 -14.825   4.351  0.00  0.00     0.003 A 
ATOM     25  C   UNL d   1      30.143 -13.620   3.913  0.00  0.00     0.043 A 
ATOM     26  C   UNL d   1      29.520 -12.425   4.241  0.00  0.00     0.125 A 
ATOM     27  F   UNL d   1      30.142 -11.270   3.963  0.00  0.00    -0.205 F 
ENDBRANCH   6  21
BRANCH   7  28
ATOM     28  C   UNL d   1      27.196 -10.207   3.044  0.00  0.00     0.153 C 
BRANCH  28  29
ATOM     29  C   UNL d   1      25.908  -9.462   2.640  0.00  0.00     0.184 C 
BRANCH  29  30
ATOM     30  O   UNL d   1      25.974  -8.053   2.782  0.00  0.00    -0.399 OA
ATOM     31  H   UNL d   1      26.835  -7.829   3.162  0.00  0.00     0.209 HD
ENDBRANCH  29  30
ENDBRANCH  28  29
ENDBRANCH   7  28
TORSDOF 6
ENDMDL
MODEL 4
REMARK VINA RESULT:    -6.177      3.990      5.642
REMARK INTER + INTRA:         -11.007
REMARK INTER:                  -7.967
REMARK INTRA:                  -3.040
REMARK CONF_INDEPENDENT:        1.790
REMARK UNBOUND:                -3.040
REMARK  6 active torsions:
REMARK  status: ('A' for Active; 'I' for Inactive)
REMARK    1  A    between atoms: C_4  and  O_5 
REMARK    2  A    between atoms: C_6  and  C_7 
REMARK    3  A    between atoms: C_12  and  C_13 
REMARK    4  A    between atoms: N_20  and  C_21 
REMARK    5  A    between atoms: C_21  and  C_22 
REMARK    6  A    between atoms: C_22  and  O_23 
ROOT
ATOM      1  C   UNL d   1      27.378 -15.094   0.199  0.00  0.00     0.074 A 
ATOM      2  N   UNL d   1      28.355 -15.194   1.166  0.00  0.00    -0.276 N 
ATOM      3  N   UNL d   1      29.069 -14.043   1.362  0.00  0.00    -0.168 NA
ATOM      4  C   UNL d   1      28.471 -13.186   0.528  0.00  0.00     0.155 A 
ATOM      5  C   UNL d   1      27.439 -13.782  -0.187  0.00  0.00     0.035 A 
ATOM      6  C   UNL d   1      26.825 -12.813  -1.106  0.00  0.00     0.162 C 
ATOM      7  N   UNL d   1      27.838 -11.728  -1.094  0.00  0.00    -0.331 N 
ATOM      8  C   UNL d   1      28.671 -11.823   0.048  0.00  0.00     0.275 C 
ATOM      9  O   UNL d   1      29.412 -10.956   0.504  0.00  0.00    -0.266 OA
ATOM     10  H   UNL d   1      28.593 -16.024   1.700  0.00  0.00     0.189 HD
ENDROOT
BRANCH   1  11
ATOM     11  C   UNL d   1      26.475 -16.157  -0.215  0.00  0.00     0.028 C 
ATOM     12  C   UNL d   1      26.828 -17.498  -0.097  0.00  0.00     0.078 C 
ATOM     13  C   UNL d   1      25.872 -18.498  -0.289  0.00  0.00     0.045 C 
ATOM     14  C   UNL d   1      24.519 -18.159  -0.474  0.00  0.00    -0.038 C 
ATOM     15  C   UNL d   1      23.451 -19.213  -0.467  0.00  0.00     0.050 C 
ATOM     16  C   UNL d   1      24.178 -16.818  -0.648  0.00  0.00     0.041 C 
ATOM     17  C   UNL d   1      25.170 -15.846  -0.607  0.00  0.00     0.041 C 
ATOM     18 CL   UNL d   1      22.539 -16.326  -0.888  0.00  0.00    -0.084 Cl
BRANCH  12  19
ATOM     19  O   UNL d   1      28.119 -17.807   0.234  0.00  0.00    -0.360 OA
ATOM     20  H   UNL d   1      28.149 -18.663   0.690  0.00  0.00     0.217 HD
ENDBRANCH  12  19
ENDBRANCH   1  11
BRANCH   6  21
ATOM     21  C   UNL d   1      26.621 -13.503  -2.411  0.00  0.00     0.008 A 
ATOM     22  C   UNL d   1      25.353 -13.578  -3.026  0.00  0.00     0.012 A 
ATOM     23  C   UNL d   1      25.151 -14.450  -4.092  0.00  0.00     0.001 A 
ATOM     24  C   UNL d   1      26.225 -15.174  -4.612  0.00  0.00     0.003 A 
ATOM     25  C   UNL d   1      27.509 -15.010  -4.089  0.00  0.00     0.043 A 
ATOM     26  C   UNL d   1      27.693 -14.208  -2.973  0.00  0.00     0.125 A 
ATOM     27  F   UNL d   1      28.895 -14.188  -2.378  0.00  0.00    -0.205 F 
ENDBRANCH   6  21
BRANCH   7  28
ATOM     28  C   UNL d   1      28.000 -10.720  -2.164  0.00  0.00     0.153 C 
BRANCH  28  29
ATOM     29  C   UNL d   1      29.295 -10.777  -2.999  0.00  0.00     0.184 C 
BRANCH  29  30
ATOM     30  O   UNL d   1      30.403 -11.351  -2.325  0.00  0.00    -0.399 OA
ATOM     31  H   UNL d   1      30.401 -11.030  -1.413  0.00  0.00     0.209 HD
ENDBRANCH  29  30
ENDBRANCH  28  29
ENDBRANCH   7  28
TORSDOF 6
ENDMDL
MODEL 5
REMARK VINA RESULT:    -6.024      3.771      5.326
REMARK INTER + INTRA:         -10.771
REMARK INTER:                  -7.814
REMARK INTRA:                  -2.958
REMARK CONF_INDEPENDENT:        1.790
REMARK UNBOUND:                -2.958
REMARK  6 active torsions:
REMARK  status: ('A' for Active; 'I' for Inactive)
REMARK    1  A    between atoms: C_4  and  O_5 
REMARK    2  A    between atoms: C_6  and  C_7 
REMARK    3  A    between atoms: C_12  and  C_13 
REMARK    4  A    between atoms: N_20  and  C_21 
REMARK    5  A    between atoms: C_21  and  C_22 
REMARK    6  A    between atoms: C_22  and  O_23 
ROOT
ATOM      1  C   UNL d   1      27.259 -13.080  -0.598  0.00  0.00     0.074 A 
ATOM      2  N   UNL d   1      27.900 -12.240   0.287  0.00  0.00    -0.276 N 
ATOM      3  N   UNL d   1      27.848 -10.917  -0.059  0.00  0.00    -0.168 NA
ATOM      4  C   UNL d   1      27.097 -10.935  -1.164  0.00  0.00     0.155 A 
ATOM      5  C   UNL d   1      26.715 -12.224  -1.518  0.00  0.00     0.035 A 
ATOM      6  C   UNL d   1      25.912 -12.202  -2.749  0.00  0.00     0.162 C 
ATOM      7  N   UNL d   1      26.182 -10.827  -3.240  0.00  0.00    -0.331 N 
ATOM      8  C   UNL d   1      26.663 -10.000  -2.195  0.00  0.00     0.275 C 
ATOM      9  O   UNL d   1      26.723  -8.773  -2.184  0.00  0.00    -0.266 OA
ATOM     10  H   UNL d   1      28.407 -12.517   1.122  0.00  0.00     0.189 HD
ENDROOT
BRANCH   1  11
ATOM     11  C   UNL d   1      27.158 -14.526  -0.481  0.00  0.00     0.028 C 
ATOM     12  C   UNL d   1      27.974 -15.244   0.389  0.00  0.00     0.078 C 
ATOM     13  C   UNL d   1      27.713 -16.592   0.648  0.00  0.00     0.045 C 
ATOM     14  C   UNL d   1      26.552 -17.200   0.138  0.00  0.00    -0.038 C 
ATOM     15  C   UNL d   1      26.144 -18.575   0.579  0.00  0.00     0.050 C 
ATOM     16  C   UNL d   1      25.769 -16.497  -0.776  0.00  0.00     0.041 C 
ATOM     17  C   UNL d   1      26.132 -15.206  -1.142  0.00  0.00     0.041 C 
ATOM     18 CL   UNL d   1      24.333 -17.181  -1.452  0.00  0.00    -0.084 Cl
BRANCH  12  19
ATOM     19  O   UNL d   1      29.014 -14.594   0.995  0.00  0.00    -0.360 OA
ATOM     20  H   UNL d   1      29.385 -15.148   1.699  0.00  0.00     0.217 HD
ENDBRANCH  12  19
ENDBRANCH   1  11
BRANCH   6  21
ATOM     21  C   UNL d   1      26.394 -13.313  -3.617  0.00  0.00     0.008 A 
ATOM     22  C   UNL d   1      27.719 -13.362  -4.100  0.00  0.00     0.012 A 
ATOM     23  C   UNL d   1      28.054 -14.255  -5.114  0.00  0.00     0.001 A 
ATOM     24  C   UNL d   1      27.104 -15.165  -5.582  0.00  0.00     0.003 A 
ATOM     25  C   UNL d   1      25.827 -15.207  -5.020  0.00  0.00     0.043 A 
ATOM     26  C   UNL d   1      25.468 -14.260  -4.072  0.00  0.00     0.125 A 
ATOM     27  F   UNL d   1      24.193 -14.202  -3.662  0.00  0.00    -0.205 F 
ENDBRANCH   6  21
BRANCH   7  28
ATOM     28  C   UNL d   1      26.033 -10.395  -4.647  0.00  0.00     0.153 C 
BRANCH  28  29
ATOM     29  C   UNL d   1      25.454  -8.988  -4.896  0.00  0.00     0.184 C 
BRANCH  29  30
ATOM     30  O   UNL d   1      24.405  -8.620  -4.017  0.00  0.00    -0.399 OA
ATOM     31  H   UNL d   1      24.787  -8.450  -3.145  0.00  0.00     0.209 HD
ENDBRANCH  29  30
ENDBRANCH  28  29
ENDBRANCH   7  28
TORSDOF 6
ENDMDL
MODEL 6
REMARK VINA RESULT:    -5.842      2.298      3.074
REMARK INTER + INTRA:         -10.710
REMARK INTER:                  -7.631
REMARK INTRA:                  -3.079
REMARK CONF_INDEPENDENT:        1.790
REMARK UNBOUND:                -3.079
REMARK  6 active torsions:
REMARK  status: ('A' for Active; 'I' for Inactive)
REMARK    1  A    between atoms: C_4  and  O_5 
REMARK    2  A    between atoms: C_6  and  C_7 
REMARK    3  A    between atoms: C_12  and  C_13 
REMARK    4  A    between atoms: N_20  and  C_21 
REMARK    5  A    between atoms: C_21  and  C_22 
REMARK    6  A    between atoms: C_22  and  O_23 
ROOT
ATOM      1  C   UNL d   1      27.216 -15.404  -4.365  0.00  0.00     0.074 A 
ATOM      2  N   UNL d   1      26.969 -14.915  -5.630  0.00  0.00    -0.276 N 
ATOM      3  N   UNL d   1      28.046 -14.972  -6.473  0.00  0.00    -0.168 NA
ATOM      4  C   UNL d   1      28.972 -15.572  -5.720  0.00  0.00     0.155 A 
ATOM      5  C   UNL d   1      28.506 -15.857  -4.441  0.00  0.00     0.035 A 
ATOM      6  C   UNL d   1      29.560 -16.494  -3.640  0.00  0.00     0.162 C 
ATOM      7  N   UNL d   1      30.758 -16.215  -4.472  0.00  0.00    -0.331 N 
ATOM      8  C   UNL d   1      30.389 -15.905  -5.805  0.00  0.00     0.275 C 
ATOM      9  O   UNL d   1      31.116 -15.894  -6.795  0.00  0.00    -0.266 OA
ATOM     10  H   UNL d   1      26.098 -14.510  -5.961  0.00  0.00     0.189 HD
ENDROOT
BRANCH   1  11
ATOM     11  C   UNL d   1      26.259 -15.464  -3.272  0.00  0.00     0.028 C 
ATOM     12  C   UNL d   1      25.020 -14.835  -3.354  0.00  0.00     0.078 C 
ATOM     13  C   UNL d   1      24.037 -15.087  -2.395  0.00  0.00     0.045 C 
ATOM     14  C   UNL d   1      24.239 -16.076  -1.414  0.00  0.00    -0.038 C 
ATOM     15  C   UNL d   1      23.120 -16.511  -0.515  0.00  0.00     0.050 C 
ATOM     16  C   UNL d   1      25.498 -16.663  -1.300  0.00  0.00     0.041 C 
ATOM     17  C   UNL d   1      26.515 -16.284  -2.169  0.00  0.00     0.041 C 
ATOM     18 CL   UNL d   1      25.825 -17.877  -0.115  0.00  0.00    -0.084 Cl
BRANCH  12  19
ATOM     19  O   UNL d   1      24.786 -13.988  -4.403  0.00  0.00    -0.360 OA
ATOM     20  H   UNL d   1      23.861 -14.062  -4.687  0.00  0.00     0.217 HD
ENDBRANCH  12  19
ENDBRANCH   1  11
BRANCH   6  21
ATOM     21  C   UNL d   1      29.540 -15.862  -2.291  0.00  0.00     0.008 A 
ATOM     22  C   UNL d   1      29.387 -16.623  -1.112  0.00  0.00     0.012 A 
ATOM     23  C   UNL d   1      29.103 -15.985   0.092  0.00  0.00     0.001 A 
ATOM     24  C   UNL d   1      29.068 -14.591   0.149  0.00  0.00     0.003 A 
ATOM     25  C   UNL d   1      29.344 -13.828  -0.987  0.00  0.00     0.043 A 
ATOM     26  C   UNL d   1      29.540 -14.464  -2.203  0.00  0.00     0.125 A 
ATOM     27  F   UNL d   1      29.638 -13.723  -3.317  0.00  0.00    -0.205 F 
ENDBRANCH   6  21
BRANCH   7  28
ATOM     28  C   UNL d   1      32.147 -16.198  -3.964  0.00  0.00     0.153 C 
BRANCH  28  29
ATOM     29  C   UNL d   1      32.828 -14.823  -3.818  0.00  0.00     0.184 C 
BRANCH  29  30
ATOM     30  O   UNL d   1      32.699 -13.979  -4.950  0.00  0.00    -0.399 OA
ATOM     31  H   UNL d   1      32.344 -14.506  -5.679  0.00  0.00     0.209 HD
ENDBRANCH  29  30
ENDBRANCH  28  29
ENDBRANCH   7  28
TORSDOF 6
ENDMDL
MODEL 7
REMARK VINA RESULT:    -5.678      1.886      2.331
REMARK INTER + INTRA:         -10.135
REMARK INTER:                  -7.468
REMARK INTRA:                  -2.667
REMARK CONF_INDEPENDENT:        1.790
REMARK UNBOUND:                -2.667
REMARK  6 active torsions:
REMARK  status: ('A' for Active; 'I' for Inactive)
REMARK    1  A    between atoms: C_4  and  O_5 
REMARK    2  A    between atoms: C_6  and  C_7 
REMARK    3  A    between atoms: C_12  and  C_13 
REMARK    4  A    between atoms: N_20  and  C_21 
REMARK    5  A    between atoms: C_21  and  C_22 
REMARK    6  A    between atoms: C_22  and  O_23 
ROOT
ATOM      1  C   UNL d   1      25.910 -12.141  -3.914  0.00  0.00     0.074 A 
ATOM      2  N   UNL d   1      25.432 -10.865  -3.704  0.00  0.00    -0.276 N 
ATOM      3  N   UNL d   1      25.732  -9.983  -4.706  0.00  0.00    -0.168 NA
ATOM      4  C   UNL d   1      26.366 -10.756  -5.592  0.00  0.00     0.155 A 
ATOM      5  C   UNL d   1      26.487 -12.070  -5.154  0.00  0.00     0.035 A 
ATOM      6  C   UNL d   1      27.209 -12.879  -6.146  0.00  0.00     0.162 C 
ATOM      7  N   UNL d   1      27.787 -11.819  -7.011  0.00  0.00    -0.331 N 
ATOM      8  C   UNL d   1      27.093 -10.594  -6.847  0.00  0.00     0.275 C 
ATOM      9  O   UNL d   1      27.127  -9.615  -7.586  0.00  0.00    -0.266 OA
ATOM     10  H   UNL d   1      24.921 -10.539  -2.889  0.00  0.00     0.189 HD
ENDROOT
BRANCH   1  11
ATOM     11  C   UNL d   1      25.741 -13.274  -3.018  0.00  0.00     0.028 C 
ATOM     12  C   UNL d   1      25.110 -14.443  -3.434  0.00  0.00     0.078 C 
ATOM     13  C   UNL d   1      25.154 -15.589  -2.637  0.00  0.00     0.045 C 
ATOM     14  C   UNL d   1      25.943 -15.614  -1.473  0.00  0.00    -0.038 C 
ATOM     15  C   UNL d   1      26.176 -16.893  -0.724  0.00  0.00     0.050 C 
ATOM     16  C   UNL d   1      26.528 -14.428  -1.030  0.00  0.00     0.041 C 
ATOM     17  C   UNL d   1      26.343 -13.258  -1.756  0.00  0.00     0.041 C 
ATOM     18 CL   UNL d   1      27.503 -14.378   0.396  0.00  0.00    -0.084 Cl
BRANCH  12  19
ATOM     19  O   UNL d   1      24.472 -14.445  -4.644  0.00  0.00    -0.360 OA
ATOM     20  H   UNL d   1      24.037 -13.590  -4.789  0.00  0.00     0.217 HD
ENDBRANCH  12  19
ENDBRANCH   1  11
BRANCH   6  21
ATOM     21  C   UNL d   1      28.186 -13.725  -5.406  0.00  0.00     0.008 A 
ATOM     22  C   UNL d   1      29.451 -13.237  -5.015  0.00  0.00     0.012 A 
ATOM     23  C   UNL d   1      30.430 -14.123  -4.573  0.00  0.00     0.001 A 
ATOM     24  C   UNL d   1      30.126 -15.478  -4.427  0.00  0.00     0.003 A 
ATOM     25  C   UNL d   1      28.839 -15.948  -4.692  0.00  0.00     0.043 A 
ATOM     26  C   UNL d   1      27.891 -15.081  -5.214  0.00  0.00     0.125 A 
ATOM     27  F   UNL d   1      26.713 -15.575  -5.623  0.00  0.00    -0.205 F 
ENDBRANCH   6  21
BRANCH   7  28
ATOM     28  C   UNL d   1      28.972 -11.998  -7.878  0.00  0.00     0.153 C 
BRANCH  28  29
ATOM     29  C   UNL d   1      28.748 -11.934  -9.402  0.00  0.00     0.184 C 
BRANCH  29  30
ATOM     30  O   UNL d   1      27.404 -11.705  -9.789  0.00  0.00    -0.399 OA
ATOM     31  H   UNL d   1      27.001 -11.110  -9.142  0.00  0.00     0.209 HD
ENDBRANCH  29  30
ENDBRANCH  28  29
ENDBRANCH   7  28
TORSDOF 6
ENDMDL
MODEL 8
REMARK VINA RESULT:    -5.609      4.059      6.442
REMARK INTER + INTRA:         -10.259
REMARK INTER:                  -7.399
REMARK INTRA:                  -2.860
REMARK CONF_INDEPENDENT:        1.790
REMARK UNBOUND:                -2.860
REMARK  6 active torsions:
REMARK  status: ('A' for Active; 'I' for Inactive)
REMARK    1  A    between atoms: C_4  and  O_5 
REMARK    2  A    between atoms: C_6  and  C_7 
REMARK    3  A    between atoms: C_12  and  C_13 
REMARK    4  A    between atoms: N_20  and  C_21 
REMARK    5  A    between atoms: C_21  and  C_22 
REMARK    6  A    between atoms: C_22  and  O_23 
ROOT
ATOM      1  C   UNL d   1      25.610 -12.758  -3.684  0.00  0.00     0.074 A 
ATOM      2  N   UNL d   1      24.980 -13.519  -4.646  0.00  0.00    -0.276 N 
ATOM      3  N   UNL d   1      24.783 -14.825  -4.287  0.00  0.00    -0.168 NA
ATOM      4  C   UNL d   1      25.255 -14.856  -3.038  0.00  0.00     0.155 A 
ATOM      5  C   UNL d   1      25.756 -13.624  -2.633  0.00  0.00     0.035 A 
ATOM      6  C   UNL d   1      26.285 -13.708  -1.265  0.00  0.00     0.162 C 
ATOM      7  N   UNL d   1      26.355 -15.179  -1.077  0.00  0.00    -0.331 N 
ATOM      8  C   UNL d   1      25.519 -15.851  -2.003  0.00  0.00     0.275 C 
ATOM      9  O   UNL d   1      25.136 -17.016  -1.952  0.00  0.00    -0.266 OA
ATOM     10  H   UNL d   1      24.688 -13.206  -5.567  0.00  0.00     0.189 HD
ENDROOT
BRANCH   1  11
ATOM     11  C   UNL d   1      25.944 -11.347  -3.796  0.00  0.00     0.028 C 
ATOM     12  C   UNL d   1      25.804 -10.660  -4.999  0.00  0.00     0.078 C 
ATOM     13  C   UNL d   1      25.917  -9.268  -5.031  0.00  0.00     0.045 C 
ATOM     14  C   UNL d   1      26.044  -8.538  -3.835  0.00  0.00    -0.038 C 
ATOM     15  C   UNL d   1      25.950  -7.041  -3.830  0.00  0.00     0.050 C 
ATOM     16  C   UNL d   1      26.240  -9.231  -2.641  0.00  0.00     0.041 C 
ATOM     17  C   UNL d   1      26.279 -10.620  -2.651  0.00  0.00     0.041 C 
ATOM     18 CL   UNL d   1      26.411  -8.404  -1.134  0.00  0.00    -0.084 Cl
BRANCH  12  19
ATOM     19  O   UNL d   1      25.531 -11.375  -6.132  0.00  0.00    -0.360 OA
ATOM     20  H   UNL d   1      24.597 -11.638  -6.139  0.00  0.00     0.217 HD
ENDBRANCH  12  19
ENDBRANCH   1  11
BRANCH   6  21
ATOM     21  C   UNL d   1      27.586 -12.983  -1.243  0.00  0.00     0.008 A 
ATOM     22  C   UNL d   1      28.588 -13.217  -2.208  0.00  0.00     0.012 A 
ATOM     23  C   UNL d   1      29.875 -12.730  -2.003  0.00  0.00     0.001 A 
ATOM     24  C   UNL d   1      30.148 -11.930  -0.892  0.00  0.00     0.003 A 
ATOM     25  C   UNL d   1      29.130 -11.589   0.002  0.00  0.00     0.043 A 
ATOM     26  C   UNL d   1      27.870 -12.146  -0.156  0.00  0.00     0.125 A 
ATOM     27  F   UNL d   1      26.948 -11.948   0.797  0.00  0.00    -0.205 F 
ENDBRANCH   6  21
BRANCH   7  28
ATOM     28  C   UNL d   1      27.231 -15.858  -0.097  0.00  0.00     0.153 C 
BRANCH  28  29
ATOM     29  C   UNL d   1      27.279 -17.399  -0.141  0.00  0.00     0.184 C 
BRANCH  29  30
ATOM     30  O   UNL d   1      26.110 -18.037   0.345  0.00  0.00    -0.399 OA
ATOM     31  H   UNL d   1      25.401 -17.898  -0.298  0.00  0.00     0.209 HD
ENDBRANCH  29  30
ENDBRANCH  28  29
ENDBRANCH   7  28
TORSDOF 6
ENDMDL
MODEL 9
REMARK VINA RESULT:    -5.555      4.054      5.317
REMARK INTER + INTRA:         -10.171
REMARK INTER:                  -7.345
REMARK INTRA:                  -2.827
REMARK CONF_INDEPENDENT:        1.790
REMARK UNBOUND:                -2.827
REMARK  6 active torsions:
REMARK  status: ('A' for Active; 'I' for Inactive)
REMARK    1  A    between atoms: C_4  and  O_5 
REMARK    2  A    between atoms: C_6  and  C_7 
REMARK    3  A    between atoms: C_12  and  C_13 
REMARK    4  A    between atoms: N_20  and  C_21 
REMARK    5  A    between atoms: C_21  and  C_22 
REMARK    6  A    between atoms: C_22  and  O_23 
ROOT
ATOM      1  C   UNL d   1      26.155 -15.028  -0.713  0.00  0.00     0.074 A 
ATOM      2  N   UNL d   1      25.122 -15.936  -0.814  0.00  0.00    -0.276 N 
ATOM      3  N   UNL d   1      24.800 -16.276  -2.100  0.00  0.00    -0.168 NA
ATOM      4  C   UNL d   1      25.705 -15.600  -2.814  0.00  0.00     0.155 A 
ATOM      5  C   UNL d   1      26.548 -14.840  -2.011  0.00  0.00     0.035 A 
ATOM      6  C   UNL d   1      27.511 -14.096  -2.835  0.00  0.00     0.162 C 
ATOM      7  N   UNL d   1      26.900 -14.236  -4.181  0.00  0.00    -0.331 N 
ATOM      8  C   UNL d   1      25.991 -15.322  -4.217  0.00  0.00     0.275 C 
ATOM      9  O   UNL d   1      25.531 -15.876  -5.212  0.00  0.00    -0.266 OA
ATOM     10  H   UNL d   1      24.590 -16.332  -0.046  0.00  0.00     0.189 HD
ENDROOT
BRANCH   1  11
ATOM     11  C   UNL d   1      26.701 -14.492   0.524  0.00  0.00     0.028 C 
ATOM     12  C   UNL d   1      27.721 -15.144   1.212  0.00  0.00     0.078 C 
ATOM     13  C   UNL d   1      28.378 -14.506   2.267  0.00  0.00     0.045 C 
ATOM     14  C   UNL d   1      28.107 -13.157   2.560  0.00  0.00    -0.038 C 
ATOM     15  C   UNL d   1      28.950 -12.396   3.540  0.00  0.00     0.050 C 
ATOM     16  C   UNL d   1      27.049 -12.526   1.908  0.00  0.00     0.041 C 
ATOM     17  C   UNL d   1      26.303 -13.228   0.968  0.00  0.00     0.041 C 
ATOM     18 CL   UNL d   1      26.651 -10.874   2.222  0.00  0.00    -0.084 Cl
BRANCH  12  19
ATOM     19  O   UNL d   1      28.075 -16.404   0.814  0.00  0.00    -0.360 OA
ATOM     20  H   UNL d   1      28.891 -16.675   1.263  0.00  0.00     0.217 HD
ENDBRANCH  12  19
ENDBRANCH   1  11
BRANCH   6  21
ATOM     21  C   UNL d   1      27.588 -12.711  -2.292  0.00  0.00     0.008 A 
ATOM     22  C   UNL d   1      26.642 -11.721  -2.633  0.00  0.00     0.012 A 
ATOM     23  C   UNL d   1      26.895 -10.387  -2.329  0.00  0.00     0.001 A 
ATOM     24  C   UNL d   1      28.036 -10.043  -1.602  0.00  0.00     0.003 A 
ATOM     25  C   UNL d   1      28.913 -11.032  -1.151  0.00  0.00     0.043 A 
ATOM     26  C   UNL d   1      28.706 -12.350  -1.529  0.00  0.00     0.125 A 
ATOM     27  F   UNL d   1      29.641 -13.266  -1.235  0.00  0.00    -0.205 F 
ENDBRANCH   6  21
BRANCH   7  28
ATOM     28  C   UNL d   1      27.155 -13.322  -5.316  0.00  0.00     0.153 C 
BRANCH  28  29
ATOM     29  C   UNL d   1      28.145 -13.798  -6.398  0.00  0.00     0.184 C 
BRANCH  29  30
ATOM     30  O   UNL d   1      28.158 -15.200  -6.606  0.00  0.00    -0.399 OA
ATOM     31  H   UNL d   1      27.377 -15.576  -6.178  0.00  0.00     0.209 HD
ENDBRANCH  29  30
ENDBRANCH  28  29
ENDBRANCH   7  28
TORSDOF 6
ENDMDL
