MODEL 1
REMARK VINA RESULT:    -8.637      0.000      0.000
REMARK INTER + INTRA:         -13.913
REMARK INTER:                 -12.216
REMARK INTRA:                  -1.697
REMARK CONF_INDEPENDENT:        3.580
REMARK UNBOUND:                -1.697
REMARK  12 active torsions:
REMARK  status: ('A' for Active; 'I' for Inactive)
REMARK    1  A    between atoms: C_2  and  C_3 
REMARK    2  A    between atoms: C_3  and  O_4 
REMARK    3  A    between atoms: O_4  and  C_5 
REMARK    4  A    between atoms: C_8  and  C_9 
REMARK       I    between atoms: C_9  and  N_11 
REMARK    5  A    between atoms: N_11  and  C_12 
REMARK    6  A    between atoms: C_12  and  N_14 
REMARK    7  A    between atoms: N_14  and  C_15 
REMARK    8  A    between atoms: C_20  and  C_21 
REMARK       I    between atoms: C_21  and  N_23 
REMARK    9  A    between atoms: N_23  and  C_24 
REMARK   10  A    between atoms: C_24  and  C_25 
REMARK   11  A    between atoms: C_25  and  C_26 
REMARK   12  A    between atoms: C_26  and  O_27 
ROOT
ATOM      1  C   UNL d   1      27.900 -15.190   0.713  0.00  0.00     0.179 C 
ATOM      2  S   UNL d   1      28.946 -16.094  -0.249  0.00  0.00    -0.040 SA
ENDROOT
BRANCH   1   3
ATOM      3  N   UNL d   1      28.125 -14.901   2.084  0.00  0.00    -0.299 N 
ATOM      4  C   UNL d   1      27.509 -13.851   2.816  0.00  0.00     0.257 C 
ATOM      5  O   UNL d   1      26.769 -13.001   2.321  0.00  0.00    -0.267 OA
ATOM      6  H   UNL d   1      28.872 -15.411   2.531  0.00  0.00     0.171 HD
BRANCH   4   7
ATOM      7  C   UNL d   1      27.851 -13.591   4.246  0.00  0.00     0.033 C 
ATOM      8  C   UNL d   1      28.070 -14.688   5.108  0.00  0.00     0.020 C 
ATOM      9  C   UNL d   1      28.532 -14.497   6.417  0.00  0.00     0.039 C 
ATOM     10  C   UNL d   1      28.789 -13.203   6.895  0.00  0.00     0.086 C 
ATOM     11  C   UNL d   1      28.507 -12.114   6.047  0.00  0.00     0.045 C 
ATOM     12  C   UNL d   1      27.998 -12.316   4.756  0.00  0.00     0.039 C 
ATOM     13 BR   UNL d   1      28.907 -10.272   6.341  0.00  0.00    -0.048 Br
BRANCH  10  14
ATOM     14  O   UNL d   1      29.403 -13.179   8.123  0.00  0.00    -0.350 OA
BRANCH  14  15
ATOM     15  C   UNL d   1      29.644 -14.444   8.729  0.00  0.00     0.175 C 
BRANCH  15  16
ATOM     16  C   UNL d   1      29.046 -14.502  10.128  0.00  0.00     0.022 C 
ATOM     17  C   UNL d   1      28.244 -13.235  10.392  0.00  0.00     0.007 C 
ENDBRANCH  15  16
ENDBRANCH  14  15
ENDBRANCH  10  14
ENDBRANCH   4   7
ENDBRANCH   1   3
BRANCH   1  18
ATOM     18  N   UNL d   1      26.635 -14.717   0.253  0.00  0.00    -0.332 N 
ATOM     19  H   UNL d   1      26.173 -13.987   0.787  0.00  0.00     0.168 HD
BRANCH  18  20
ATOM     20  C   UNL d   1      26.267 -14.758  -1.146  0.00  0.00     0.050 A 
ATOM     21  C   UNL d   1      26.449 -13.598  -1.933  0.00  0.00     0.030 A 
ATOM     22  C   UNL d   1      26.183 -13.608  -3.313  0.00  0.00     0.002 A 
ATOM     23  C   UNL d   1      25.774 -14.782  -3.935  0.00  0.00     0.001 A 
ATOM     24  C   UNL d   1      25.556 -15.927  -3.163  0.00  0.00     0.019 A 
ATOM     25  C   UNL d   1      25.766 -15.930  -1.766  0.00  0.00     0.058 A 
BRANCH  25  26
ATOM     26  C   UNL d   1      25.432 -17.211  -1.042  0.00  0.00     0.253 C 
ATOM     27  O   UNL d   1      26.306 -17.801  -0.394  0.00  0.00    -0.268 OA
ATOM     28  N   UNL d   1      24.143 -17.698  -1.129  0.00  0.00    -0.357 N 
ATOM     29  H   UNL d   1      23.486 -17.152  -1.667  0.00  0.00     0.162 HD
BRANCH  28  30
ATOM     30  C   UNL d   1      23.626 -18.668  -0.174  0.00  0.00     0.125 C 
BRANCH  30  31
ATOM     31  C   UNL d   1      22.175 -18.413   0.197  0.00  0.00     0.046 C 
BRANCH  31  32
ATOM     32  C   UNL d   1      21.167 -18.820  -0.854  0.00  0.00     0.165 C 
BRANCH  32  33
ATOM     33  O   UNL d   1      20.149 -17.827  -0.942  0.00  0.00    -0.401 OA
ATOM     34  H   UNL d   1      20.278 -17.365  -1.787  0.00  0.00     0.209 HD
ENDBRANCH  32  33
ENDBRANCH  31  32
ENDBRANCH  30  31
ENDBRANCH  28  30
ENDBRANCH  25  26
ENDBRANCH  18  20
ENDBRANCH   1  18
TORSDOF 12
ENDMDL
MODEL 2
REMARK VINA RESULT:    -7.699      6.236      8.714
REMARK INTER + INTRA:         -14.416
REMARK INTER:                 -11.279
REMARK INTRA:                  -3.138
REMARK CONF_INDEPENDENT:        3.580
REMARK UNBOUND:                -3.138
REMARK  12 active torsions:
REMARK  status: ('A' for Active; 'I' for Inactive)
REMARK    1  A    between atoms: C_2  and  C_3 
REMARK    2  A    between atoms: C_3  and  O_4 
REMARK    3  A    between atoms: O_4  and  C_5 
REMARK    4  A    between atoms: C_8  and  C_9 
REMARK       I    between atoms: C_9  and  N_11 
REMARK    5  A    between atoms: N_11  and  C_12 
REMARK    6  A    between atoms: C_12  and  N_14 
REMARK    7  A    between atoms: N_14  and  C_15 
REMARK    8  A    between atoms: C_20  and  C_21 
REMARK       I    between atoms: C_21  and  N_23 
REMARK    9  A    between atoms: N_23  and  C_24 
REMARK   10  A    between atoms: C_24  and  C_25 
REMARK   11  A    between atoms: C_25  and  C_26 
REMARK   12  A    between atoms: C_26  and  O_27 
ROOT
ATOM      1  C   UNL d   1      26.775 -12.142  -3.381  0.00  0.00     0.179 C 
ATOM      2  S   UNL d   1      28.269 -11.374  -3.260  0.00  0.00    -0.040 SA
ENDROOT
BRANCH   1   3
ATOM      3  N   UNL d   1      26.344 -13.190  -2.527  0.00  0.00    -0.299 N 
ATOM      4  C   UNL d   1      25.560 -14.307  -2.923  0.00  0.00     0.257 C 
ATOM      5  O   UNL d   1      25.079 -14.452  -4.046  0.00  0.00    -0.267 OA
ATOM      6  H   UNL d   1      26.512 -13.059  -1.541  0.00  0.00     0.171 HD
BRANCH   4   7
ATOM      7  C   UNL d   1      25.109 -15.334  -1.938  0.00  0.00     0.033 C 
ATOM      8  C   UNL d   1      23.727 -15.581  -1.790  0.00  0.00     0.020 C 
ATOM      9  C   UNL d   1      23.263 -16.630  -0.987  0.00  0.00     0.039 C 
ATOM     10  C   UNL d   1      24.172 -17.462  -0.313  0.00  0.00     0.086 C 
ATOM     11  C   UNL d   1      25.545 -17.166  -0.418  0.00  0.00     0.045 C 
ATOM     12  C   UNL d   1      25.995 -16.082  -1.185  0.00  0.00     0.039 C 
ATOM     13 BR   UNL d   1      27.013 -18.196   0.231  0.00  0.00    -0.048 Br
BRANCH  10  14
ATOM     14  O   UNL d   1      23.587 -18.549   0.287  0.00  0.00    -0.350 OA
BRANCH  14  15
ATOM     15  C   UNL d   1      22.635 -19.261  -0.495  0.00  0.00     0.175 C 
BRANCH  15  16
ATOM     16  C   UNL d   1      21.266 -19.254   0.170  0.00  0.00     0.022 C 
ATOM     17  C   UNL d   1      20.181 -19.233  -0.898  0.00  0.00     0.007 C 
ENDBRANCH  15  16
ENDBRANCH  14  15
ENDBRANCH  10  14
ENDBRANCH   4   7
ENDBRANCH   1   3
BRANCH   1  18
ATOM     18  N   UNL d   1      25.845 -11.871  -4.429  0.00  0.00    -0.332 N 
ATOM     19  H   UNL d   1      24.944 -12.340  -4.404  0.00  0.00     0.168 HD
BRANCH  18  20
ATOM     20  C   UNL d   1      25.842 -10.611  -5.140  0.00  0.00     0.050 A 
ATOM     21  C   UNL d   1      25.157  -9.510  -4.574  0.00  0.00     0.030 A 
ATOM     22  C   UNL d   1      25.191  -8.244  -5.183  0.00  0.00     0.002 A 
ATOM     23  C   UNL d   1      25.938  -8.046  -6.339  0.00  0.00     0.001 A 
ATOM     24  C   UNL d   1      26.590  -9.133  -6.928  0.00  0.00     0.019 A 
ATOM     25  C   UNL d   1      26.530 -10.427  -6.365  0.00  0.00     0.058 A 
BRANCH  25  26
ATOM     26  C   UNL d   1      27.224 -11.525  -7.134  0.00  0.00     0.253 C 
ATOM     27  O   UNL d   1      27.498 -11.364  -8.330  0.00  0.00    -0.268 OA
ATOM     28  N   UNL d   1      27.533 -12.697  -6.471  0.00  0.00    -0.357 N 
ATOM     29  H   UNL d   1      27.288 -12.744  -5.494  0.00  0.00     0.162 HD
BRANCH  28  30
ATOM     30  C   UNL d   1      28.529 -13.626  -6.986  0.00  0.00     0.125 C 
BRANCH  30  31
ATOM     31  C   UNL d   1      29.283 -14.350  -5.884  0.00  0.00     0.046 C 
BRANCH  31  32
ATOM     32  C   UNL d   1      28.459 -15.340  -5.091  0.00  0.00     0.165 C 
BRANCH  32  33
ATOM     33  O   UNL d   1      27.085 -15.200  -5.444  0.00  0.00    -0.401 OA
ATOM     34  H   UNL d   1      26.776 -14.370  -5.046  0.00  0.00     0.209 HD
ENDBRANCH  32  33
ENDBRANCH  31  32
ENDBRANCH  30  31
ENDBRANCH  28  30
ENDBRANCH  25  26
ENDBRANCH  18  20
ENDBRANCH   1  18
TORSDOF 12
ENDMDL
MODEL 3
REMARK VINA RESULT:    -7.679      5.890      8.140
REMARK INTER + INTRA:         -14.685
REMARK INTER:                 -11.259
REMARK INTRA:                  -3.426
REMARK CONF_INDEPENDENT:        3.580
REMARK UNBOUND:                -3.426
REMARK  12 active torsions:
REMARK  status: ('A' for Active; 'I' for Inactive)
REMARK    1  A    between atoms: C_2  and  C_3 
REMARK    2  A    between atoms: C_3  and  O_4 
REMARK    3  A    between atoms: O_4  and  C_5 
REMARK    4  A    between atoms: C_8  and  C_9 
REMARK       I    between atoms: C_9  and  N_11 
REMARK    5  A    between atoms: N_11  and  C_12 
REMARK    6  A    between atoms: C_12  and  N_14 
REMARK    7  A    between atoms: N_14  and  C_15 
REMARK    8  A    between atoms: C_20  and  C_21 
REMARK       I    between atoms: C_21  and  N_23 
REMARK    9  A    between atoms: N_23  and  C_24 
REMARK   10  A    between atoms: C_24  and  C_25 
REMARK   11  A    between atoms: C_25  and  C_26 
REMARK   12  A    between atoms: C_26  and  O_27 
ROOT
ATOM      1  C   UNL d   1      26.304 -12.167  -3.279  0.00  0.00     0.179 C 
ATOM      2  S   UNL d   1      27.301 -10.895  -2.801  0.00  0.00    -0.040 SA
ENDROOT
BRANCH   1   3
ATOM      3  N   UNL d   1      25.937 -13.252  -2.442  0.00  0.00    -0.299 N 
ATOM      4  C   UNL d   1      25.053 -14.305  -2.798  0.00  0.00     0.257 C 
ATOM      5  O   UNL d   1      24.422 -14.354  -3.854  0.00  0.00    -0.267 OA
ATOM      6  H   UNL d   1      26.238 -13.196  -1.481  0.00  0.00     0.171 HD
BRANCH   4   7
ATOM      7  C   UNL d   1      24.685 -15.378  -1.827  0.00  0.00     0.033 C 
ATOM      8  C   UNL d   1      23.322 -15.697  -1.645  0.00  0.00     0.020 C 
ATOM      9  C   UNL d   1      22.935 -16.789  -0.856  0.00  0.00     0.039 C 
ATOM     10  C   UNL d   1      23.904 -17.590  -0.232  0.00  0.00     0.086 C 
ATOM     11  C   UNL d   1      25.258 -17.224  -0.371  0.00  0.00     0.045 C 
ATOM     12  C   UNL d   1      25.629 -16.100  -1.122  0.00  0.00     0.039 C 
ATOM     13 BR   UNL d   1      26.794 -18.196   0.206  0.00  0.00    -0.048 Br
BRANCH  10  14
ATOM     14  O   UNL d   1      23.392 -18.720   0.356  0.00  0.00    -0.350 OA
BRANCH  14  15
ATOM     15  C   UNL d   1      22.316 -19.351  -0.328  0.00  0.00     0.175 C 
BRANCH  15  16
ATOM     16  C   UNL d   1      21.006 -19.165   0.424  0.00  0.00     0.022 C 
ATOM     17  C   UNL d   1      19.837 -19.410  -0.520  0.00  0.00     0.007 C 
ENDBRANCH  15  16
ENDBRANCH  14  15
ENDBRANCH  10  14
ENDBRANCH   4   7
ENDBRANCH   1   3
BRANCH   1  18
ATOM     18  N   UNL d   1      25.820 -12.315  -4.613  0.00  0.00    -0.332 N 
ATOM     19  H   UNL d   1      24.854 -12.067  -4.803  0.00  0.00     0.168 HD
BRANCH  18  20
ATOM     20  C   UNL d   1      26.699 -12.216  -5.758  0.00  0.00     0.050 A 
ATOM     21  C   UNL d   1      26.601 -11.082  -6.597  0.00  0.00     0.030 A 
ATOM     22  C   UNL d   1      27.483 -10.898  -7.676  0.00  0.00     0.002 A 
ATOM     23  C   UNL d   1      28.499 -11.819  -7.909  0.00  0.00     0.001 A 
ATOM     24  C   UNL d   1      28.585 -12.962  -7.110  0.00  0.00     0.019 A 
ATOM     25  C   UNL d   1      27.679 -13.197  -6.052  0.00  0.00     0.058 A 
BRANCH  25  26
ATOM     26  C   UNL d   1      27.841 -14.500  -5.308  0.00  0.00     0.253 C 
ATOM     27  O   UNL d   1      27.363 -15.542  -5.773  0.00  0.00    -0.268 OA
ATOM     28  N   UNL d   1      28.524 -14.490  -4.108  0.00  0.00    -0.357 N 
ATOM     29  H   UNL d   1      28.894 -13.602  -3.803  0.00  0.00     0.162 HD
BRANCH  28  30
ATOM     30  C   UNL d   1      29.073 -15.710  -3.530  0.00  0.00     0.125 C 
BRANCH  30  31
ATOM     31  C   UNL d   1      28.587 -15.959  -2.112  0.00  0.00     0.046 C 
BRANCH  31  32
ATOM     32  C   UNL d   1      28.864 -14.837  -1.137  0.00  0.00     0.165 C 
BRANCH  32  33
ATOM     33  O   UNL d   1      28.377 -13.611  -1.676  0.00  0.00    -0.401 OA
ATOM     34  H   UNL d   1      29.061 -12.941  -1.513  0.00  0.00     0.209 HD
ENDBRANCH  32  33
ENDBRANCH  31  32
ENDBRANCH  30  31
ENDBRANCH  28  30
ENDBRANCH  25  26
ENDBRANCH  18  20
ENDBRANCH   1  18
TORSDOF 12
ENDMDL
MODEL 4
REMARK VINA RESULT:    -7.677      2.079      3.629
REMARK INTER + INTRA:         -14.257
REMARK INTER:                 -11.256
REMARK INTRA:                  -3.000
REMARK CONF_INDEPENDENT:        3.580
REMARK UNBOUND:                -3.000
REMARK  12 active torsions:
REMARK  status: ('A' for Active; 'I' for Inactive)
REMARK    1  A    between atoms: C_2  and  C_3 
REMARK    2  A    between atoms: C_3  and  O_4 
REMARK    3  A    between atoms: O_4  and  C_5 
REMARK    4  A    between atoms: C_8  and  C_9 
REMARK       I    between atoms: C_9  and  N_11 
REMARK    5  A    between atoms: N_11  and  C_12 
REMARK    6  A    between atoms: C_12  and  N_14 
REMARK    7  A    between atoms: N_14  and  C_15 
REMARK    8  A    between atoms: C_20  and  C_21 
REMARK       I    between atoms: C_21  and  N_23 
REMARK    9  A    between atoms: N_23  and  C_24 
REMARK   10  A    between atoms: C_24  and  C_25 
REMARK   11  A    between atoms: C_25  and  C_26 
REMARK   12  A    between atoms: C_26  and  O_27 
ROOT
ATOM      1  C   UNL d   1      28.911 -15.906  -0.021  0.00  0.00     0.179 C 
ATOM      2  S   UNL d   1      29.823 -15.220  -1.261  0.00  0.00    -0.040 SA
ENDROOT
BRANCH   1   3
ATOM      3  N   UNL d   1      28.811 -15.368   1.288  0.00  0.00    -0.299 N 
ATOM      4  C   UNL d   1      27.771 -14.519   1.753  0.00  0.00     0.257 C 
ATOM      5  O   UNL d   1      26.873 -14.069   1.042  0.00  0.00    -0.267 OA
ATOM      6  H   UNL d   1      29.608 -15.509   1.891  0.00  0.00     0.171 HD
BRANCH   4   7
ATOM      7  C   UNL d   1      27.781 -13.958   3.137  0.00  0.00     0.033 C 
ATOM      8  C   UNL d   1      27.989 -14.830   4.228  0.00  0.00     0.020 C 
ATOM      9  C   UNL d   1      28.149 -14.334   5.528  0.00  0.00     0.039 C 
ATOM     10  C   UNL d   1      28.107 -12.951   5.769  0.00  0.00     0.086 C 
ATOM     11  C   UNL d   1      27.836 -12.097   4.682  0.00  0.00     0.045 C 
ATOM     12  C   UNL d   1      27.629 -12.609   3.394  0.00  0.00     0.039 C 
ATOM     13 BR   UNL d   1      27.884 -10.190   4.658  0.00  0.00    -0.048 Br
BRANCH  10  14
ATOM     14  O   UNL d   1      28.456 -12.602   7.050  0.00  0.00    -0.350 OA
BRANCH  14  15
ATOM     15  C   UNL d   1      29.571 -13.289   7.607  0.00  0.00     0.175 C 
BRANCH  15  16
ATOM     16  C   UNL d   1      29.161 -14.090   8.835  0.00  0.00     0.022 C 
ATOM     17  C   UNL d   1      28.341 -13.209   9.767  0.00  0.00     0.007 C 
ENDBRANCH  15  16
ENDBRANCH  14  15
ENDBRANCH  10  14
ENDBRANCH   4   7
ENDBRANCH   1   3
BRANCH   1  18
ATOM     18  N   UNL d   1      28.235 -17.155  -0.153  0.00  0.00    -0.332 N 
ATOM     19  H   UNL d   1      28.678 -17.983   0.234  0.00  0.00     0.168 HD
BRANCH  18  20
ATOM     20  C   UNL d   1      26.794 -17.237  -0.246  0.00  0.00     0.050 A 
ATOM     21  C   UNL d   1      26.106 -18.139   0.598  0.00  0.00     0.030 A 
ATOM     22  C   UNL d   1      24.702 -18.200   0.605  0.00  0.00     0.002 A 
ATOM     23  C   UNL d   1      23.963 -17.336  -0.197  0.00  0.00     0.001 A 
ATOM     24  C   UNL d   1      24.630 -16.464  -1.061  0.00  0.00     0.019 A 
ATOM     25  C   UNL d   1      26.041 -16.419  -1.125  0.00  0.00     0.058 A 
BRANCH  25  26
ATOM     26  C   UNL d   1      26.635 -15.480  -2.146  0.00  0.00     0.253 C 
ATOM     27  O   UNL d   1      26.950 -15.902  -3.266  0.00  0.00    -0.268 OA
ATOM     28  N   UNL d   1      26.818 -14.157  -1.793  0.00  0.00    -0.357 N 
ATOM     29  H   UNL d   1      26.524 -13.890  -0.865  0.00  0.00     0.162 HD
BRANCH  28  30
ATOM     30  C   UNL d   1      26.996 -13.116  -2.796  0.00  0.00     0.125 C 
BRANCH  30  31
ATOM     31  C   UNL d   1      25.678 -12.569  -3.317  0.00  0.00     0.046 C 
BRANCH  31  32
ATOM     32  C   UNL d   1      25.207 -13.175  -4.619  0.00  0.00     0.165 C 
BRANCH  32  33
ATOM     33  O   UNL d   1      24.780 -14.516  -4.389  0.00  0.00    -0.401 OA
ATOM     34  H   UNL d   1      25.578 -15.037  -4.204  0.00  0.00     0.209 HD
ENDBRANCH  32  33
ENDBRANCH  31  32
ENDBRANCH  30  31
ENDBRANCH  28  30
ENDBRANCH  25  26
ENDBRANCH  18  20
ENDBRANCH   1  18
TORSDOF 12
ENDMDL
MODEL 5
REMARK VINA RESULT:    -6.743      2.070      4.138
REMARK INTER + INTRA:         -14.332
REMARK INTER:                 -10.322
REMARK INTRA:                  -4.010
REMARK CONF_INDEPENDENT:        3.580
REMARK UNBOUND:                -4.010
REMARK  12 active torsions:
REMARK  status: ('A' for Active; 'I' for Inactive)
REMARK    1  A    between atoms: C_2  and  C_3 
REMARK    2  A    between atoms: C_3  and  O_4 
REMARK    3  A    between atoms: O_4  and  C_5 
REMARK    4  A    between atoms: C_8  and  C_9 
REMARK       I    between atoms: C_9  and  N_11 
REMARK    5  A    between atoms: N_11  and  C_12 
REMARK    6  A    between atoms: C_12  and  N_14 
REMARK    7  A    between atoms: N_14  and  C_15 
REMARK    8  A    between atoms: C_20  and  C_21 
REMARK       I    between atoms: C_21  and  N_23 
REMARK    9  A    between atoms: N_23  and  C_24 
REMARK   10  A    between atoms: C_24  and  C_25 
REMARK   11  A    between atoms: C_25  and  C_26 
REMARK   12  A    between atoms: C_26  and  O_27 
ROOT
ATOM      1  C   UNL d   1      28.686 -16.097  -0.272  0.00  0.00     0.179 C 
ATOM      2  S   UNL d   1      29.869 -17.196  -0.754  0.00  0.00    -0.040 SA
ENDROOT
BRANCH   1   3
ATOM      3  N   UNL d   1      28.576 -15.566   1.039  0.00  0.00    -0.299 N 
ATOM      4  C   UNL d   1      27.787 -14.445   1.411  0.00  0.00     0.257 C 
ATOM      5  O   UNL d   1      27.171 -13.737   0.615  0.00  0.00    -0.267 OA
ATOM      6  H   UNL d   1      29.204 -15.948   1.730  0.00  0.00     0.171 HD
BRANCH   4   7
ATOM      7  C   UNL d   1      27.777 -13.926   2.810  0.00  0.00     0.033 C 
ATOM      8  C   UNL d   1      27.999 -14.825   3.876  0.00  0.00     0.020 C 
ATOM      9  C   UNL d   1      28.141 -14.365   5.191  0.00  0.00     0.039 C 
ATOM     10  C   UNL d   1      28.068 -12.992   5.474  0.00  0.00     0.086 C 
ATOM     11  C   UNL d   1      27.783 -12.111   4.411  0.00  0.00     0.045 C 
ATOM     12  C   UNL d   1      27.594 -12.588   3.107  0.00  0.00     0.039 C 
ATOM     13 BR   UNL d   1      27.790 -10.204   4.444  0.00  0.00    -0.048 Br
BRANCH  10  14
ATOM     14  O   UNL d   1      28.401 -12.674   6.767  0.00  0.00    -0.350 OA
BRANCH  14  15
ATOM     15  C   UNL d   1      29.646 -13.180   7.236  0.00  0.00     0.175 C 
BRANCH  15  16
ATOM     16  C   UNL d   1      29.450 -14.065   8.459  0.00  0.00     0.022 C 
ATOM     17  C   UNL d   1      28.530 -13.366   9.451  0.00  0.00     0.007 C 
ENDBRANCH  15  16
ENDBRANCH  14  15
ENDBRANCH  10  14
ENDBRANCH   4   7
ENDBRANCH   1   3
BRANCH   1  18
ATOM     18  N   UNL d   1      27.621 -15.679  -1.124  0.00  0.00    -0.332 N 
ATOM     19  H   UNL d   1      27.858 -15.237  -2.007  0.00  0.00     0.168 HD
BRANCH  18  20
ATOM     20  C   UNL d   1      26.332 -16.338  -1.113  0.00  0.00     0.050 A 
ATOM     21  C   UNL d   1      26.196 -17.558  -0.410  0.00  0.00     0.030 A 
ATOM     22  C   UNL d   1      24.949 -18.197  -0.301  0.00  0.00     0.002 A 
ATOM     23  C   UNL d   1      23.816 -17.611  -0.854  0.00  0.00     0.001 A 
ATOM     24  C   UNL d   1      23.942 -16.425  -1.581  0.00  0.00     0.019 A 
ATOM     25  C   UNL d   1      25.192 -15.789  -1.750  0.00  0.00     0.058 A 
BRANCH  25  26
ATOM     26  C   UNL d   1      25.202 -14.549  -2.611  0.00  0.00     0.253 C 
ATOM     27  O   UNL d   1      24.419 -14.452  -3.565  0.00  0.00    -0.268 OA
ATOM     28  N   UNL d   1      26.102 -13.546  -2.308  0.00  0.00    -0.357 N 
ATOM     29  H   UNL d   1      26.697 -13.697  -1.507  0.00  0.00     0.162 HD
BRANCH  28  30
ATOM     30  C   UNL d   1      25.927 -12.187  -2.801  0.00  0.00     0.125 C 
BRANCH  30  31
ATOM     31  C   UNL d   1      27.223 -11.394  -2.813  0.00  0.00     0.046 C 
BRANCH  31  32
ATOM     32  C   UNL d   1      28.193 -11.743  -1.707  0.00  0.00     0.165 C 
BRANCH  32  33
ATOM     33  O   UNL d   1      28.524 -13.127  -1.788  0.00  0.00    -0.401 OA
ATOM     34  H   UNL d   1      28.700 -13.427  -0.881  0.00  0.00     0.209 HD
ENDBRANCH  32  33
ENDBRANCH  31  32
ENDBRANCH  30  31
ENDBRANCH  28  30
ENDBRANCH  25  26
ENDBRANCH  18  20
ENDBRANCH   1  18
TORSDOF 12
ENDMDL
MODEL 6
REMARK VINA RESULT:    -6.204      3.183      8.878
REMARK INTER + INTRA:         -14.011
REMARK INTER:                  -9.784
REMARK INTRA:                  -4.227
REMARK CONF_INDEPENDENT:        3.580
REMARK UNBOUND:                -4.227
REMARK  12 active torsions:
REMARK  status: ('A' for Active; 'I' for Inactive)
REMARK    1  A    between atoms: C_2  and  C_3 
REMARK    2  A    between atoms: C_3  and  O_4 
REMARK    3  A    between atoms: O_4  and  C_5 
REMARK    4  A    between atoms: C_8  and  C_9 
REMARK       I    between atoms: C_9  and  N_11 
REMARK    5  A    between atoms: N_11  and  C_12 
REMARK    6  A    between atoms: C_12  and  N_14 
REMARK    7  A    between atoms: N_14  and  C_15 
REMARK    8  A    between atoms: C_20  and  C_21 
REMARK       I    between atoms: C_21  and  N_23 
REMARK    9  A    between atoms: N_23  and  C_24 
REMARK   10  A    between atoms: C_24  and  C_25 
REMARK   11  A    between atoms: C_25  and  C_26 
REMARK   12  A    between atoms: C_26  and  O_27 
ROOT
ATOM      1  C   UNL d   1      30.307 -14.100   2.475  0.00  0.00     0.179 C 
ATOM      2  S   UNL d   1      31.951 -14.416   2.660  0.00  0.00    -0.040 SA
ENDROOT
BRANCH   1   3
ATOM      3  N   UNL d   1      29.447 -14.821   1.606  0.00  0.00    -0.299 N 
ATOM      4  C   UNL d   1      28.245 -14.323   1.036  0.00  0.00     0.257 C 
ATOM      5  O   UNL d   1      27.752 -13.228   1.305  0.00  0.00    -0.267 OA
ATOM      6  H   UNL d   1      29.654 -15.801   1.486  0.00  0.00     0.171 HD
BRANCH   4   7
ATOM      7  C   UNL d   1      27.377 -15.178   0.173  0.00  0.00     0.033 C 
ATOM      8  C   UNL d   1      27.045 -16.478   0.610  0.00  0.00     0.020 C 
ATOM      9  C   UNL d   1      26.122 -17.263  -0.093  0.00  0.00     0.039 C 
ATOM     10  C   UNL d   1      25.504 -16.763  -1.251  0.00  0.00     0.086 C 
ATOM     11  C   UNL d   1      25.891 -15.489  -1.712  0.00  0.00     0.045 C 
ATOM     12  C   UNL d   1      26.853 -14.734  -1.026  0.00  0.00     0.039 C 
ATOM     13 BR   UNL d   1      25.121 -14.480  -3.136  0.00  0.00    -0.048 Br
BRANCH  10  14
ATOM     14  O   UNL d   1      24.497 -17.563  -1.730  0.00  0.00    -0.350 OA
BRANCH  14  15
ATOM     15  C   UNL d   1      23.813 -18.356  -0.767  0.00  0.00     0.175 C 
BRANCH  15  16
ATOM     16  C   UNL d   1      22.394 -17.849  -0.550  0.00  0.00     0.022 C 
ATOM     17  C   UNL d   1      21.402 -18.954  -0.886  0.00  0.00     0.007 C 
ENDBRANCH  15  16
ENDBRANCH  14  15
ENDBRANCH  10  14
ENDBRANCH   4   7
ENDBRANCH   1   3
BRANCH   1  18
ATOM     18  N   UNL d   1      29.650 -13.003   3.109  0.00  0.00    -0.332 N 
ATOM     19  H   UNL d   1      29.130 -12.355   2.526  0.00  0.00     0.168 HD
BRANCH  18  20
ATOM     20  C   UNL d   1      29.190 -13.077   4.479  0.00  0.00     0.050 A 
ATOM     21  C   UNL d   1      29.591 -14.175   5.274  0.00  0.00     0.030 A 
ATOM     22  C   UNL d   1      29.238 -14.255   6.633  0.00  0.00     0.002 A 
ATOM     23  C   UNL d   1      28.516 -13.225   7.226  0.00  0.00     0.001 A 
ATOM     24  C   UNL d   1      28.082 -12.152   6.443  0.00  0.00     0.019 A 
ATOM     25  C   UNL d   1      28.379 -12.073   5.064  0.00  0.00     0.058 A 
BRANCH  25  26
ATOM     26  C   UNL d   1      27.797 -10.896   4.320  0.00  0.00     0.253 C 
ATOM     27  O   UNL d   1      27.920  -9.753   4.777  0.00  0.00    -0.268 OA
ATOM     28  N   UNL d   1      27.129 -11.134   3.135  0.00  0.00    -0.357 N 
ATOM     29  H   UNL d   1      27.083 -12.093   2.824  0.00  0.00     0.162 HD
BRANCH  28  30
ATOM     30  C   UNL d   1      26.892 -10.074   2.164  0.00  0.00     0.125 C 
BRANCH  30  31
ATOM     31  C   UNL d   1      27.407 -10.420   0.778  0.00  0.00     0.046 C 
BRANCH  31  32
ATOM     32  C   UNL d   1      28.881 -10.163   0.563  0.00  0.00     0.165 C 
BRANCH  32  33
ATOM     33  O   UNL d   1      29.594 -11.392   0.660  0.00  0.00    -0.401 OA
ATOM     34  H   UNL d   1      28.966 -12.057   0.988  0.00  0.00     0.209 HD
ENDBRANCH  32  33
ENDBRANCH  31  32
ENDBRANCH  30  31
ENDBRANCH  28  30
ENDBRANCH  25  26
ENDBRANCH  18  20
ENDBRANCH   1  18
TORSDOF 12
ENDMDL
MODEL 7
REMARK VINA RESULT:    -6.094      5.770      8.631
REMARK INTER + INTRA:         -13.979
REMARK INTER:                  -9.674
REMARK INTRA:                  -4.305
REMARK CONF_INDEPENDENT:        3.580
REMARK UNBOUND:                -4.305
REMARK  12 active torsions:
REMARK  status: ('A' for Active; 'I' for Inactive)
REMARK    1  A    between atoms: C_2  and  C_3 
REMARK    2  A    between atoms: C_3  and  O_4 
REMARK    3  A    between atoms: O_4  and  C_5 
REMARK    4  A    between atoms: C_8  and  C_9 
REMARK       I    between atoms: C_9  and  N_11 
REMARK    5  A    between atoms: N_11  and  C_12 
REMARK    6  A    between atoms: C_12  and  N_14 
REMARK    7  A    between atoms: N_14  and  C_15 
REMARK    8  A    between atoms: C_20  and  C_21 
REMARK       I    between atoms: C_21  and  N_23 
REMARK    9  A    between atoms: N_23  and  C_24 
REMARK   10  A    between atoms: C_24  and  C_25 
REMARK   11  A    between atoms: C_25  and  C_26 
REMARK   12  A    between atoms: C_26  and  O_27 
ROOT
ATOM      1  C   UNL d   1      29.663 -15.035  -5.703  0.00  0.00     0.179 C 
ATOM      2  S   UNL d   1      29.446 -13.883  -6.912  0.00  0.00    -0.040 SA
ENDROOT
BRANCH   1   3
ATOM      3  N   UNL d   1      28.795 -15.202  -4.593  0.00  0.00    -0.299 N 
ATOM      4  C   UNL d   1      27.401 -15.466  -4.669  0.00  0.00     0.257 C 
ATOM      5  O   UNL d   1      26.756 -15.490  -5.716  0.00  0.00    -0.267 OA
ATOM      6  H   UNL d   1      29.186 -14.997  -3.686  0.00  0.00     0.171 HD
BRANCH   4   7
ATOM      7  C   UNL d   1      26.559 -15.573  -3.441  0.00  0.00     0.033 C 
ATOM      8  C   UNL d   1      25.312 -14.912  -3.406  0.00  0.00     0.020 C 
ATOM      9  C   UNL d   1      24.425 -15.099  -2.339  0.00  0.00     0.039 C 
ATOM     10  C   UNL d   1      24.763 -15.955  -1.278  0.00  0.00     0.086 C 
ATOM     11  C   UNL d   1      26.036 -16.559  -1.294  0.00  0.00     0.045 C 
ATOM     12  C   UNL d   1      26.934 -16.325  -2.344  0.00  0.00     0.039 C 
ATOM     13 BR   UNL d   1      26.711 -17.886  -0.102  0.00  0.00    -0.048 Br
BRANCH  10  14
ATOM     14  O   UNL d   1      23.733 -16.180  -0.399  0.00  0.00    -0.350 OA
BRANCH  14  15
ATOM     15  C   UNL d   1      22.638 -16.942  -0.895  0.00  0.00     0.175 C 
BRANCH  15  16
ATOM     16  C   UNL d   1      22.871 -18.431  -0.686  0.00  0.00     0.022 C 
ATOM     17  C   UNL d   1      21.554 -19.107  -0.328  0.00  0.00     0.007 C 
ENDBRANCH  15  16
ENDBRANCH  14  15
ENDBRANCH  10  14
ENDBRANCH   4   7
ENDBRANCH   1   3
BRANCH   1  18
ATOM     18  N   UNL d   1      30.807 -15.886  -5.638  0.00  0.00    -0.332 N 
ATOM     19  H   UNL d   1      31.691 -15.479  -5.347  0.00  0.00     0.168 HD
BRANCH  18  20
ATOM     20  C   UNL d   1      30.688 -17.305  -5.379  0.00  0.00     0.050 A 
ATOM     21  C   UNL d   1      30.449 -18.179  -6.464  0.00  0.00     0.030 A 
ATOM     22  C   UNL d   1      30.405 -19.571  -6.279  0.00  0.00     0.002 A 
ATOM     23  C   UNL d   1      30.639 -20.114  -5.021  0.00  0.00     0.001 A 
ATOM     24  C   UNL d   1      30.841 -19.261  -3.933  0.00  0.00     0.019 A 
ATOM     25  C   UNL d   1      30.838 -17.856  -4.082  0.00  0.00     0.058 A 
BRANCH  25  26
ATOM     26  C   UNL d   1      31.003 -17.048  -2.818  0.00  0.00     0.253 C 
ATOM     27  O   UNL d   1      31.036 -15.813  -2.873  0.00  0.00    -0.268 OA
ATOM     28  N   UNL d   1      31.120 -17.723  -1.618  0.00  0.00    -0.357 N 
ATOM     29  H   UNL d   1      31.071 -18.730  -1.656  0.00  0.00     0.162 HD
BRANCH  28  30
ATOM     30  C   UNL d   1      30.882 -17.061  -0.343  0.00  0.00     0.125 C 
BRANCH  30  31
ATOM     31  C   UNL d   1      29.568 -16.299  -0.311  0.00  0.00     0.046 C 
BRANCH  31  32
ATOM     32  C   UNL d   1      29.701 -14.795  -0.384  0.00  0.00     0.165 C 
BRANCH  32  33
ATOM     33  O   UNL d   1      29.209 -14.336  -1.640  0.00  0.00    -0.401 OA
ATOM     34  H   UNL d   1      29.864 -14.593  -2.310  0.00  0.00     0.209 HD
ENDBRANCH  32  33
ENDBRANCH  31  32
ENDBRANCH  30  31
ENDBRANCH  28  30
ENDBRANCH  25  26
ENDBRANCH  18  20
ENDBRANCH   1  18
TORSDOF 12
ENDMDL
MODEL 8
REMARK VINA RESULT:    -5.712      2.438      3.316
REMARK INTER + INTRA:         -13.685
REMARK INTER:                  -9.292
REMARK INTRA:                  -4.393
REMARK CONF_INDEPENDENT:        3.580
REMARK UNBOUND:                -4.393
REMARK  12 active torsions:
REMARK  status: ('A' for Active; 'I' for Inactive)
REMARK    1  A    between atoms: C_2  and  C_3 
REMARK    2  A    between atoms: C_3  and  O_4 
REMARK    3  A    between atoms: O_4  and  C_5 
REMARK    4  A    between atoms: C_8  and  C_9 
REMARK       I    between atoms: C_9  and  N_11 
REMARK    5  A    between atoms: N_11  and  C_12 
REMARK    6  A    between atoms: C_12  and  N_14 
REMARK    7  A    between atoms: N_14  and  C_15 
REMARK    8  A    between atoms: C_20  and  C_21 
REMARK       I    between atoms: C_21  and  N_23 
REMARK    9  A    between atoms: N_23  and  C_24 
REMARK   10  A    between atoms: C_24  and  C_25 
REMARK   11  A    between atoms: C_25  and  C_26 
REMARK   12  A    between atoms: C_26  and  O_27 
ROOT
ATOM      1  C   UNL d   1      29.215 -16.615  -0.758  0.00  0.00     0.179 C 
ATOM      2  S   UNL d   1      30.514 -17.667  -0.962  0.00  0.00    -0.040 SA
ENDROOT
BRANCH   1   3
ATOM      3  N   UNL d   1      28.943 -15.905   0.440  0.00  0.00    -0.299 N 
ATOM      4  C   UNL d   1      27.950 -14.901   0.595  0.00  0.00     0.257 C 
ATOM      5  O   UNL d   1      27.262 -14.458  -0.324  0.00  0.00    -0.267 OA
ATOM      6  H   UNL d   1      29.590 -16.047   1.200  0.00  0.00     0.171 HD
BRANCH   4   7
ATOM      7  C   UNL d   1      27.774 -14.169   1.885  0.00  0.00     0.033 C 
ATOM      8  C   UNL d   1      28.163 -14.798   3.087  0.00  0.00     0.020 C 
ATOM      9  C   UNL d   1      28.151 -14.101   4.303  0.00  0.00     0.039 C 
ATOM     10  C   UNL d   1      27.753 -12.756   4.344  0.00  0.00     0.086 C 
ATOM     11  C   UNL d   1      27.307 -12.159   3.148  0.00  0.00     0.045 C 
ATOM     12  C   UNL d   1      27.276 -12.881   1.947  0.00  0.00     0.039 C 
ATOM     13 BR   UNL d   1      26.871 -10.326   2.852  0.00  0.00    -0.048 Br
BRANCH  10  14
ATOM     14  O   UNL d   1      27.961 -12.154   5.561  0.00  0.00    -0.350 OA
BRANCH  14  15
ATOM     15  C   UNL d   1      28.176 -13.027   6.664  0.00  0.00     0.175 C 
BRANCH  15  16
ATOM     16  C   UNL d   1      29.262 -12.488   7.584  0.00  0.00     0.022 C 
ATOM     17  C   UNL d   1      29.703 -13.581   8.547  0.00  0.00     0.007 C 
ENDBRANCH  15  16
ENDBRANCH  14  15
ENDBRANCH  10  14
ENDBRANCH   4   7
ENDBRANCH   1   3
BRANCH   1  18
ATOM     18  N   UNL d   1      28.206 -16.425  -1.749  0.00  0.00    -0.332 N 
ATOM     19  H   UNL d   1      27.244 -16.326  -1.442  0.00  0.00     0.168 HD
BRANCH  18  20
ATOM     20  C   UNL d   1      28.495 -15.793  -3.019  0.00  0.00     0.050 A 
ATOM     21  C   UNL d   1      29.842 -15.682  -3.435  0.00  0.00     0.030 A 
ATOM     22  C   UNL d   1      30.172 -15.150  -4.693  0.00  0.00     0.002 A 
ATOM     23  C   UNL d   1      29.165 -14.760  -5.570  0.00  0.00     0.001 A 
ATOM     24  C   UNL d   1      27.832 -14.831  -5.158  0.00  0.00     0.019 A 
ATOM     25  C   UNL d   1      27.476 -15.313  -3.879  0.00  0.00     0.058 A 
BRANCH  25  26
ATOM     26  C   UNL d   1      26.007 -15.278  -3.535  0.00  0.00     0.253 C 
ATOM     27  O   UNL d   1      25.160 -15.288  -4.437  0.00  0.00    -0.268 OA
ATOM     28  N   UNL d   1      25.646 -15.229  -2.203  0.00  0.00    -0.357 N 
ATOM     29  H   UNL d   1      26.396 -15.237  -1.528  0.00  0.00     0.162 HD
BRANCH  28  30
ATOM     30  C   UNL d   1      24.306 -15.591  -1.760  0.00  0.00     0.125 C 
BRANCH  30  31
ATOM     31  C   UNL d   1      24.143 -17.084  -1.536  0.00  0.00     0.046 C 
BRANCH  31  32
ATOM     32  C   UNL d   1      24.921 -17.642  -0.366  0.00  0.00     0.165 C 
BRANCH  32  33
ATOM     33  O   UNL d   1      26.052 -16.813  -0.112  0.00  0.00    -0.401 OA
ATOM     34  H   UNL d   1      25.713 -15.917   0.052  0.00  0.00     0.209 HD
ENDBRANCH  32  33
ENDBRANCH  31  32
ENDBRANCH  30  31
ENDBRANCH  28  30
ENDBRANCH  25  26
ENDBRANCH  18  20
ENDBRANCH   1  18
TORSDOF 12
ENDMDL
MODEL 9
REMARK VINA RESULT:    -5.668      6.353      8.920
REMARK INTER + INTRA:         -13.830
REMARK INTER:                  -9.247
REMARK INTRA:                  -4.583
REMARK CONF_INDEPENDENT:        3.580
REMARK UNBOUND:                -4.583
REMARK  12 active torsions:
REMARK  status: ('A' for Active; 'I' for Inactive)
REMARK    1  A    between atoms: C_2  and  C_3 
REMARK    2  A    between atoms: C_3  and  O_4 
REMARK    3  A    between atoms: O_4  and  C_5 
REMARK    4  A    between atoms: C_8  and  C_9 
REMARK       I    between atoms: C_9  and  N_11 
REMARK    5  A    between atoms: N_11  and  C_12 
REMARK    6  A    between atoms: C_12  and  N_14 
REMARK    7  A    between atoms: N_14  and  C_15 
REMARK    8  A    between atoms: C_20  and  C_21 
REMARK       I    between atoms: C_21  and  N_23 
REMARK    9  A    between atoms: N_23  and  C_24 
REMARK   10  A    between atoms: C_24  and  C_25 
REMARK   11  A    between atoms: C_25  and  C_26 
REMARK   12  A    between atoms: C_26  and  O_27 
ROOT
ATOM      1  C   UNL d   1      29.139 -15.264  -5.858  0.00  0.00     0.179 C 
ATOM      2  S   UNL d   1      28.999 -14.244  -7.191  0.00  0.00    -0.040 SA
ENDROOT
BRANCH   1   3
ATOM      3  N   UNL d   1      28.108 -15.485  -4.908  0.00  0.00    -0.299 N 
ATOM      4  C   UNL d   1      28.260 -15.423  -3.497  0.00  0.00     0.257 C 
ATOM      5  O   UNL d   1      29.336 -15.260  -2.922  0.00  0.00    -0.267 OA
ATOM      6  H   UNL d   1      27.232 -15.829  -5.273  0.00  0.00     0.171 HD
BRANCH   4   7
ATOM      7  C   UNL d   1      27.125 -15.724  -2.576  0.00  0.00     0.033 C 
ATOM      8  C   UNL d   1      25.836 -15.244  -2.897  0.00  0.00     0.020 C 
ATOM      9  C   UNL d   1      24.717 -15.619  -2.142  0.00  0.00     0.039 C 
ATOM     10  C   UNL d   1      24.859 -16.488  -1.049  0.00  0.00     0.086 C 
ATOM     11  C   UNL d   1      26.158 -16.909  -0.700  0.00  0.00     0.045 C 
ATOM     12  C   UNL d   1      27.276 -16.487  -1.434  0.00  0.00     0.039 C 
ATOM     13 BR   UNL d   1      26.651 -18.206   0.608  0.00  0.00    -0.048 Br
BRANCH  10  14
ATOM     14  O   UNL d   1      23.665 -16.908  -0.517  0.00  0.00    -0.350 OA
BRANCH  14  15
ATOM     15  C   UNL d   1      23.206 -18.188  -0.939  0.00  0.00     0.175 C 
BRANCH  15  16
ATOM     16  C   UNL d   1      22.084 -18.689  -0.041  0.00  0.00     0.022 C 
ATOM     17  C   UNL d   1      20.846 -18.968  -0.881  0.00  0.00     0.007 C 
ENDBRANCH  15  16
ENDBRANCH  14  15
ENDBRANCH  10  14
ENDBRANCH   4   7
ENDBRANCH   1   3
BRANCH   1  18
ATOM     18  N   UNL d   1      30.356 -15.923  -5.509  0.00  0.00    -0.332 N 
ATOM     19  H   UNL d   1      30.636 -15.927  -4.533  0.00  0.00     0.168 HD
BRANCH  18  20
ATOM     20  C   UNL d   1      30.872 -17.032  -6.283  0.00  0.00     0.050 A 
ATOM     21  C   UNL d   1      31.228 -16.813  -7.633  0.00  0.00     0.030 A 
ATOM     22  C   UNL d   1      31.808 -17.835  -8.406  0.00  0.00     0.002 A 
ATOM     23  C   UNL d   1      32.077 -19.073  -7.833  0.00  0.00     0.001 A 
ATOM     24  C   UNL d   1      31.698 -19.314  -6.510  0.00  0.00     0.019 A 
ATOM     25  C   UNL d   1      31.067 -18.321  -5.728  0.00  0.00     0.058 A 
BRANCH  25  26
ATOM     26  C   UNL d   1      30.650 -18.730  -4.336  0.00  0.00     0.253 C 
ATOM     27  O   UNL d   1      30.522 -19.928  -4.055  0.00  0.00    -0.268 OA
ATOM     28  N   UNL d   1      30.414 -17.739  -3.403  0.00  0.00    -0.357 N 
ATOM     29  H   UNL d   1      30.553 -16.787  -3.707  0.00  0.00     0.162 HD
BRANCH  28  30
ATOM     30  C   UNL d   1      30.405 -18.020  -1.974  0.00  0.00     0.125 C 
BRANCH  30  31
ATOM     31  C   UNL d   1      31.705 -17.635  -1.290  0.00  0.00     0.046 C 
BRANCH  31  32
ATOM     32  C   UNL d   1      32.662 -16.835  -2.145  0.00  0.00     0.165 C 
BRANCH  32  33
ATOM     33  O   UNL d   1      31.949 -15.793  -2.805  0.00  0.00    -0.401 OA
ATOM     34  H   UNL d   1      31.250 -15.502  -2.196  0.00  0.00     0.209 HD
ENDBRANCH  32  33
ENDBRANCH  31  32
ENDBRANCH  30  31
ENDBRANCH  28  30
ENDBRANCH  25  26
ENDBRANCH  18  20
ENDBRANCH   1  18
TORSDOF 12
ENDMDL
