MODEL 1
REMARK VINA RESULT:   -11.382      0.000      0.000
REMARK INTER + INTRA:         -15.513
REMARK INTER:                 -14.067
REMARK INTRA:                  -1.446
REMARK CONF_INDEPENDENT:        2.685
REMARK UNBOUND:                -1.446
REMARK  9 active torsions:
REMARK  status: ('A' for Active; 'I' for Inactive)
REMARK    1  A    between atoms: O_2  and  C_3 
REMARK    2  A    between atoms: C_6  and  C_7 
REMARK    3  A    between atoms: C_8  and  C_9 
REMARK       I    between atoms: C_9  and  N_11 
REMARK    4  A    between atoms: N_11  and  C_12 
REMARK    5  A    between atoms: C_12  and  N_14 
REMARK    6  A    between atoms: N_14  and  C_15 
REMARK    7  A    between atoms: C_18  and  N_19 
REMARK       I    between atoms: N_19  and  C_20 
REMARK    8  A    between atoms: C_20  and  C_22 
REMARK    9  A    between atoms: C_32  and  O_33 
ROOT
ATOM      1  N   UNL d   1      27.312 -16.394  -1.344  0.00  0.00    -0.333 N 
ATOM      2  H   UNL d   1      27.384 -16.035  -2.288  0.00  0.00     0.168 HD
ENDROOT
BRANCH   1   3
ATOM      3  C   UNL d   1      28.469 -16.541  -0.521  0.00  0.00     0.179 C 
ATOM      4  S   UNL d   1      29.805 -17.477  -0.994  0.00  0.00    -0.040 SA
BRANCH   3   5
ATOM      5  N   UNL d   1      28.457 -15.806   0.693  0.00  0.00    -0.300 N 
ATOM      6  C   UNL d   1      27.930 -14.508   0.828  0.00  0.00     0.247 C 
ATOM      7  O   UNL d   1      27.540 -13.798  -0.107  0.00  0.00    -0.268 OA
ATOM      8  H   UNL d   1      28.806 -16.259   1.528  0.00  0.00     0.171 HD
BRANCH   6   9
ATOM      9  C   UNL d   1      27.857 -13.890   2.184  0.00  0.00     0.075 C 
ATOM     10  C   UNL d   1      28.656 -14.384   3.167  0.00  0.00     0.017 C 
BRANCH  10  11
ATOM     11  C   UNL d   1      28.675 -13.959   4.585  0.00  0.00    -0.033 A 
ATOM     12  C   UNL d   1      29.034 -14.811   5.636  0.00  0.00     0.014 A 
ATOM     13  C   UNL d   1      28.912 -14.386   6.981  0.00  0.00     0.040 A 
ATOM     14  C   UNL d   1      28.500 -13.078   7.324  0.00  0.00     0.101 A 
ATOM     15  C   UNL d   1      28.206 -12.208   6.260  0.00  0.00     0.102 A 
ATOM     16  C   UNL d   1      28.292 -12.670   4.933  0.00  0.00     0.051 A 
BRANCH  14  17
ATOM     17  O   UNL d   1      28.692 -12.776   8.655  0.00  0.00    -0.353 OA
ATOM     18  C   UNL d   1      28.902 -13.792   9.636  0.00  0.00     0.210 C 
ENDBRANCH  14  17
BRANCH  15  19
ATOM     19  O   UNL d   1      27.877 -10.878   6.205  0.00  0.00    -0.353 OA
ATOM     20  C   UNL d   1      27.868 -10.313   4.931  0.00  0.00     0.210 C 
ENDBRANCH  15  19
ENDBRANCH  10  11
ENDBRANCH   6   9
ENDBRANCH   3   5
ENDBRANCH   1   3
BRANCH   1  21
ATOM     21  C   UNL d   1      26.021 -16.941  -0.981  0.00  0.00     0.034 C 
ATOM     22  C   UNL d   1      25.798 -18.219  -0.459  0.00  0.00     0.032 C 
ATOM     23  C   UNL d   1      24.472 -18.634  -0.089  0.00  0.00     0.032 C 
ATOM     24  C   UNL d   1      23.353 -17.773  -0.202  0.00  0.00     0.041 C 
ATOM     25  C   UNL d   1      23.585 -16.556  -0.846  0.00  0.00    -0.033 C 
ATOM     26  C   UNL d   1      22.536 -15.582  -1.270  0.00  0.00     0.050 C 
ATOM     27  C   UNL d   1      24.889 -16.168  -1.201  0.00  0.00     0.038 C 
BRANCH  24  28
ATOM     28  N   UNL d   1      22.061 -18.191   0.274  0.00  0.00    -0.322 N 
ATOM     29  C   UNL d   1      21.129 -18.975  -0.424  0.00  0.00     0.256 C 
ATOM     30  O   UNL d   1      21.091 -19.259  -1.609  0.00  0.00    -0.267 OA
ATOM     31  H   UNL d   1      21.749 -17.793   1.150  0.00  0.00     0.169 HD
BRANCH  29  32
ATOM     32  C   UNL d   1      19.927 -19.442   0.275  0.00  0.00     0.032 A 
ATOM     33  C   UNL d   1      19.971 -19.648   1.668  0.00  0.00     0.017 A 
ATOM     34  C   UNL d   1      19.052 -20.511   2.266  0.00  0.00     0.001 A 
ATOM     35  C   UNL d   1      18.067 -21.113   1.482  0.00  0.00     0.000 A 
ATOM     36  C   UNL d   1      18.032 -20.902   0.100  0.00  0.00     0.001 A 
ATOM     37  C   UNL d   1      18.971 -20.077  -0.509  0.00  0.00     0.017 A 
ENDBRANCH  29  32
ENDBRANCH  24  28
ENDBRANCH   1  21
TORSDOF 9
ENDMDL
MODEL 2
REMARK VINA RESULT:   -11.361      0.801      1.581
REMARK INTER + INTRA:         -15.514
REMARK INTER:                 -14.045
REMARK INTRA:                  -1.469
REMARK CONF_INDEPENDENT:        2.685
REMARK UNBOUND:                -1.469
REMARK  9 active torsions:
REMARK  status: ('A' for Active; 'I' for Inactive)
REMARK    1  A    between atoms: O_2  and  C_3 
REMARK    2  A    between atoms: C_6  and  C_7 
REMARK    3  A    between atoms: C_8  and  C_9 
REMARK       I    between atoms: C_9  and  N_11 
REMARK    4  A    between atoms: N_11  and  C_12 
REMARK    5  A    between atoms: C_12  and  N_14 
REMARK    6  A    between atoms: N_14  and  C_15 
REMARK    7  A    between atoms: C_18  and  N_19 
REMARK       I    between atoms: N_19  and  C_20 
REMARK    8  A    between atoms: C_20  and  C_22 
REMARK    9  A    between atoms: C_32  and  O_33 
ROOT
ATOM      1  N   UNL d   1      27.321 -16.349  -1.152  0.00  0.00    -0.333 N 
ATOM      2  H   UNL d   1      27.403 -15.999  -2.098  0.00  0.00     0.168 HD
ENDROOT
BRANCH   1   3
ATOM      3  C   UNL d   1      28.466 -16.473  -0.310  0.00  0.00     0.179 C 
ATOM      4  S   UNL d   1      29.787 -17.462  -0.714  0.00  0.00    -0.040 SA
BRANCH   3   5
ATOM      5  N   UNL d   1      28.457 -15.672   0.862  0.00  0.00    -0.300 N 
ATOM      6  C   UNL d   1      27.608 -14.566   1.059  0.00  0.00     0.247 C 
ATOM      7  O   UNL d   1      26.867 -14.076   0.197  0.00  0.00    -0.268 OA
ATOM      8  H   UNL d   1      29.066 -15.936   1.625  0.00  0.00     0.171 HD
BRANCH   6   9
ATOM      9  C   UNL d   1      27.601 -13.882   2.384  0.00  0.00     0.075 C 
ATOM     10  C   UNL d   1      28.378 -14.386   3.379  0.00  0.00     0.017 C 
BRANCH  10  11
ATOM     11  C   UNL d   1      28.451 -13.897   4.776  0.00  0.00    -0.033 A 
ATOM     12  C   UNL d   1      27.571 -12.943   5.300  0.00  0.00     0.014 A 
ATOM     13  C   UNL d   1      27.767 -12.421   6.602  0.00  0.00     0.040 A 
ATOM     14  C   UNL d   1      28.800 -12.881   7.451  0.00  0.00     0.101 A 
ATOM     15  C   UNL d   1      29.638 -13.887   6.938  0.00  0.00     0.102 A 
ATOM     16  C   UNL d   1      29.449 -14.356   5.625  0.00  0.00     0.051 A 
BRANCH  14  17
ATOM     17  O   UNL d   1      28.672 -12.448   8.752  0.00  0.00    -0.353 OA
ATOM     18  C   UNL d   1      28.216 -13.313   9.793  0.00  0.00     0.210 C 
ENDBRANCH  14  17
BRANCH  15  19
ATOM     19  O   UNL d   1      30.657 -14.623   7.488  0.00  0.00    -0.353 OA
ATOM     20  C   UNL d   1      31.500 -13.928   8.353  0.00  0.00     0.210 C 
ENDBRANCH  15  19
ENDBRANCH  10  11
ENDBRANCH   6   9
ENDBRANCH   3   5
ENDBRANCH   1   3
BRANCH   1  21
ATOM     21  C   UNL d   1      26.031 -16.909  -0.803  0.00  0.00     0.034 C 
ATOM     22  C   UNL d   1      25.819 -18.164  -0.226  0.00  0.00     0.032 C 
ATOM     23  C   UNL d   1      24.491 -18.592   0.122  0.00  0.00     0.032 C 
ATOM     24  C   UNL d   1      23.358 -17.764  -0.069  0.00  0.00     0.041 C 
ATOM     25  C   UNL d   1      23.584 -16.575  -0.766  0.00  0.00    -0.033 C 
ATOM     26  C   UNL d   1      22.528 -15.649  -1.272  0.00  0.00     0.050 C 
ATOM     27  C   UNL d   1      24.890 -16.174  -1.098  0.00  0.00     0.038 C 
BRANCH  24  28
ATOM     28  N   UNL d   1      22.060 -18.190   0.384  0.00  0.00    -0.322 N 
ATOM     29  C   UNL d   1      21.118 -18.923  -0.352  0.00  0.00     0.256 C 
ATOM     30  O   UNL d   1      21.076 -19.144  -1.551  0.00  0.00    -0.267 OA
ATOM     31  H   UNL d   1      21.755 -17.834   1.281  0.00  0.00     0.169 HD
BRANCH  29  32
ATOM     32  C   UNL d   1      19.909 -19.410   0.322  0.00  0.00     0.032 A 
ATOM     33  C   UNL d   1      19.920 -19.585   1.720  0.00  0.00     0.017 A 
ATOM     34  C   UNL d   1      19.008 -20.461   2.311  0.00  0.00     0.001 A 
ATOM     35  C   UNL d   1      18.064 -21.108   1.513  0.00  0.00     0.000 A 
ATOM     36  C   UNL d   1      18.063 -20.928   0.126  0.00  0.00     0.001 A 
ATOM     37  C   UNL d   1      18.996 -20.089  -0.474  0.00  0.00     0.017 A 
ENDBRANCH  29  32
ENDBRANCH  24  28
ENDBRANCH   1  21
TORSDOF 9
ENDMDL
MODEL 3
REMARK VINA RESULT:   -10.810      5.028      5.996
REMARK INTER + INTRA:         -14.740
REMARK INTER:                 -13.495
REMARK INTRA:                  -1.245
REMARK CONF_INDEPENDENT:        2.685
REMARK UNBOUND:                -1.245
REMARK  9 active torsions:
REMARK  status: ('A' for Active; 'I' for Inactive)
REMARK    1  A    between atoms: O_2  and  C_3 
REMARK    2  A    between atoms: C_6  and  C_7 
REMARK    3  A    between atoms: C_8  and  C_9 
REMARK       I    between atoms: C_9  and  N_11 
REMARK    4  A    between atoms: N_11  and  C_12 
REMARK    5  A    between atoms: C_12  and  N_14 
REMARK    6  A    between atoms: N_14  and  C_15 
REMARK    7  A    between atoms: C_18  and  N_19 
REMARK       I    between atoms: N_19  and  C_20 
REMARK    8  A    between atoms: C_20  and  C_22 
REMARK    9  A    between atoms: C_32  and  O_33 
ROOT
ATOM      1  N   UNL d   1      29.139 -16.443  -0.651  0.00  0.00    -0.333 N 
ATOM      2  H   UNL d   1      29.308 -15.449  -0.566  0.00  0.00     0.168 HD
ENDROOT
BRANCH   1   3
ATOM      3  C   UNL d   1      30.157 -17.328  -1.117  0.00  0.00     0.179 C 
ATOM      4  S   UNL d   1      30.481 -17.546  -2.770  0.00  0.00    -0.040 SA
BRANCH   3   5
ATOM      5  N   UNL d   1      30.922 -17.970  -0.108  0.00  0.00    -0.300 N 
ATOM      6  C   UNL d   1      32.322 -17.877   0.004  0.00  0.00     0.247 C 
ATOM      7  O   UNL d   1      33.068 -17.342  -0.827  0.00  0.00    -0.268 OA
ATOM      8  H   UNL d   1      30.429 -18.493   0.604  0.00  0.00     0.171 HD
BRANCH   6   9
ATOM      9  C   UNL d   1      33.000 -18.491   1.181  0.00  0.00     0.075 C 
ATOM     10  C   UNL d   1      32.333 -19.437   1.894  0.00  0.00     0.017 C 
BRANCH  10  11
ATOM     11  C   UNL d   1      32.803 -20.106   3.130  0.00  0.00    -0.033 A 
ATOM     12  C   UNL d   1      34.138 -20.463   3.347  0.00  0.00     0.014 A 
ATOM     13  C   UNL d   1      34.507 -21.212   4.491  0.00  0.00     0.040 A 
ATOM     14  C   UNL d   1      33.572 -21.569   5.491  0.00  0.00     0.101 A 
ATOM     15  C   UNL d   1      32.246 -21.148   5.296  0.00  0.00     0.102 A 
ATOM     16  C   UNL d   1      31.898 -20.443   4.128  0.00  0.00     0.051 A 
BRANCH  14  17
ATOM     17  O   UNL d   1      34.160 -22.062   6.636  0.00  0.00    -0.353 OA
ATOM     18  C   UNL d   1      34.979 -23.232   6.620  0.00  0.00     0.210 C 
ENDBRANCH  14  17
BRANCH  15  19
ATOM     19  O   UNL d   1      31.118 -21.224   6.073  0.00  0.00    -0.353 OA
ATOM     20  C   UNL d   1      30.023 -21.849   5.482  0.00  0.00     0.210 C 
ENDBRANCH  15  19
ENDBRANCH  10  11
ENDBRANCH   6   9
ENDBRANCH   3   5
ENDBRANCH   1   3
BRANCH   1  21
ATOM     21  C   UNL d   1      27.761 -16.858  -0.483  0.00  0.00     0.034 C 
ATOM     22  C   UNL d   1      27.324 -17.919   0.316  0.00  0.00     0.032 C 
ATOM     23  C   UNL d   1      25.920 -18.206   0.442  0.00  0.00     0.032 C 
ATOM     24  C   UNL d   1      24.929 -17.422  -0.198  0.00  0.00     0.041 C 
ATOM     25  C   UNL d   1      25.401 -16.456  -1.089  0.00  0.00    -0.033 C 
ATOM     26  C   UNL d   1      24.561 -15.659  -2.033  0.00  0.00     0.050 C 
ATOM     27  C   UNL d   1      26.777 -16.191  -1.200  0.00  0.00     0.038 C 
BRANCH  24  28
ATOM     28  N   UNL d   1      23.533 -17.681   0.035  0.00  0.00    -0.322 N 
ATOM     29  C   UNL d   1      22.704 -18.527  -0.717  0.00  0.00     0.256 C 
ATOM     30  O   UNL d   1      22.895 -19.016  -1.818  0.00  0.00    -0.267 OA
ATOM     31  H   UNL d   1      23.079 -17.117   0.742  0.00  0.00     0.169 HD
BRANCH  29  32
ATOM     32  C   UNL d   1      21.343 -18.798  -0.241  0.00  0.00     0.032 A 
ATOM     33  C   UNL d   1      21.111 -18.951   1.140  0.00  0.00     0.017 A 
ATOM     34  C   UNL d   1      19.988 -19.656   1.574  0.00  0.00     0.001 A 
ATOM     35  C   UNL d   1      19.083 -20.151   0.634  0.00  0.00     0.000 A 
ATOM     36  C   UNL d   1      19.324 -19.994  -0.735  0.00  0.00     0.001 A 
ATOM     37  C   UNL d   1      20.463 -19.329  -1.176  0.00  0.00     0.017 A 
ENDBRANCH  29  32
ENDBRANCH  24  28
ENDBRANCH   1  21
TORSDOF 9
ENDMDL
MODEL 4
REMARK VINA RESULT:   -10.563      5.151      7.248
REMARK INTER + INTRA:         -14.667
REMARK INTER:                 -13.247
REMARK INTRA:                  -1.420
REMARK CONF_INDEPENDENT:        2.685
REMARK UNBOUND:                -1.420
REMARK  9 active torsions:
REMARK  status: ('A' for Active; 'I' for Inactive)
REMARK    1  A    between atoms: O_2  and  C_3 
REMARK    2  A    between atoms: C_6  and  C_7 
REMARK    3  A    between atoms: C_8  and  C_9 
REMARK       I    between atoms: C_9  and  N_11 
REMARK    4  A    between atoms: N_11  and  C_12 
REMARK    5  A    between atoms: C_12  and  N_14 
REMARK    6  A    between atoms: N_14  and  C_15 
REMARK    7  A    between atoms: C_18  and  N_19 
REMARK       I    between atoms: N_19  and  C_20 
REMARK    8  A    between atoms: C_20  and  C_22 
REMARK    9  A    between atoms: C_32  and  O_33 
ROOT
ATOM      1  N   UNL d   1      28.102 -16.609  -1.092  0.00  0.00    -0.333 N 
ATOM      2  H   UNL d   1      28.751 -16.604  -0.316  0.00  0.00     0.168 HD
ENDROOT
BRANCH   1   3
ATOM      3  C   UNL d   1      28.438 -16.000  -2.338  0.00  0.00     0.179 C 
ATOM      4  S   UNL d   1      29.602 -16.659  -3.386  0.00  0.00    -0.040 SA
BRANCH   3   5
ATOM      5  N   UNL d   1      27.696 -14.838  -2.674  0.00  0.00    -0.300 N 
ATOM      6  C   UNL d   1      26.977 -14.677  -3.874  0.00  0.00     0.247 C 
ATOM      7  O   UNL d   1      27.010 -15.458  -4.833  0.00  0.00    -0.268 OA
ATOM      8  H   UNL d   1      27.639 -14.093  -1.991  0.00  0.00     0.171 HD
BRANCH   6   9
ATOM      9  C   UNL d   1      26.130 -13.463  -4.057  0.00  0.00     0.075 C 
ATOM     10  C   UNL d   1      26.691 -12.358  -4.618  0.00  0.00     0.017 C 
BRANCH  10  11
ATOM     11  C   UNL d   1      26.040 -11.042  -4.814  0.00  0.00    -0.033 A 
ATOM     12  C   UNL d   1      25.646 -10.561  -6.068  0.00  0.00     0.014 A 
ATOM     13  C   UNL d   1      25.145  -9.245  -6.210  0.00  0.00     0.040 A 
ATOM     14  C   UNL d   1      24.953  -8.388  -5.101  0.00  0.00     0.101 A 
ATOM     15  C   UNL d   1      25.290  -8.904  -3.838  0.00  0.00     0.102 A 
ATOM     16  C   UNL d   1      25.828 -10.200  -3.731  0.00  0.00     0.051 A 
BRANCH  14  17
ATOM     17  O   UNL d   1      24.223  -7.259  -5.403  0.00  0.00    -0.353 OA
ATOM     18  C   UNL d   1      22.970  -7.331  -6.085  0.00  0.00     0.210 C 
ENDBRANCH  14  17
BRANCH  15  19
ATOM     19  O   UNL d   1      25.155  -8.415  -2.564  0.00  0.00    -0.353 OA
ATOM     20  C   UNL d   1      26.296  -8.491  -1.767  0.00  0.00     0.210 C 
ENDBRANCH  15  19
ENDBRANCH  10  11
ENDBRANCH   6   9
ENDBRANCH   3   5
ENDBRANCH   1   3
BRANCH   1  21
ATOM     21  C   UNL d   1      26.764 -17.069  -0.784  0.00  0.00     0.034 C 
ATOM     22  C   UNL d   1      26.446 -18.243  -0.095  0.00  0.00     0.032 C 
ATOM     23  C   UNL d   1      25.076 -18.571   0.195  0.00  0.00     0.032 C 
ATOM     24  C   UNL d   1      24.004 -17.719  -0.167  0.00  0.00     0.041 C 
ATOM     25  C   UNL d   1      24.341 -16.625  -0.967  0.00  0.00    -0.033 C 
ATOM     26  C   UNL d   1      23.373 -15.713  -1.646  0.00  0.00     0.050 C 
ATOM     27  C   UNL d   1      25.686 -16.321  -1.240  0.00  0.00     0.038 C 
BRANCH  24  28
ATOM     28  N   UNL d   1      22.658 -18.034   0.230  0.00  0.00    -0.322 N 
ATOM     29  C   UNL d   1      21.735 -18.809  -0.489  0.00  0.00     0.256 C 
ATOM     30  O   UNL d   1      21.769 -19.167  -1.654  0.00  0.00    -0.267 OA
ATOM     31  H   UNL d   1      22.306 -17.563   1.054  0.00  0.00     0.169 HD
BRANCH  29  32
ATOM     32  C   UNL d   1      20.458 -19.163   0.141  0.00  0.00     0.032 A 
ATOM     33  C   UNL d   1      20.404 -19.355   1.536  0.00  0.00     0.017 A 
ATOM     34  C   UNL d   1      19.380 -20.129   2.084  0.00  0.00     0.001 A 
ATOM     35  C   UNL d   1      18.394 -20.653   1.247  0.00  0.00     0.000 A 
ATOM     36  C   UNL d   1      18.458 -20.456  -0.136  0.00  0.00     0.001 A 
ATOM     37  C   UNL d   1      19.498 -19.722  -0.694  0.00  0.00     0.017 A 
ENDBRANCH  29  32
ENDBRANCH  24  28
ENDBRANCH   1  21
TORSDOF 9
ENDMDL
MODEL 5
REMARK VINA RESULT:   -10.304      1.510      2.129
REMARK INTER + INTRA:         -14.493
REMARK INTER:                 -12.989
REMARK INTRA:                  -1.504
REMARK CONF_INDEPENDENT:        2.685
REMARK UNBOUND:                -1.504
REMARK  9 active torsions:
REMARK  status: ('A' for Active; 'I' for Inactive)
REMARK    1  A    between atoms: O_2  and  C_3 
REMARK    2  A    between atoms: C_6  and  C_7 
REMARK    3  A    between atoms: C_8  and  C_9 
REMARK       I    between atoms: C_9  and  N_11 
REMARK    4  A    between atoms: N_11  and  C_12 
REMARK    5  A    between atoms: C_12  and  N_14 
REMARK    6  A    between atoms: N_14  and  C_15 
REMARK    7  A    between atoms: C_18  and  N_19 
REMARK       I    between atoms: N_19  and  C_20 
REMARK    8  A    between atoms: C_20  and  C_22 
REMARK    9  A    between atoms: C_32  and  O_33 
ROOT
ATOM      1  N   UNL d   1      27.678 -15.230  -2.136  0.00  0.00    -0.333 N 
ATOM      2  H   UNL d   1      28.213 -15.735  -2.832  0.00  0.00     0.168 HD
ENDROOT
BRANCH   1   3
ATOM      3  C   UNL d   1      28.177 -14.027  -1.554  0.00  0.00     0.179 C 
ATOM      4  S   UNL d   1      28.315 -12.582  -2.436  0.00  0.00    -0.040 SA
BRANCH   3   5
ATOM      5  N   UNL d   1      28.495 -14.098  -0.172  0.00  0.00    -0.300 N 
ATOM      6  C   UNL d   1      27.538 -14.159   0.859  0.00  0.00     0.247 C 
ATOM      7  O   UNL d   1      26.318 -14.024   0.706  0.00  0.00    -0.268 OA
ATOM      8  H   UNL d   1      29.470 -14.155   0.090  0.00  0.00     0.171 HD
BRANCH   6   9
ATOM      9  C   UNL d   1      27.995 -14.362   2.264  0.00  0.00     0.075 C 
ATOM     10  C   UNL d   1      27.752 -13.382   3.174  0.00  0.00     0.017 C 
BRANCH  10  11
ATOM     11  C   UNL d   1      28.189 -13.363   4.589  0.00  0.00    -0.033 A 
ATOM     12  C   UNL d   1      28.619 -14.506   5.273  0.00  0.00     0.014 A 
ATOM     13  C   UNL d   1      28.904 -14.451   6.659  0.00  0.00     0.040 A 
ATOM     14  C   UNL d   1      28.841 -13.245   7.394  0.00  0.00     0.101 A 
ATOM     15  C   UNL d   1      28.473 -12.090   6.683  0.00  0.00     0.102 A 
ATOM     16  C   UNL d   1      28.151 -12.181   5.317  0.00  0.00     0.051 A 
BRANCH  14  17
ATOM     17  O   UNL d   1      29.398 -13.341   8.651  0.00  0.00    -0.353 OA
ATOM     18  C   UNL d   1      30.524 -14.179   8.915  0.00  0.00     0.210 C 
ENDBRANCH  14  17
BRANCH  15  19
ATOM     19  O   UNL d   1      28.399 -10.765   7.030  0.00  0.00    -0.353 OA
ATOM     20  C   UNL d   1      29.611 -10.079   7.043  0.00  0.00     0.210 C 
ENDBRANCH  15  19
ENDBRANCH  10  11
ENDBRANCH   6   9
ENDBRANCH   3   5
ENDBRANCH   1   3
BRANCH   1  21
ATOM     21  C   UNL d   1      26.508 -15.917  -1.628  0.00  0.00     0.034 C 
ATOM     22  C   UNL d   1      25.188 -15.659  -2.005  0.00  0.00     0.032 C 
ATOM     23  C   UNL d   1      24.109 -16.443  -1.466  0.00  0.00     0.032 C 
ATOM     24  C   UNL d   1      24.332 -17.517  -0.570  0.00  0.00     0.041 C 
ATOM     25  C   UNL d   1      25.643 -17.665  -0.113  0.00  0.00    -0.033 C 
ATOM     26  C   UNL d   1      26.084 -18.575   0.986  0.00  0.00     0.050 C 
ATOM     27  C   UNL d   1      26.684 -16.888  -0.651  0.00  0.00     0.038 C 
BRANCH  24  28
ATOM     28  N   UNL d   1      23.236 -18.340  -0.133  0.00  0.00    -0.322 N 
ATOM     29  C   UNL d   1      21.878 -18.150  -0.432  0.00  0.00     0.256 C 
ATOM     30  O   UNL d   1      21.319 -17.170  -0.894  0.00  0.00    -0.267 OA
ATOM     31  H   UNL d   1      23.452 -19.061   0.542  0.00  0.00     0.169 HD
BRANCH  29  32
ATOM     32  C   UNL d   1      20.910 -19.179  -0.036  0.00  0.00     0.032 A 
ATOM     33  C   UNL d   1      19.954 -19.626  -0.969  0.00  0.00     0.017 A 
ATOM     34  C   UNL d   1      18.771 -20.210  -0.515  0.00  0.00     0.001 A 
ATOM     35  C   UNL d   1      18.579 -20.394   0.855  0.00  0.00     0.000 A 
ATOM     36  C   UNL d   1      19.534 -19.946   1.773  0.00  0.00     0.001 A 
ATOM     37  C   UNL d   1      20.696 -19.324   1.330  0.00  0.00     0.017 A 
ENDBRANCH  29  32
ENDBRANCH  24  28
ENDBRANCH   1  21
TORSDOF 9
ENDMDL
MODEL 6
REMARK VINA RESULT:   -10.221      2.861      3.448
REMARK INTER + INTRA:         -14.513
REMARK INTER:                 -12.906
REMARK INTRA:                  -1.607
REMARK CONF_INDEPENDENT:        2.685
REMARK UNBOUND:                -1.607
REMARK  9 active torsions:
REMARK  status: ('A' for Active; 'I' for Inactive)
REMARK    1  A    between atoms: O_2  and  C_3 
REMARK    2  A    between atoms: C_6  and  C_7 
REMARK    3  A    between atoms: C_8  and  C_9 
REMARK       I    between atoms: C_9  and  N_11 
REMARK    4  A    between atoms: N_11  and  C_12 
REMARK    5  A    between atoms: C_12  and  N_14 
REMARK    6  A    between atoms: N_14  and  C_15 
REMARK    7  A    between atoms: C_18  and  N_19 
REMARK       I    between atoms: N_19  and  C_20 
REMARK    8  A    between atoms: C_20  and  C_22 
REMARK    9  A    between atoms: C_32  and  O_33 
ROOT
ATOM      1  N   UNL d   1      27.243 -16.340  -1.408  0.00  0.00    -0.333 N 
ATOM      2  H   UNL d   1      28.054 -16.704  -0.924  0.00  0.00     0.168 HD
ENDROOT
BRANCH   1   3
ATOM      3  C   UNL d   1      27.345 -15.202  -2.264  0.00  0.00     0.179 C 
ATOM      4  S   UNL d   1      27.448 -15.345  -3.953  0.00  0.00    -0.040 SA
BRANCH   3   5
ATOM      5  N   UNL d   1      27.297 -13.939  -1.617  0.00  0.00    -0.300 N 
ATOM      6  C   UNL d   1      27.741 -13.706  -0.301  0.00  0.00     0.247 C 
ATOM      7  O   UNL d   1      28.099 -14.583   0.495  0.00  0.00    -0.268 OA
ATOM      8  H   UNL d   1      26.965 -13.144  -2.147  0.00  0.00     0.171 HD
BRANCH   6   9
ATOM      9  C   UNL d   1      27.759 -12.310   0.224  0.00  0.00     0.075 C 
ATOM     10  C   UNL d   1      27.551 -12.113   1.553  0.00  0.00     0.017 C 
BRANCH  10  11
ATOM     11  C   UNL d   1      27.458 -10.808   2.248  0.00  0.00    -0.033 A 
ATOM     12  C   UNL d   1      28.194 -10.498   3.397  0.00  0.00     0.014 A 
ATOM     13  C   UNL d   1      27.971  -9.283   4.089  0.00  0.00     0.040 A 
ATOM     14  C   UNL d   1      27.061  -8.307   3.623  0.00  0.00     0.101 A 
ATOM     15  C   UNL d   1      26.375  -8.599   2.431  0.00  0.00     0.102 A 
ATOM     16  C   UNL d   1      26.583  -9.833   1.788  0.00  0.00     0.051 A 
BRANCH  14  17
ATOM     17  O   UNL d   1      27.171  -7.099   4.278  0.00  0.00    -0.353 OA
ATOM     18  C   UNL d   1      27.656  -7.011   5.619  0.00  0.00     0.210 C 
ENDBRANCH  14  17
BRANCH  15  19
ATOM     19  O   UNL d   1      25.512  -7.875   1.649  0.00  0.00    -0.353 OA
ATOM     20  C   UNL d   1      25.908  -6.570   1.367  0.00  0.00     0.210 C 
ENDBRANCH  15  19
ENDBRANCH  10  11
ENDBRANCH   6   9
ENDBRANCH   3   5
ENDBRANCH   1   3
BRANCH   1  21
ATOM     21  C   UNL d   1      25.970 -16.902  -1.005  0.00  0.00     0.034 C 
ATOM     22  C   UNL d   1      25.783 -18.167  -0.443  0.00  0.00     0.032 C 
ATOM     23  C   UNL d   1      24.472 -18.598  -0.036  0.00  0.00     0.032 C 
ATOM     24  C   UNL d   1      23.334 -17.763  -0.153  0.00  0.00     0.041 C 
ATOM     25  C   UNL d   1      23.530 -16.561  -0.836  0.00  0.00    -0.033 C 
ATOM     26  C   UNL d   1      22.453 -15.622  -1.270  0.00  0.00     0.050 C 
ATOM     27  C   UNL d   1      24.819 -16.158  -1.227  0.00  0.00     0.038 C 
BRANCH  24  28
ATOM     28  N   UNL d   1      22.060 -18.193   0.358  0.00  0.00    -0.322 N 
ATOM     29  C   UNL d   1      21.116 -18.986  -0.313  0.00  0.00     0.256 C 
ATOM     30  O   UNL d   1      21.049 -19.271  -1.497  0.00  0.00    -0.267 OA
ATOM     31  H   UNL d   1      21.769 -17.798   1.242  0.00  0.00     0.169 HD
BRANCH  29  32
ATOM     32  C   UNL d   1      19.938 -19.464   0.419  0.00  0.00     0.032 A 
ATOM     33  C   UNL d   1      20.029 -19.686   1.807  0.00  0.00     0.017 A 
ATOM     34  C   UNL d   1      19.131 -20.558   2.424  0.00  0.00     0.001 A 
ATOM     35  C   UNL d   1      18.122 -21.153   1.666  0.00  0.00     0.000 A 
ATOM     36  C   UNL d   1      18.042 -20.927   0.288  0.00  0.00     0.001 A 
ATOM     37  C   UNL d   1      18.959 -20.093  -0.341  0.00  0.00     0.017 A 
ENDBRANCH  29  32
ENDBRANCH  24  28
ENDBRANCH   1  21
TORSDOF 9
ENDMDL
MODEL 7
REMARK VINA RESULT:   -10.161      5.920      9.939
REMARK INTER + INTRA:         -14.503
REMARK INTER:                 -12.846
REMARK INTRA:                  -1.658
REMARK CONF_INDEPENDENT:        2.685
REMARK UNBOUND:                -1.658
REMARK  9 active torsions:
REMARK  status: ('A' for Active; 'I' for Inactive)
REMARK    1  A    between atoms: O_2  and  C_3 
REMARK    2  A    between atoms: C_6  and  C_7 
REMARK    3  A    between atoms: C_8  and  C_9 
REMARK       I    between atoms: C_9  and  N_11 
REMARK    4  A    between atoms: N_11  and  C_12 
REMARK    5  A    between atoms: C_12  and  N_14 
REMARK    6  A    between atoms: N_14  and  C_15 
REMARK    7  A    between atoms: C_18  and  N_19 
REMARK       I    between atoms: N_19  and  C_20 
REMARK    8  A    between atoms: C_20  and  C_22 
REMARK    9  A    between atoms: C_32  and  O_33 
ROOT
ATOM      1  N   UNL d   1      26.568 -15.153  -2.854  0.00  0.00    -0.333 N 
ATOM      2  H   UNL d   1      27.448 -14.993  -2.379  0.00  0.00     0.168 HD
ENDROOT
BRANCH   1   3
ATOM      3  C   UNL d   1      26.278 -14.520  -4.099  0.00  0.00     0.179 C 
ATOM      4  S   UNL d   1      24.962 -13.465  -4.295  0.00  0.00    -0.040 SA
BRANCH   3   5
ATOM      5  N   UNL d   1      27.195 -14.783  -5.151  0.00  0.00    -0.300 N 
ATOM      6  C   UNL d   1      28.534 -15.171  -4.956  0.00  0.00     0.247 C 
ATOM      7  O   UNL d   1      29.114 -15.202  -3.863  0.00  0.00    -0.268 OA
ATOM      8  H   UNL d   1      26.856 -14.734  -6.103  0.00  0.00     0.171 HD
BRANCH   6   9
ATOM      9  C   UNL d   1      29.363 -15.545  -6.138  0.00  0.00     0.075 C 
ATOM     10  C   UNL d   1      30.080 -16.699  -6.089  0.00  0.00     0.017 C 
BRANCH  10  11
ATOM     11  C   UNL d   1      31.014 -17.202  -7.124  0.00  0.00    -0.033 A 
ATOM     12  C   UNL d   1      32.081 -16.447  -7.624  0.00  0.00     0.014 A 
ATOM     13  C   UNL d   1      32.863 -16.932  -8.701  0.00  0.00     0.040 A 
ATOM     14  C   UNL d   1      32.655 -18.210  -9.268  0.00  0.00     0.101 A 
ATOM     15  C   UNL d   1      31.624 -18.988  -8.713  0.00  0.00     0.102 A 
ATOM     16  C   UNL d   1      30.833 -18.464  -7.674  0.00  0.00     0.051 A 
BRANCH  14  17
ATOM     17  O   UNL d   1      33.667 -18.602 -10.117  0.00  0.00    -0.353 OA
ATOM     18  C   UNL d   1      34.563 -19.664  -9.783  0.00  0.00     0.210 C 
ENDBRANCH  14  17
BRANCH  15  19
ATOM     19  O   UNL d   1      31.203 -20.275  -8.933  0.00  0.00    -0.353 OA
ATOM     20  C   UNL d   1      31.535 -20.810 -10.175  0.00  0.00     0.210 C 
ENDBRANCH  15  19
ENDBRANCH  10  11
ENDBRANCH   6   9
ENDBRANCH   3   5
ENDBRANCH   1   3
BRANCH   1  21
ATOM     21  C   UNL d   1      25.568 -15.871  -2.091  0.00  0.00     0.034 C 
ATOM     22  C   UNL d   1      24.211 -15.543  -2.019  0.00  0.00     0.032 C 
ATOM     23  C   UNL d   1      23.301 -16.363  -1.265  0.00  0.00     0.032 C 
ATOM     24  C   UNL d   1      23.723 -17.540  -0.599  0.00  0.00     0.041 C 
ATOM     25  C   UNL d   1      25.100 -17.767  -0.579  0.00  0.00    -0.033 C 
ATOM     26  C   UNL d   1      25.798 -18.810   0.230  0.00  0.00     0.050 C 
ATOM     27  C   UNL d   1      25.974 -16.954  -1.322  0.00  0.00     0.038 C 
BRANCH  24  28
ATOM     28  N   UNL d   1      22.763 -18.386   0.060  0.00  0.00    -0.322 N 
ATOM     29  C   UNL d   1      21.408 -18.527  -0.273  0.00  0.00     0.256 C 
ATOM     30  O   UNL d   1      20.711 -17.829  -0.990  0.00  0.00    -0.267 OA
ATOM     31  H   UNL d   1      23.068 -18.840   0.910  0.00  0.00     0.169 HD
BRANCH  29  32
ATOM     32  C   UNL d   1      20.611 -19.557   0.404  0.00  0.00     0.032 A 
ATOM     33  C   UNL d   1      19.650 -20.282  -0.328  0.00  0.00     0.017 A 
ATOM     34  C   UNL d   1      18.590 -20.891   0.344  0.00  0.00     0.001 A 
ATOM     35  C   UNL d   1      18.528 -20.820   1.736  0.00  0.00     0.000 A 
ATOM     36  C   UNL d   1      19.487 -20.097   2.453  0.00  0.00     0.001 A 
ATOM     37  C   UNL d   1      20.523 -19.452   1.787  0.00  0.00     0.017 A 
ENDBRANCH  29  32
ENDBRANCH  24  28
ENDBRANCH   1  21
TORSDOF 9
ENDMDL
MODEL 8
REMARK VINA RESULT:   -10.057      5.758      9.608
REMARK INTER + INTRA:         -14.473
REMARK INTER:                 -12.742
REMARK INTRA:                  -1.731
REMARK CONF_INDEPENDENT:        2.685
REMARK UNBOUND:                -1.731
REMARK  9 active torsions:
REMARK  status: ('A' for Active; 'I' for Inactive)
REMARK    1  A    between atoms: O_2  and  C_3 
REMARK    2  A    between atoms: C_6  and  C_7 
REMARK    3  A    between atoms: C_8  and  C_9 
REMARK       I    between atoms: C_9  and  N_11 
REMARK    4  A    between atoms: N_11  and  C_12 
REMARK    5  A    between atoms: C_12  and  N_14 
REMARK    6  A    between atoms: N_14  and  C_15 
REMARK    7  A    between atoms: C_18  and  N_19 
REMARK       I    between atoms: N_19  and  C_20 
REMARK    8  A    between atoms: C_20  and  C_22 
REMARK    9  A    between atoms: C_32  and  O_33 
ROOT
ATOM      1  N   UNL d   1      26.701 -15.115  -2.684  0.00  0.00    -0.333 N 
ATOM      2  H   UNL d   1      27.559 -14.942  -2.174  0.00  0.00     0.168 HD
ENDROOT
BRANCH   1   3
ATOM      3  C   UNL d   1      26.460 -14.502  -3.949  0.00  0.00     0.179 C 
ATOM      4  S   UNL d   1      25.119 -13.497  -4.230  0.00  0.00    -0.040 SA
BRANCH   3   5
ATOM      5  N   UNL d   1      27.444 -14.738  -4.945  0.00  0.00    -0.300 N 
ATOM      6  C   UNL d   1      28.751 -15.186  -4.675  0.00  0.00     0.247 C 
ATOM      7  O   UNL d   1      29.245 -15.300  -3.546  0.00  0.00    -0.268 OA
ATOM      8  H   UNL d   1      27.180 -14.623  -5.914  0.00  0.00     0.171 HD
BRANCH   6   9
ATOM      9  C   UNL d   1      29.654 -15.523  -5.814  0.00  0.00     0.075 C 
ATOM     10  C   UNL d   1      30.008 -16.822  -6.000  0.00  0.00     0.017 C 
BRANCH  10  11
ATOM     11  C   UNL d   1      30.946 -17.344  -7.020  0.00  0.00    -0.033 A 
ATOM     12  C   UNL d   1      30.916 -18.663  -7.486  0.00  0.00     0.014 A 
ATOM     13  C   UNL d   1      31.917 -19.139  -8.368  0.00  0.00     0.040 A 
ATOM     14  C   UNL d   1      32.939 -18.300  -8.871  0.00  0.00     0.101 A 
ATOM     15  C   UNL d   1      32.921 -16.959  -8.449  0.00  0.00     0.102 A 
ATOM     16  C   UNL d   1      31.942 -16.524  -7.537  0.00  0.00     0.051 A 
BRANCH  14  17
ATOM     17  O   UNL d   1      33.653 -18.869  -9.903  0.00  0.00    -0.353 OA
ATOM     18  C   UNL d   1      35.033 -18.570 -10.119  0.00  0.00     0.210 C 
ENDBRANCH  14  17
BRANCH  15  19
ATOM     19  O   UNL d   1      33.672 -15.864  -8.790  0.00  0.00    -0.353 OA
ATOM     20  C   UNL d   1      32.960 -14.680  -8.969  0.00  0.00     0.210 C 
ENDBRANCH  15  19
ENDBRANCH  10  11
ENDBRANCH   6   9
ENDBRANCH   3   5
ENDBRANCH   1   3
BRANCH   1  21
ATOM     21  C   UNL d   1      25.674 -15.829  -1.953  0.00  0.00     0.034 C 
ATOM     22  C   UNL d   1      24.302 -15.571  -2.020  0.00  0.00     0.032 C 
ATOM     23  C   UNL d   1      23.371 -16.382  -1.283  0.00  0.00     0.032 C 
ATOM     24  C   UNL d   1      23.789 -17.483  -0.495  0.00  0.00     0.041 C 
ATOM     25  C   UNL d   1      25.168 -17.633  -0.344  0.00  0.00    -0.033 C 
ATOM     26  C   UNL d   1      25.843 -18.575   0.598  0.00  0.00     0.050 C 
ATOM     27  C   UNL d   1      26.063 -16.829  -1.072  0.00  0.00     0.038 C 
BRANCH  24  28
ATOM     28  N   UNL d   1      22.818 -18.330   0.145  0.00  0.00    -0.322 N 
ATOM     29  C   UNL d   1      21.478 -18.499  -0.235  0.00  0.00     0.256 C 
ATOM     30  O   UNL d   1      20.798 -17.826  -0.992  0.00  0.00    -0.267 OA
ATOM     31  H   UNL d   1      23.097 -18.763   1.015  0.00  0.00     0.169 HD
BRANCH  29  32
ATOM     32  C   UNL d   1      20.672 -19.526   0.433  0.00  0.00     0.032 A 
ATOM     33  C   UNL d   1      19.701 -20.233  -0.304  0.00  0.00     0.017 A 
ATOM     34  C   UNL d   1      18.635 -20.837   0.364  0.00  0.00     0.001 A 
ATOM     35  C   UNL d   1      18.578 -20.780   1.757  0.00  0.00     0.000 A 
ATOM     36  C   UNL d   1      19.546 -20.075   2.479  0.00  0.00     0.001 A 
ATOM     37  C   UNL d   1      20.588 -19.434   1.817  0.00  0.00     0.017 A 
ENDBRANCH  29  32
ENDBRANCH  24  28
ENDBRANCH   1  21
TORSDOF 9
ENDMDL
MODEL 9
REMARK VINA RESULT:    -9.703      2.842      3.690
REMARK INTER + INTRA:         -13.924
REMARK INTER:                 -12.388
REMARK INTRA:                  -1.536
REMARK CONF_INDEPENDENT:        2.685
REMARK UNBOUND:                -1.536
REMARK  9 active torsions:
REMARK  status: ('A' for Active; 'I' for Inactive)
REMARK    1  A    between atoms: O_2  and  C_3 
REMARK    2  A    between atoms: C_6  and  C_7 
REMARK    3  A    between atoms: C_8  and  C_9 
REMARK       I    between atoms: C_9  and  N_11 
REMARK    4  A    between atoms: N_11  and  C_12 
REMARK    5  A    between atoms: C_12  and  N_14 
REMARK    6  A    between atoms: N_14  and  C_15 
REMARK    7  A    between atoms: C_18  and  N_19 
REMARK       I    between atoms: N_19  and  C_20 
REMARK    8  A    between atoms: C_20  and  C_22 
REMARK    9  A    between atoms: C_32  and  O_33 
ROOT
ATOM      1  N   UNL d   1      27.264 -15.799  -2.628  0.00  0.00    -0.333 N 
ATOM      2  H   UNL d   1      27.999 -16.492  -2.564  0.00  0.00     0.168 HD
ENDROOT
BRANCH   1   3
ATOM      3  C   UNL d   1      27.525 -14.493  -3.140  0.00  0.00     0.179 C 
ATOM      4  S   UNL d   1      27.706 -14.189  -4.801  0.00  0.00    -0.040 SA
BRANCH   3   5
ATOM      5  N   UNL d   1      27.565 -13.451  -2.176  0.00  0.00    -0.300 N 
ATOM      6  C   UNL d   1      28.265 -13.528  -0.956  0.00  0.00     0.247 C 
ATOM      7  O   UNL d   1      28.813 -14.545  -0.514  0.00  0.00    -0.268 OA
ATOM      8  H   UNL d   1      27.101 -12.580  -2.396  0.00  0.00     0.171 HD
BRANCH   6   9
ATOM      9  C   UNL d   1      28.339 -12.320  -0.084  0.00  0.00     0.075 C 
ATOM     10  C   UNL d   1      27.539 -12.262   1.014  0.00  0.00     0.017 C 
BRANCH  10  11
ATOM     11  C   UNL d   1      27.414 -11.125   1.955  0.00  0.00    -0.033 A 
ATOM     12  C   UNL d   1      28.014 -11.108   3.219  0.00  0.00     0.014 A 
ATOM     13  C   UNL d   1      27.756 -10.049   4.124  0.00  0.00     0.040 A 
ATOM     14  C   UNL d   1      26.952  -8.939   3.776  0.00  0.00     0.101 A 
ATOM     15  C   UNL d   1      26.408  -8.934   2.480  0.00  0.00     0.102 A 
ATOM     16  C   UNL d   1      26.644 -10.020   1.617  0.00  0.00     0.051 A 
BRANCH  14  17
ATOM     17  O   UNL d   1      27.030  -7.903   4.681  0.00  0.00    -0.353 OA
ATOM     18  C   UNL d   1      27.978  -6.845   4.536  0.00  0.00     0.210 C 
ENDBRANCH  14  17
BRANCH  15  19
ATOM     19  O   UNL d   1      25.679  -8.009   1.777  0.00  0.00    -0.353 OA
ATOM     20  C   UNL d   1      25.647  -8.192   0.397  0.00  0.00     0.210 C 
ENDBRANCH  15  19
ENDBRANCH  10  11
ENDBRANCH   6   9
ENDBRANCH   3   5
ENDBRANCH   1   3
BRANCH   1  21
ATOM     21  C   UNL d   1      26.019 -16.148  -1.974  0.00  0.00     0.034 C 
ATOM     22  C   UNL d   1      24.779 -15.553  -2.219  0.00  0.00     0.032 C 
ATOM     23  C   UNL d   1      23.599 -16.018  -1.541  0.00  0.00     0.032 C 
ATOM     24  C   UNL d   1      23.632 -17.105  -0.633  0.00  0.00     0.041 C 
ATOM     25  C   UNL d   1      24.901 -17.590  -0.310  0.00  0.00    -0.033 C 
ATOM     26  C   UNL d   1      25.207 -18.575   0.770  0.00  0.00     0.050 C 
ATOM     27  C   UNL d   1      26.042 -17.121  -0.984  0.00  0.00     0.038 C 
BRANCH  24  28
ATOM     28  N   UNL d   1      22.414 -17.605  -0.052  0.00  0.00    -0.322 N 
ATOM     29  C   UNL d   1      21.596 -18.619  -0.572  0.00  0.00     0.256 C 
ATOM     30  O   UNL d   1      21.590 -19.111  -1.688  0.00  0.00    -0.267 OA
ATOM     31  H   UNL d   1      22.056 -17.105   0.751  0.00  0.00     0.169 HD
BRANCH  29  32
ATOM     32  C   UNL d   1      20.475 -19.115   0.234  0.00  0.00     0.032 A 
ATOM     33  C   UNL d   1      20.656 -19.325   1.616  0.00  0.00     0.017 A 
ATOM     34  C   UNL d   1      19.816 -20.210   2.292  0.00  0.00     0.001 A 
ATOM     35  C   UNL d   1      18.773 -20.829   1.602  0.00  0.00     0.000 A 
ATOM     36  C   UNL d   1      18.603 -20.614   0.230  0.00  0.00     0.001 A 
ATOM     37  C   UNL d   1      19.463 -19.767  -0.460  0.00  0.00     0.017 A 
ENDBRANCH  29  32
ENDBRANCH  24  28
ENDBRANCH   1  21
TORSDOF 9
ENDMDL
