MODEL 1
REMARK VINA RESULT:   -32.065      0.000      0.000
REMARK INTER + INTRA:         -37.054
REMARK INTER:                 -34.750
REMARK INTRA:                  -2.304
REMARK CONF_INDEPENDENT:        2.685
REMARK UNBOUND:                -2.304
REMARK  9 active torsions:
REMARK  status: ('A' for Active; 'I' for Inactive)
REMARK    1  A    between atoms: C_2  and  C_3 
REMARK       I    between atoms: C_2  and  N_30 
REMARK    2  A    between atoms: C_3  and  S_4 
REMARK    3  A    between atoms: S_4  and  C_5 
REMARK    4  A    between atoms: N_15  and  N_16 
REMARK       I    between atoms: N_16  and  C_17 
REMARK    5  A    between atoms: C_17  and  C_19 
REMARK    6  A    between atoms: C_19  and  C_20 
REMARK    7  A    between atoms: C_20  and  C_21 
REMARK    8  A    between atoms: N_30  and  C_31 
REMARK    9  A    between atoms: C_32  and  C_31 
ROOT
ATOM      1  C   UNL d   1      27.736 -15.848  -2.251  0.00  0.00     0.192 C 
ATOM      2  N   UNL d   1      28.891 -15.603  -2.799  0.00  0.00    -0.222 NA
ATOM      3  C   UNL d   1      29.001 -15.228  -4.135  0.00  0.00     0.075 C 
ATOM      4  C   UNL d   1      30.270 -14.904  -4.653  0.00  0.00     0.032 C 
ATOM      5  C   UNL d   1      30.409 -14.397  -5.948  0.00  0.00     0.002 C 
ATOM      6  C   UNL d   1      29.284 -14.292  -6.759  0.00  0.00     0.001 C 
ATOM      7  C   UNL d   1      28.053 -14.803  -6.313  0.00  0.00     0.019 C 
ATOM      8  C   UNL d   1      27.892 -15.186  -4.966  0.00  0.00     0.063 C 
ATOM      9  C   UNL d   1      26.561 -15.500  -4.343  0.00  0.00     0.281 C 
ATOM     10  O   UNL d   1      25.565 -15.552  -5.068  0.00  0.00    -0.265 OA
ATOM     11  N   UNL d   1      26.518 -15.735  -2.936  0.00  0.00    -0.192 N 
ENDROOT
BRANCH  11  12
ATOM     12  N   UNL d   1      25.106 -16.171  -2.374  0.00  0.00    -0.258 N 
ATOM     13  C   UNL d   1      24.692 -16.061  -1.010  0.00  0.00     0.236 C 
ATOM     14  O   UNL d   1      25.379 -15.416  -0.184  0.00  0.00    -0.272 OA
ATOM     15  H   UNL d   1      24.416 -15.994  -3.113  0.00  0.00     0.190 HD
BRANCH  13  16
ATOM     16  C   UNL d   1      23.295 -16.838  -0.455  0.00  0.00     0.105 C 
BRANCH  16  17
ATOM     17  C   UNL d   1      22.907 -18.408  -1.077  0.00  0.00     0.023 C 
BRANCH  17  18
ATOM     18  C   UNL d   1      21.462 -19.558  -1.011  0.00  0.00     0.006 C 
ATOM     19  C   UNL d   1      20.904 -18.575  -0.230  0.00  0.00     0.089 C 
ATOM     20  N   UNL d   1      19.730 -18.735  -0.895  0.00  0.00    -0.288 NA
ATOM     21  C   UNL d   1      19.319 -19.572   0.071  0.00  0.00     0.001 C 
ATOM     22  H   UNL d   1      19.692 -19.072  -1.859  0.00  0.00     0.128 HD
ATOM     23  C   UNL d   1      18.842 -19.180   1.380  0.00  0.00     0.020 C 
ATOM     24  C   UNL d   1      20.184 -20.705  -0.320  0.00  0.00     0.042 C 
ATOM     25  C   UNL d   1      18.437 -20.073   2.320  0.00  0.00     0.001 C 
ATOM     26  C   UNL d   1      18.407 -21.325   1.822  0.00  0.00    -0.003 C 
ATOM     27  C   UNL d   1      19.217 -21.573   0.597  0.00  0.00    -0.009 C 
ENDBRANCH  17  18
ENDBRANCH  16  17
ENDBRANCH  13  16
ENDBRANCH  11  12
BRANCH   1  28
ATOM     28  S   UNL d   1      27.919 -16.252  -0.570  0.00  0.00    -0.081 SA
BRANCH  28  29
ATOM     29  C   UNL d   1      28.966 -15.003   0.190  0.00  0.00     0.185 C 
BRANCH  29  30
ATOM     30  C   UNL d   1      28.114 -13.934   0.889  0.00  0.00     0.227 C 
ATOM     31  O   UNL d   1      27.167 -13.333   0.382  0.00  0.00    -0.273 OA
ATOM     32  N   UNL d   1      28.403 -13.657   2.209  0.00  0.00    -0.358 N 
ATOM     33  H   UNL d   1      27.698 -13.038   2.607  0.00  0.00     0.162 HD
BRANCH  32  34
ATOM     34  C   UNL d   1      29.222 -14.472   3.109  0.00  0.00     0.154 C 
BRANCH  34  35
ATOM     35  C   UNL d   1      28.647 -14.654   4.527  0.00  0.00     0.139 C 
ATOM     36  C   UNL d   1      29.581 -14.323   5.673  0.00  0.00     0.035 C 
ATOM     37  C   UNL d   1      29.302 -12.863   5.960  0.00  0.00     0.029 C 
ATOM     38  C   UNL d   1      27.834 -12.753   5.652  0.00  0.00     0.168 C 
ATOM     39  O   UNL d   1      27.530 -13.755   4.669  0.00  0.00    -0.384 OA
ENDBRANCH  34  35
ENDBRANCH  32  34
ENDBRANCH  29  30
ENDBRANCH  28  29
ENDBRANCH   1  28
TORSDOF 9
ENDMDL
MODEL 2
REMARK VINA RESULT:   -31.695      1.049      1.283
REMARK INTER + INTRA:         -37.284
REMARK INTER:                 -34.379
REMARK INTRA:                  -2.904
REMARK CONF_INDEPENDENT:        2.685
REMARK UNBOUND:                -2.904
REMARK  9 active torsions:
REMARK  status: ('A' for Active; 'I' for Inactive)
REMARK    1  A    between atoms: C_2  and  C_3 
REMARK       I    between atoms: C_2  and  N_30 
REMARK    2  A    between atoms: C_3  and  S_4 
REMARK    3  A    between atoms: S_4  and  C_5 
REMARK    4  A    between atoms: N_15  and  N_16 
REMARK       I    between atoms: N_16  and  C_17 
REMARK    5  A    between atoms: C_17  and  C_19 
REMARK    6  A    between atoms: C_19  and  C_20 
REMARK    7  A    between atoms: C_20  and  C_21 
REMARK    8  A    between atoms: N_30  and  C_31 
REMARK    9  A    between atoms: C_32  and  C_31 
ROOT
ATOM      1  C   UNL d   1      27.796 -16.257  -2.517  0.00  0.00     0.192 C 
ATOM      2  N   UNL d   1      28.934 -16.023  -3.105  0.00  0.00    -0.222 NA
ATOM      3  C   UNL d   1      29.000 -15.372  -4.334  0.00  0.00     0.075 C 
ATOM      4  C   UNL d   1      30.263 -15.081  -4.886  0.00  0.00     0.032 C 
ATOM      5  C   UNL d   1      30.377 -14.314  -6.049  0.00  0.00     0.002 C 
ATOM      6  C   UNL d   1      29.223 -13.907  -6.709  0.00  0.00     0.001 C 
ATOM      7  C   UNL d   1      27.971 -14.367  -6.271  0.00  0.00     0.019 C 
ATOM      8  C   UNL d   1      27.852 -15.023  -5.029  0.00  0.00     0.063 C 
ATOM      9  C   UNL d   1      26.537 -15.322  -4.366  0.00  0.00     0.281 C 
ATOM     10  O   UNL d   1      25.496 -15.101  -4.989  0.00  0.00    -0.265 OA
ATOM     11  N   UNL d   1      26.559 -15.861  -3.045  0.00  0.00    -0.192 N 
ENDROOT
BRANCH  11  12
ATOM     12  N   UNL d   1      25.144 -16.255  -2.460  0.00  0.00    -0.258 N 
ATOM     13  C   UNL d   1      24.704 -16.001  -1.124  0.00  0.00     0.236 C 
ATOM     14  O   UNL d   1      25.367 -15.256  -0.364  0.00  0.00    -0.272 OA
ATOM     15  H   UNL d   1      24.464 -16.173  -3.224  0.00  0.00     0.190 HD
BRANCH  13  16
ATOM     16  C   UNL d   1      23.309 -16.734  -0.508  0.00  0.00     0.105 C 
BRANCH  16  17
ATOM     17  C   UNL d   1      23.052 -18.423  -0.800  0.00  0.00     0.023 C 
BRANCH  17  18
ATOM     18  C   UNL d   1      21.607 -19.573  -0.839  0.00  0.00     0.006 C 
ATOM     19  C   UNL d   1      20.982 -18.575  -0.132  0.00  0.00     0.089 C 
ATOM     20  N   UNL d   1      19.872 -18.751  -0.895  0.00  0.00    -0.288 NA
ATOM     21  C   UNL d   1      19.377 -19.568   0.048  0.00  0.00     0.001 C 
ATOM     22  H   UNL d   1      19.919 -19.108  -1.851  0.00  0.00     0.128 HD
ATOM     23  C   UNL d   1      18.785 -19.149   1.301  0.00  0.00     0.020 C 
ATOM     24  C   UNL d   1      20.272 -20.708  -0.241  0.00  0.00     0.042 C 
ATOM     25  C   UNL d   1      18.298 -20.024   2.220  0.00  0.00     0.001 C 
ATOM     26  C   UNL d   1      18.311 -21.286   1.747  0.00  0.00    -0.003 C 
ATOM     27  C   UNL d   1      19.227 -21.558   0.605  0.00  0.00    -0.009 C 
ENDBRANCH  17  18
ENDBRANCH  16  17
ENDBRANCH  13  16
ENDBRANCH  11  12
BRANCH   1  28
ATOM     28  S   UNL d   1      28.039 -17.047  -0.987  0.00  0.00    -0.081 SA
BRANCH  28  29
ATOM     29  C   UNL d   1      29.487 -16.316  -0.209  0.00  0.00     0.185 C 
BRANCH  29  30
ATOM     30  C   UNL d   1      29.426 -14.784  -0.284  0.00  0.00     0.227 C 
ATOM     31  O   UNL d   1      29.822 -14.099  -1.227  0.00  0.00    -0.273 OA
ATOM     32  N   UNL d   1      28.836 -14.121   0.772  0.00  0.00    -0.358 N 
ATOM     33  H   UNL d   1      28.731 -13.130   0.559  0.00  0.00     0.162 HD
BRANCH  32  34
ATOM     34  C   UNL d   1      27.993 -14.717   1.811  0.00  0.00     0.154 C 
BRANCH  34  35
ATOM     35  C   UNL d   1      27.099 -13.721   2.574  0.00  0.00     0.139 C 
ATOM     36  C   UNL d   1      27.273 -13.686   4.079  0.00  0.00     0.035 C 
ATOM     37  C   UNL d   1      28.319 -12.613   4.299  0.00  0.00     0.029 C 
ATOM     38  C   UNL d   1      28.019 -11.643   3.190  0.00  0.00     0.168 C 
ATOM     39  O   UNL d   1      27.427 -12.394   2.118  0.00  0.00    -0.384 OA
ENDBRANCH  34  35
ENDBRANCH  32  34
ENDBRANCH  29  30
ENDBRANCH  28  29
ENDBRANCH   1  28
TORSDOF 9
ENDMDL
MODEL 3
REMARK VINA RESULT:   -31.297      1.802      1.849
REMARK INTER + INTRA:         -36.796
REMARK INTER:                 -33.982
REMARK INTRA:                  -2.814
REMARK CONF_INDEPENDENT:        2.685
REMARK UNBOUND:                -2.814
REMARK  9 active torsions:
REMARK  status: ('A' for Active; 'I' for Inactive)
REMARK    1  A    between atoms: C_2  and  C_3 
REMARK       I    between atoms: C_2  and  N_30 
REMARK    2  A    between atoms: C_3  and  S_4 
REMARK    3  A    between atoms: S_4  and  C_5 
REMARK    4  A    between atoms: N_15  and  N_16 
REMARK       I    between atoms: N_16  and  C_17 
REMARK    5  A    between atoms: C_17  and  C_19 
REMARK    6  A    between atoms: C_19  and  C_20 
REMARK    7  A    between atoms: C_20  and  C_21 
REMARK    8  A    between atoms: N_30  and  C_31 
REMARK    9  A    between atoms: C_32  and  C_31 
ROOT
ATOM      1  C   UNL d   1      27.493 -14.240  -2.256  0.00  0.00     0.192 C 
ATOM      2  N   UNL d   1      28.246 -13.316  -2.780  0.00  0.00    -0.222 NA
ATOM      3  C   UNL d   1      27.772 -12.465  -3.775  0.00  0.00     0.075 C 
ATOM      4  C   UNL d   1      28.609 -11.438  -4.252  0.00  0.00     0.032 C 
ATOM      5  C   UNL d   1      28.130 -10.482  -5.151  0.00  0.00     0.002 C 
ATOM      6  C   UNL d   1      26.833 -10.601  -5.641  0.00  0.00     0.001 C 
ATOM      7  C   UNL d   1      26.070 -11.736  -5.322  0.00  0.00     0.019 C 
ATOM      8  C   UNL d   1      26.504 -12.621  -4.314  0.00  0.00     0.063 C 
ATOM      9  C   UNL d   1      25.645 -13.709  -3.732  0.00  0.00     0.281 C 
ATOM     10  O   UNL d   1      24.544 -13.929  -4.242  0.00  0.00    -0.265 OA
ATOM     11  N   UNL d   1      26.155 -14.442  -2.620  0.00  0.00    -0.192 N 
ENDROOT
BRANCH  11  12
ATOM     12  N   UNL d   1      25.244 -15.642  -2.137  0.00  0.00    -0.258 N 
ATOM     13  C   UNL d   1      25.170 -16.133  -0.797  0.00  0.00     0.236 C 
ATOM     14  O   UNL d   1      25.698 -15.498   0.146  0.00  0.00    -0.272 OA
ATOM     15  H   UNL d   1      24.387 -15.620  -2.701  0.00  0.00     0.190 HD
BRANCH  13  16
ATOM     16  C   UNL d   1      24.415 -17.606  -0.446  0.00  0.00     0.105 C 
BRANCH  16  17
ATOM     17  C   UNL d   1      23.058 -18.100  -1.402  0.00  0.00     0.023 C 
BRANCH  17  18
ATOM     18  C   UNL d   1      21.681 -19.323  -1.249  0.00  0.00     0.006 C 
ATOM     19  C   UNL d   1      21.070 -18.321  -0.533  0.00  0.00     0.089 C 
ATOM     20  N   UNL d   1      19.905 -18.593  -1.178  0.00  0.00    -0.288 NA
ATOM     21  C   UNL d   1      19.545 -19.383  -0.154  0.00  0.00     0.001 C 
ATOM     22  H   UNL d   1      19.884 -18.997  -2.116  0.00  0.00     0.128 HD
ATOM     23  C   UNL d   1      19.050 -18.929   1.128  0.00  0.00     0.020 C 
ATOM     24  C   UNL d   1      20.471 -20.490  -0.472  0.00  0.00     0.042 C 
ATOM     25  C   UNL d   1      18.699 -19.778   2.130  0.00  0.00     0.001 C 
ATOM     26  C   UNL d   1      18.738 -21.061   1.719  0.00  0.00    -0.003 C 
ATOM     27  C   UNL d   1      19.558 -21.346   0.509  0.00  0.00    -0.009 C 
ENDBRANCH  17  18
ENDBRANCH  16  17
ENDBRANCH  13  16
ENDBRANCH  11  12
BRANCH   1  28
ATOM     28  S   UNL d   1      28.350 -15.112  -1.019  0.00  0.00    -0.081 SA
BRANCH  28  29
ATOM     29  C   UNL d   1      29.224 -13.915  -0.001  0.00  0.00     0.185 C 
BRANCH  29  30
ATOM     30  C   UNL d   1      28.233 -12.998   0.729  0.00  0.00     0.227 C 
ATOM     31  O   UNL d   1      27.561 -12.111   0.203  0.00  0.00    -0.273 OA
ATOM     32  N   UNL d   1      28.043 -13.217   2.078  0.00  0.00    -0.358 N 
ATOM     33  H   UNL d   1      27.274 -12.648   2.428  0.00  0.00     0.162 HD
BRANCH  32  34
ATOM     34  C   UNL d   1      28.444 -14.408   2.830  0.00  0.00     0.154 C 
BRANCH  34  35
ATOM     35  C   UNL d   1      27.713 -14.609   4.171  0.00  0.00     0.139 C 
ATOM     36  C   UNL d   1      28.587 -14.930   5.366  0.00  0.00     0.035 C 
ATOM     37  C   UNL d   1      28.900 -13.574   5.963  0.00  0.00     0.029 C 
ATOM     38  C   UNL d   1      27.640 -12.804   5.680  0.00  0.00     0.168 C 
ATOM     39  O   UNL d   1      27.050 -13.373   4.501  0.00  0.00    -0.384 OA
ENDBRANCH  34  35
ENDBRANCH  32  34
ENDBRANCH  29  30
ENDBRANCH  28  29
ENDBRANCH   1  28
TORSDOF 9
ENDMDL
MODEL 4
REMARK VINA RESULT:   -31.247      3.156      5.225
REMARK INTER + INTRA:         -36.633
REMARK INTER:                 -33.932
REMARK INTRA:                  -2.701
REMARK CONF_INDEPENDENT:        2.685
REMARK UNBOUND:                -2.701
REMARK  9 active torsions:
REMARK  status: ('A' for Active; 'I' for Inactive)
REMARK    1  A    between atoms: C_2  and  C_3 
REMARK       I    between atoms: C_2  and  N_30 
REMARK    2  A    between atoms: C_3  and  S_4 
REMARK    3  A    between atoms: S_4  and  C_5 
REMARK    4  A    between atoms: N_15  and  N_16 
REMARK       I    between atoms: N_16  and  C_17 
REMARK    5  A    between atoms: C_17  and  C_19 
REMARK    6  A    between atoms: C_19  and  C_20 
REMARK    7  A    between atoms: C_20  and  C_21 
REMARK    8  A    between atoms: N_30  and  C_31 
REMARK    9  A    between atoms: C_32  and  C_31 
ROOT
ATOM      1  C   UNL d   1      27.768 -15.905  -2.526  0.00  0.00     0.192 C 
ATOM      2  N   UNL d   1      28.745 -15.430  -3.245  0.00  0.00    -0.222 NA
ATOM      3  C   UNL d   1      28.517 -14.533  -4.285  0.00  0.00     0.075 C 
ATOM      4  C   UNL d   1      29.618 -13.997  -4.979  0.00  0.00     0.032 C 
ATOM      5  C   UNL d   1      29.443 -12.996  -5.939  0.00  0.00     0.002 C 
ATOM      6  C   UNL d   1      28.155 -12.588  -6.266  0.00  0.00     0.001 C 
ATOM      7  C   UNL d   1      27.051 -13.263  -5.720  0.00  0.00     0.019 C 
ATOM      8  C   UNL d   1      27.231 -14.174  -4.659  0.00  0.00     0.063 C 
ATOM      9  C   UNL d   1      26.100 -14.746  -3.850  0.00  0.00     0.281 C 
ATOM     10  O   UNL d   1      24.942 -14.514  -4.205  0.00  0.00    -0.265 OA
ATOM     11  N   UNL d   1      26.427 -15.544  -2.714  0.00  0.00    -0.192 N 
ENDROOT
BRANCH  11  12
ATOM     12  N   UNL d   1      25.189 -16.204  -1.983  0.00  0.00    -0.258 N 
ATOM     13  C   UNL d   1      25.090 -16.436  -0.576  0.00  0.00     0.236 C 
ATOM     14  O   UNL d   1      25.929 -15.942   0.213  0.00  0.00    -0.272 OA
ATOM     15  H   UNL d   1      24.346 -15.919  -2.494  0.00  0.00     0.190 HD
BRANCH  13  16
ATOM     16  C   UNL d   1      23.874 -17.424   0.064  0.00  0.00     0.105 C 
BRANCH  16  17
ATOM     17  C   UNL d   1      23.101 -18.577  -0.972  0.00  0.00     0.023 C 
BRANCH  17  18
ATOM     18  C   UNL d   1      21.579 -19.624  -0.916  0.00  0.00     0.006 C 
ATOM     19  C   UNL d   1      21.064 -18.574  -0.194  0.00  0.00     0.089 C 
ATOM     20  N   UNL d   1      19.905 -18.682  -0.895  0.00  0.00    -0.288 NA
ATOM     21  C   UNL d   1      19.405 -19.450   0.086  0.00  0.00     0.001 C 
ATOM     22  H   UNL d   1      19.876 -19.054  -1.846  0.00  0.00     0.128 HD
ATOM     23  C   UNL d   1      18.912 -18.973   1.362  0.00  0.00     0.020 C 
ATOM     24  C   UNL d   1      20.202 -20.653  -0.230  0.00  0.00     0.042 C 
ATOM     25  C   UNL d   1      18.414 -19.799   2.319  0.00  0.00     0.001 C 
ATOM     26  C   UNL d   1      18.315 -21.065   1.868  0.00  0.00    -0.003 C 
ATOM     27  C   UNL d   1      19.147 -21.417   0.684  0.00  0.00    -0.009 C 
ENDBRANCH  17  18
ENDBRANCH  16  17
ENDBRANCH  13  16
ENDBRANCH  11  12
BRANCH   1  28
ATOM     28  S   UNL d   1      28.369 -16.966  -1.287  0.00  0.00    -0.081 SA
BRANCH  28  29
ATOM     29  C   UNL d   1      30.162 -16.840  -1.269  0.00  0.00     0.185 C 
BRANCH  29  30
ATOM     30  C   UNL d   1      30.804 -18.179  -1.661  0.00  0.00     0.227 C 
ATOM     31  O   UNL d   1      30.595 -19.258  -1.109  0.00  0.00    -0.273 OA
ATOM     32  N   UNL d   1      31.648 -18.181  -2.752  0.00  0.00    -0.358 N 
ATOM     33  H   UNL d   1      31.908 -19.134  -3.001  0.00  0.00     0.162 HD
BRANCH  32  34
ATOM     34  C   UNL d   1      31.768 -17.126  -3.760  0.00  0.00     0.154 C 
BRANCH  34  35
ATOM     35  C   UNL d   1      30.838 -17.281  -4.978  0.00  0.00     0.139 C 
ATOM     36  C   UNL d   1      31.520 -17.464  -6.320  0.00  0.00     0.035 C 
ATOM     37  C   UNL d   1      31.637 -18.967  -6.465  0.00  0.00     0.029 C 
ATOM     38  C   UNL d   1      30.394 -19.452  -5.773  0.00  0.00     0.168 C 
ATOM     39  O   UNL d   1      30.049 -18.470  -4.783  0.00  0.00    -0.384 OA
ENDBRANCH  34  35
ENDBRANCH  32  34
ENDBRANCH  29  30
ENDBRANCH  28  29
ENDBRANCH   1  28
TORSDOF 9
ENDMDL
MODEL 5
REMARK VINA RESULT:   -30.759      2.151      2.463
REMARK INTER + INTRA:         -36.750
REMARK INTER:                 -33.444
REMARK INTRA:                  -3.306
REMARK CONF_INDEPENDENT:        2.685
REMARK UNBOUND:                -3.306
REMARK  9 active torsions:
REMARK  status: ('A' for Active; 'I' for Inactive)
REMARK    1  A    between atoms: C_2  and  C_3 
REMARK       I    between atoms: C_2  and  N_30 
REMARK    2  A    between atoms: C_3  and  S_4 
REMARK    3  A    between atoms: S_4  and  C_5 
REMARK    4  A    between atoms: N_15  and  N_16 
REMARK       I    between atoms: N_16  and  C_17 
REMARK    5  A    between atoms: C_17  and  C_19 
REMARK    6  A    between atoms: C_19  and  C_20 
REMARK    7  A    between atoms: C_20  and  C_21 
REMARK    8  A    between atoms: N_30  and  C_31 
REMARK    9  A    between atoms: C_32  and  C_31 
ROOT
ATOM      1  C   UNL d   1      28.272 -16.271  -2.504  0.00  0.00     0.192 C 
ATOM      2  N   UNL d   1      29.212 -15.699  -3.200  0.00  0.00    -0.222 NA
ATOM      3  C   UNL d   1      28.920 -14.786  -4.209  0.00  0.00     0.075 C 
ATOM      4  C   UNL d   1      29.980 -14.144  -4.879  0.00  0.00     0.032 C 
ATOM      5  C   UNL d   1      29.733 -13.125  -5.803  0.00  0.00     0.002 C 
ATOM      6  C   UNL d   1      28.418 -12.804  -6.123  0.00  0.00     0.001 C 
ATOM      7  C   UNL d   1      27.366 -13.579  -5.607  0.00  0.00     0.019 C 
ATOM      8  C   UNL d   1      27.612 -14.510  -4.578  0.00  0.00     0.063 C 
ATOM      9  C   UNL d   1      26.525 -15.195  -3.796  0.00  0.00     0.281 C 
ATOM     10  O   UNL d   1      25.354 -15.038  -4.148  0.00  0.00    -0.265 OA
ATOM     11  N   UNL d   1      26.907 -16.006  -2.687  0.00  0.00    -0.192 N 
ENDROOT
BRANCH  11  12
ATOM     12  N   UNL d   1      25.721 -16.782  -1.986  0.00  0.00    -0.258 N 
ATOM     13  C   UNL d   1      25.693 -17.181  -0.614  0.00  0.00     0.236 C 
ATOM     14  O   UNL d   1      26.555 -16.757   0.192  0.00  0.00    -0.272 OA
ATOM     15  H   UNL d   1      24.848 -16.464  -2.423  0.00  0.00     0.190 HD
BRANCH  13  16
ATOM     16  C   UNL d   1      24.532 -18.271  -0.043  0.00  0.00     0.105 C 
BRANCH  16  17
ATOM     17  C   UNL d   1      23.022 -18.402  -0.883  0.00  0.00     0.023 C 
BRANCH  17  18
ATOM     18  C   UNL d   1      21.586 -19.565  -0.890  0.00  0.00     0.006 C 
ATOM     19  C   UNL d   1      20.971 -18.575  -0.162  0.00  0.00     0.089 C 
ATOM     20  N   UNL d   1      19.843 -18.756  -0.896  0.00  0.00    -0.288 NA
ATOM     21  C   UNL d   1      19.379 -19.583   0.055  0.00  0.00     0.001 C 
ATOM     22  H   UNL d   1      19.869 -19.109  -1.855  0.00  0.00     0.128 HD
ATOM     23  C   UNL d   1      18.818 -19.175   1.326  0.00  0.00     0.020 C 
ATOM     24  C   UNL d   1      20.276 -20.713  -0.263  0.00  0.00     0.042 C 
ATOM     25  C   UNL d   1      18.362 -20.059   2.252  0.00  0.00     0.001 C 
ATOM     26  C   UNL d   1      18.373 -21.318   1.773  0.00  0.00    -0.003 C 
ATOM     27  C   UNL d   1      19.262 -21.577   0.605  0.00  0.00    -0.009 C 
ENDBRANCH  17  18
ENDBRANCH  16  17
ENDBRANCH  13  16
ENDBRANCH  11  12
BRANCH   1  28
ATOM     28  S   UNL d   1      28.947 -17.327  -1.299  0.00  0.00    -0.081 SA
BRANCH  28  29
ATOM     29  C   UNL d   1      29.752 -16.307  -0.056  0.00  0.00     0.185 C 
BRANCH  29  30
ATOM     30  C   UNL d   1      30.087 -14.922  -0.626  0.00  0.00     0.227 C 
ATOM     31  O   UNL d   1      31.098 -14.641  -1.270  0.00  0.00    -0.273 OA
ATOM     32  N   UNL d   1      29.157 -13.920  -0.443  0.00  0.00    -0.358 N 
ATOM     33  H   UNL d   1      29.418 -13.089  -0.971  0.00  0.00     0.162 HD
BRANCH  32  34
ATOM     34  C   UNL d   1      27.761 -14.093  -0.037  0.00  0.00     0.154 C 
BRANCH  34  35
ATOM     35  C   UNL d   1      26.962 -12.786   0.122  0.00  0.00     0.139 C 
ATOM     36  C   UNL d   1      26.875 -12.224   1.527  0.00  0.00     0.035 C 
ATOM     37  C   UNL d   1      28.058 -11.282   1.616  0.00  0.00     0.029 C 
ATOM     38  C   UNL d   1      28.152 -10.756   0.210  0.00  0.00     0.168 C 
ATOM     39  O   UNL d   1      27.619 -11.769  -0.658  0.00  0.00    -0.384 OA
ENDBRANCH  34  35
ENDBRANCH  32  34
ENDBRANCH  29  30
ENDBRANCH  28  29
ENDBRANCH   1  28
TORSDOF 9
ENDMDL
MODEL 6
REMARK VINA RESULT:   -30.432      2.750      3.923
REMARK INTER + INTRA:         -36.570
REMARK INTER:                 -33.116
REMARK INTRA:                  -3.454
REMARK CONF_INDEPENDENT:        2.685
REMARK UNBOUND:                -3.454
REMARK  9 active torsions:
REMARK  status: ('A' for Active; 'I' for Inactive)
REMARK    1  A    between atoms: C_2  and  C_3 
REMARK       I    between atoms: C_2  and  N_30 
REMARK    2  A    between atoms: C_3  and  S_4 
REMARK    3  A    between atoms: S_4  and  C_5 
REMARK    4  A    between atoms: N_15  and  N_16 
REMARK       I    between atoms: N_16  and  C_17 
REMARK    5  A    between atoms: C_17  and  C_19 
REMARK    6  A    between atoms: C_19  and  C_20 
REMARK    7  A    between atoms: C_20  and  C_21 
REMARK    8  A    between atoms: N_30  and  C_31 
REMARK    9  A    between atoms: C_32  and  C_31 
ROOT
ATOM      1  C   UNL d   1      27.745 -15.617  -3.489  0.00  0.00     0.192 C 
ATOM      2  N   UNL d   1      29.004 -15.296  -3.567  0.00  0.00    -0.222 NA
ATOM      3  C   UNL d   1      29.896 -15.581  -2.537  0.00  0.00     0.075 C 
ATOM      4  C   UNL d   1      31.260 -15.276  -2.709  0.00  0.00     0.032 C 
ATOM      5  C   UNL d   1      32.207 -15.665  -1.758  0.00  0.00     0.002 C 
ATOM      6  C   UNL d   1      31.780 -16.288  -0.590  0.00  0.00     0.001 C 
ATOM      7  C   UNL d   1      30.405 -16.411  -0.329  0.00  0.00     0.019 C 
ATOM      8  C   UNL d   1      29.465 -16.142  -1.344  0.00  0.00     0.063 C 
ATOM      9  C   UNL d   1      28.005 -16.484  -1.240  0.00  0.00     0.281 C 
ATOM     10  O   UNL d   1      27.572 -16.908  -0.166  0.00  0.00    -0.265 OA
ATOM     11  N   UNL d   1      27.188 -16.290  -2.393  0.00  0.00    -0.192 N 
ENDROOT
BRANCH  11  12
ATOM     12  N   UNL d   1      25.645 -16.563  -2.172  0.00  0.00    -0.258 N 
ATOM     13  C   UNL d   1      24.882 -16.119  -1.048  0.00  0.00     0.236 C 
ATOM     14  O   UNL d   1      25.363 -15.296  -0.234  0.00  0.00    -0.272 OA
ATOM     15  H   UNL d   1      25.201 -16.567  -3.097  0.00  0.00     0.190 HD
BRANCH  13  16
ATOM     16  C   UNL d   1      23.330 -16.724  -0.751  0.00  0.00     0.105 C 
BRANCH  16  17
ATOM     17  C   UNL d   1      23.073 -18.436  -0.818  0.00  0.00     0.023 C 
BRANCH  17  18
ATOM     18  C   UNL d   1      21.617 -19.574  -0.856  0.00  0.00     0.006 C 
ATOM     19  C   UNL d   1      21.005 -18.576  -0.138  0.00  0.00     0.089 C 
ATOM     20  N   UNL d   1      19.889 -18.737  -0.895  0.00  0.00    -0.288 NA
ATOM     21  C   UNL d   1      19.393 -19.556   0.045  0.00  0.00     0.001 C 
ATOM     22  H   UNL d   1      19.927 -19.088  -1.854  0.00  0.00     0.128 HD
ATOM     23  C   UNL d   1      18.813 -19.141   1.305  0.00  0.00     0.020 C 
ATOM     24  C   UNL d   1      20.276 -20.701  -0.257  0.00  0.00     0.042 C 
ATOM     25  C   UNL d   1      18.323 -20.017   2.221  0.00  0.00     0.001 C 
ATOM     26  C   UNL d   1      18.323 -21.276   1.740  0.00  0.00    -0.003 C 
ATOM     27  C   UNL d   1      19.230 -21.549   0.590  0.00  0.00    -0.009 C 
ENDBRANCH  17  18
ENDBRANCH  16  17
ENDBRANCH  13  16
ENDBRANCH  11  12
BRANCH   1  28
ATOM     28  S   UNL d   1      26.898 -15.166  -4.940  0.00  0.00    -0.081 SA
BRANCH  28  29
ATOM     29  C   UNL d   1      26.279 -13.492  -4.723  0.00  0.00     0.185 C 
BRANCH  29  30
ATOM     30  C   UNL d   1      25.440 -13.386  -3.441  0.00  0.00     0.227 C 
ATOM     31  O   UNL d   1      24.534 -14.153  -3.116  0.00  0.00    -0.273 OA
ATOM     32  N   UNL d   1      25.760 -12.377  -2.557  0.00  0.00    -0.358 N 
ATOM     33  H   UNL d   1      25.235 -12.481  -1.690  0.00  0.00     0.162 HD
BRANCH  32  34
ATOM     34  C   UNL d   1      26.992 -11.585  -2.550  0.00  0.00     0.154 C 
BRANCH  34  35
ATOM     35  C   UNL d   1      28.124 -12.149  -1.670  0.00  0.00     0.139 C 
ATOM     36  C   UNL d   1      28.390 -11.412  -0.372  0.00  0.00     0.035 C 
ATOM     37  C   UNL d   1      27.515 -12.127   0.637  0.00  0.00     0.029 C 
ATOM     38  C   UNL d   1      27.541 -13.544   0.135  0.00  0.00     0.168 C 
ATOM     39  O   UNL d   1      27.757 -13.488  -1.284  0.00  0.00    -0.384 OA
ENDBRANCH  34  35
ENDBRANCH  32  34
ENDBRANCH  29  30
ENDBRANCH  28  29
ENDBRANCH   1  28
TORSDOF 9
ENDMDL
MODEL 7
REMARK VINA RESULT:   -30.194      2.780      5.455
REMARK INTER + INTRA:         -36.509
REMARK INTER:                 -32.878
REMARK INTRA:                  -3.630
REMARK CONF_INDEPENDENT:        2.685
REMARK UNBOUND:                -3.630
REMARK  9 active torsions:
REMARK  status: ('A' for Active; 'I' for Inactive)
REMARK    1  A    between atoms: C_2  and  C_3 
REMARK       I    between atoms: C_2  and  N_30 
REMARK    2  A    between atoms: C_3  and  S_4 
REMARK    3  A    between atoms: S_4  and  C_5 
REMARK    4  A    between atoms: N_15  and  N_16 
REMARK       I    between atoms: N_16  and  C_17 
REMARK    5  A    between atoms: C_17  and  C_19 
REMARK    6  A    between atoms: C_19  and  C_20 
REMARK    7  A    between atoms: C_20  and  C_21 
REMARK    8  A    between atoms: N_30  and  C_31 
REMARK    9  A    between atoms: C_32  and  C_31 
ROOT
ATOM      1  C   UNL d   1      28.084 -14.465  -2.708  0.00  0.00     0.192 C 
ATOM      2  N   UNL d   1      29.060 -13.625  -2.512  0.00  0.00    -0.222 NA
ATOM      3  C   UNL d   1      29.123 -12.836  -1.367  0.00  0.00     0.075 C 
ATOM      4  C   UNL d   1      30.240 -11.999  -1.174  0.00  0.00     0.032 C 
ATOM      5  C   UNL d   1      30.408 -11.291   0.019  0.00  0.00     0.002 C 
ATOM      6  C   UNL d   1      29.415 -11.354   0.990  0.00  0.00     0.001 C 
ATOM      7  C   UNL d   1      28.212 -12.024   0.715  0.00  0.00     0.019 C 
ATOM      8  C   UNL d   1      28.104 -12.844  -0.427  0.00  0.00     0.063 C 
ATOM      9  C   UNL d   1      26.961 -13.789  -0.669  0.00  0.00     0.281 C 
ATOM     10  O   UNL d   1      25.999 -13.765   0.101  0.00  0.00    -0.265 OA
ATOM     11  N   UNL d   1      27.042 -14.665  -1.792  0.00  0.00    -0.192 N 
ENDROOT
BRANCH  11  12
ATOM     12  N   UNL d   1      25.754 -15.548  -2.047  0.00  0.00    -0.258 N 
ATOM     13  C   UNL d   1      25.437 -16.760  -1.359  0.00  0.00     0.236 C 
ATOM     14  O   UNL d   1      26.088 -17.109  -0.346  0.00  0.00    -0.272 OA
ATOM     15  H   UNL d   1      24.991 -14.908  -2.293  0.00  0.00     0.190 HD
BRANCH  13  16
ATOM     16  C   UNL d   1      24.212 -17.786  -1.916  0.00  0.00     0.105 C 
BRANCH  16  17
ATOM     17  C   UNL d   1      23.079 -18.432  -0.776  0.00  0.00     0.023 C 
BRANCH  17  18
ATOM     18  C   UNL d   1      21.630 -19.577  -0.825  0.00  0.00     0.006 C 
ATOM     19  C   UNL d   1      21.002 -18.575  -0.126  0.00  0.00     0.089 C 
ATOM     20  N   UNL d   1      19.898 -18.748  -0.899  0.00  0.00    -0.288 NA
ATOM     21  C   UNL d   1      19.392 -19.562   0.041  0.00  0.00     0.001 C 
ATOM     22  H   UNL d   1      19.953 -19.108  -1.854  0.00  0.00     0.128 HD
ATOM     23  C   UNL d   1      18.790 -19.137   1.288  0.00  0.00     0.020 C 
ATOM     24  C   UNL d   1      20.285 -20.705  -0.236  0.00  0.00     0.042 C 
ATOM     25  C   UNL d   1      18.291 -20.008   2.204  0.00  0.00     0.001 C 
ATOM     26  C   UNL d   1      18.304 -21.271   1.735  0.00  0.00    -0.003 C 
ATOM     27  C   UNL d   1      19.230 -21.550   0.602  0.00  0.00    -0.009 C 
ENDBRANCH  17  18
ENDBRANCH  16  17
ENDBRANCH  13  16
ENDBRANCH  11  12
BRANCH   1  28
ATOM     28  S   UNL d   1      28.302 -15.330  -4.202  0.00  0.00    -0.081 SA
BRANCH  28  29
ATOM     29  C   UNL d   1      27.101 -14.705  -5.385  0.00  0.00     0.185 C 
BRANCH  29  30
ATOM     30  C   UNL d   1      25.920 -14.044  -4.661  0.00  0.00     0.227 C 
ATOM     31  O   UNL d   1      24.916 -14.628  -4.254  0.00  0.00    -0.273 OA
ATOM     32  N   UNL d   1      26.012 -12.692  -4.402  0.00  0.00    -0.358 N 
ATOM     33  H   UNL d   1      25.243 -12.389  -3.806  0.00  0.00     0.162 HD
BRANCH  32  34
ATOM     34  C   UNL d   1      27.226 -11.876  -4.465  0.00  0.00     0.154 C 
BRANCH  34  35
ATOM     35  C   UNL d   1      27.191 -10.591  -3.615  0.00  0.00     0.139 C 
ATOM     36  C   UNL d   1      27.669  -9.326  -4.299  0.00  0.00     0.035 C 
ATOM     37  C   UNL d   1      26.406  -8.734  -4.891  0.00  0.00     0.029 C 
ATOM     38  C   UNL d   1      25.365  -9.129  -3.881  0.00  0.00     0.168 C 
ATOM     39  O   UNL d   1      25.819 -10.338  -3.254  0.00  0.00    -0.384 OA
ENDBRANCH  34  35
ENDBRANCH  32  34
ENDBRANCH  29  30
ENDBRANCH  28  29
ENDBRANCH   1  28
TORSDOF 9
ENDMDL
MODEL 8
REMARK VINA RESULT:   -30.164      2.435      4.122
REMARK INTER + INTRA:         -36.694
REMARK INTER:                 -32.849
REMARK INTRA:                  -3.845
REMARK CONF_INDEPENDENT:        2.685
REMARK UNBOUND:                -3.845
REMARK  9 active torsions:
REMARK  status: ('A' for Active; 'I' for Inactive)
REMARK    1  A    between atoms: C_2  and  C_3 
REMARK       I    between atoms: C_2  and  N_30 
REMARK    2  A    between atoms: C_3  and  S_4 
REMARK    3  A    between atoms: S_4  and  C_5 
REMARK    4  A    between atoms: N_15  and  N_16 
REMARK       I    between atoms: N_16  and  C_17 
REMARK    5  A    between atoms: C_17  and  C_19 
REMARK    6  A    between atoms: C_19  and  C_20 
REMARK    7  A    between atoms: C_20  and  C_21 
REMARK    8  A    between atoms: N_30  and  C_31 
REMARK    9  A    between atoms: C_32  and  C_31 
ROOT
ATOM      1  C   UNL d   1      26.872 -13.660  -0.909  0.00  0.00     0.192 C 
ATOM      2  N   UNL d   1      27.599 -12.803  -1.566  0.00  0.00    -0.222 NA
ATOM      3  C   UNL d   1      27.525 -12.695  -2.952  0.00  0.00     0.075 C 
ATOM      4  C   UNL d   1      28.281 -11.700  -3.602  0.00  0.00     0.032 C 
ATOM      5  C   UNL d   1      28.136 -11.471  -4.973  0.00  0.00     0.002 C 
ATOM      6  C   UNL d   1      27.295 -12.294  -5.714  0.00  0.00     0.001 C 
ATOM      7  C   UNL d   1      26.699 -13.410  -5.104  0.00  0.00     0.019 C 
ATOM      8  C   UNL d   1      26.739 -13.557  -3.702  0.00  0.00     0.063 C 
ATOM      9  C   UNL d   1      25.924 -14.568  -2.946  0.00  0.00     0.281 C 
ATOM     10  O   UNL d   1      25.277 -15.403  -3.583  0.00  0.00    -0.265 OA
ATOM     11  N   UNL d   1      25.948 -14.518  -1.521  0.00  0.00    -0.192 N 
ENDROOT
BRANCH  11  12
ATOM     12  N   UNL d   1      25.159 -15.682  -0.797  0.00  0.00    -0.258 N 
ATOM     13  C   UNL d   1      25.483 -17.072  -0.878  0.00  0.00     0.236 C 
ATOM     14  O   UNL d   1      26.563 -17.447  -1.393  0.00  0.00    -0.272 OA
ATOM     15  H   UNL d   1      24.815 -15.309   0.095  0.00  0.00     0.190 HD
BRANCH  13  16
ATOM     16  C   UNL d   1      24.403 -18.255  -0.332  0.00  0.00     0.105 C 
BRANCH  16  17
ATOM     17  C   UNL d   1      22.858 -18.398  -1.103  0.00  0.00     0.023 C 
BRANCH  17  18
ATOM     18  C   UNL d   1      21.420 -19.555  -1.024  0.00  0.00     0.006 C 
ATOM     19  C   UNL d   1      20.863 -18.574  -0.240  0.00  0.00     0.089 C 
ATOM     20  N   UNL d   1      19.685 -18.741  -0.895  0.00  0.00    -0.288 NA
ATOM     21  C   UNL d   1      19.287 -19.579   0.075  0.00  0.00     0.001 C 
ATOM     22  H   UNL d   1      19.641 -19.080  -1.858  0.00  0.00     0.128 HD
ATOM     23  C   UNL d   1      18.818 -19.187   1.388  0.00  0.00     0.020 C 
ATOM     24  C   UNL d   1      20.154 -20.708  -0.321  0.00  0.00     0.042 C 
ATOM     25  C   UNL d   1      18.426 -20.082   2.333  0.00  0.00     0.001 C 
ATOM     26  C   UNL d   1      18.398 -21.335   1.837  0.00  0.00    -0.003 C 
ATOM     27  C   UNL d   1      19.199 -21.580   0.606  0.00  0.00    -0.009 C 
ENDBRANCH  17  18
ENDBRANCH  16  17
ENDBRANCH  13  16
ENDBRANCH  11  12
BRANCH   1  28
ATOM     28  S   UNL d   1      27.157 -13.531   0.802  0.00  0.00    -0.081 SA
BRANCH  28  29
ATOM     29  C   UNL d   1      28.485 -14.666   1.231  0.00  0.00     0.185 C 
BRANCH  29  30
ATOM     30  C   UNL d   1      28.220 -16.057   0.639  0.00  0.00     0.227 C 
ATOM     31  O   UNL d   1      27.470 -16.906   1.119  0.00  0.00    -0.273 OA
ATOM     32  N   UNL d   1      28.837 -16.365  -0.556  0.00  0.00    -0.358 N 
ATOM     33  H   UNL d   1      28.490 -17.250  -0.921  0.00  0.00     0.162 HD
BRANCH  32  34
ATOM     34  C   UNL d   1      29.470 -15.418  -1.477  0.00  0.00     0.154 C 
BRANCH  34  35
ATOM     35  C   UNL d   1      29.659 -15.935  -2.916  0.00  0.00     0.139 C 
ATOM     36  C   UNL d   1      30.997 -15.637  -3.562  0.00  0.00     0.035 C 
ATOM     37  C   UNL d   1      31.841 -16.849  -3.224  0.00  0.00     0.029 C 
ATOM     38  C   UNL d   1      30.824 -17.957  -3.229  0.00  0.00     0.168 C 
ATOM     39  O   UNL d   1      29.558 -17.372  -2.885  0.00  0.00    -0.384 OA
ENDBRANCH  34  35
ENDBRANCH  32  34
ENDBRANCH  29  30
ENDBRANCH  28  29
ENDBRANCH   1  28
TORSDOF 9
ENDMDL
MODEL 9
REMARK VINA RESULT:   -30.008      2.329      3.735
REMARK INTER + INTRA:         -36.501
REMARK INTER:                 -32.692
REMARK INTRA:                  -3.809
REMARK CONF_INDEPENDENT:        2.685
REMARK UNBOUND:                -3.809
REMARK  9 active torsions:
REMARK  status: ('A' for Active; 'I' for Inactive)
REMARK    1  A    between atoms: C_2  and  C_3 
REMARK       I    between atoms: C_2  and  N_30 
REMARK    2  A    between atoms: C_3  and  S_4 
REMARK    3  A    between atoms: S_4  and  C_5 
REMARK    4  A    between atoms: N_15  and  N_16 
REMARK       I    between atoms: N_16  and  C_17 
REMARK    5  A    between atoms: C_17  and  C_19 
REMARK    6  A    between atoms: C_19  and  C_20 
REMARK    7  A    between atoms: C_20  and  C_21 
REMARK    8  A    between atoms: N_30  and  C_31 
REMARK    9  A    between atoms: C_32  and  C_31 
ROOT
ATOM      1  C   UNL d   1      28.422 -15.669  -2.539  0.00  0.00     0.192 C 
ATOM      2  N   UNL d   1      29.439 -15.137  -3.153  0.00  0.00    -0.222 NA
ATOM      3  C   UNL d   1      29.339 -14.669  -4.461  0.00  0.00     0.075 C 
ATOM      4  C   UNL d   1      30.452 -14.036  -5.047  0.00  0.00     0.032 C 
ATOM      5  C   UNL d   1      30.355 -13.436  -6.306  0.00  0.00     0.002 C 
ATOM      6  C   UNL d   1      29.164 -13.540  -7.017  0.00  0.00     0.001 C 
ATOM      7  C   UNL d   1      28.124 -14.342  -6.519  0.00  0.00     0.019 C 
ATOM      8  C   UNL d   1      28.176 -14.830  -5.198  0.00  0.00     0.063 C 
ATOM      9  C   UNL d   1      27.010 -15.474  -4.500  0.00  0.00     0.281 C 
ATOM     10  O   UNL d   1      25.988 -15.708  -5.149  0.00  0.00    -0.265 OA
ATOM     11  N   UNL d   1      27.151 -15.795  -3.118  0.00  0.00    -0.192 N 
ENDROOT
BRANCH  11  12
ATOM     12  N   UNL d   1      25.928 -16.572  -2.484  0.00  0.00    -0.258 N 
ATOM     13  C   UNL d   1      25.442 -16.398  -1.151  0.00  0.00     0.236 C 
ATOM     14  O   UNL d   1      25.852 -15.450  -0.441  0.00  0.00    -0.272 OA
ATOM     15  H   UNL d   1      25.250 -16.739  -3.236  0.00  0.00     0.190 HD
BRANCH  13  16
ATOM     16  C   UNL d   1      24.342 -17.490  -0.472  0.00  0.00     0.105 C 
BRANCH  16  17
ATOM     17  C   UNL d   1      23.008 -18.039  -1.431  0.00  0.00     0.023 C 
BRANCH  17  18
ATOM     18  C   UNL d   1      21.653 -19.283  -1.258  0.00  0.00     0.006 C 
ATOM     19  C   UNL d   1      21.044 -18.297  -0.519  0.00  0.00     0.089 C 
ATOM     20  N   UNL d   1      19.869 -18.580  -1.140  0.00  0.00    -0.288 NA
ATOM     21  C   UNL d   1      19.544 -19.385  -0.116  0.00  0.00     0.001 C 
ATOM     22  H   UNL d   1      19.832 -18.975  -2.081  0.00  0.00     0.128 HD
ATOM     23  C   UNL d   1      19.072 -18.950   1.182  0.00  0.00     0.020 C 
ATOM     24  C   UNL d   1      20.478 -20.475  -0.465  0.00  0.00     0.042 C 
ATOM     25  C   UNL d   1      18.756 -19.813   2.183  0.00  0.00     0.001 C 
ATOM     26  C   UNL d   1      18.804 -21.091   1.759  0.00  0.00    -0.003 C 
ATOM     27  C   UNL d   1      19.600 -21.354   0.528  0.00  0.00    -0.009 C 
ENDBRANCH  17  18
ENDBRANCH  16  17
ENDBRANCH  13  16
ENDBRANCH  11  12
BRANCH   1  28
ATOM     28  S   UNL d   1      28.845 -16.120  -0.913  0.00  0.00    -0.081 SA
BRANCH  28  29
ATOM     29  C   UNL d   1      28.410 -14.753   0.172  0.00  0.00     0.185 C 
BRANCH  29  30
ATOM     30  C   UNL d   1      29.041 -13.445  -0.325  0.00  0.00     0.227 C 
ATOM     31  O   UNL d   1      30.197 -13.083  -0.107  0.00  0.00    -0.273 OA
ATOM     32  N   UNL d   1      28.264 -12.629  -1.121  0.00  0.00    -0.358 N 
ATOM     33  H   UNL d   1      28.820 -11.864  -1.499  0.00  0.00     0.162 HD
BRANCH  32  34
ATOM     34  C   UNL d   1      27.019 -13.004  -1.795  0.00  0.00     0.154 C 
BRANCH  34  35
ATOM     35  C   UNL d   1      26.822 -12.380  -3.190  0.00  0.00     0.139 C 
ATOM     36  C   UNL d   1      25.564 -11.554  -3.380  0.00  0.00     0.035 C 
ATOM     37  C   UNL d   1      25.998 -10.147  -3.027  0.00  0.00     0.029 C 
ATOM     38  C   UNL d   1      27.426 -10.125  -3.498  0.00  0.00     0.168 C 
ATOM     39  O   UNL d   1      27.916 -11.473  -3.427  0.00  0.00    -0.384 OA
ENDBRANCH  34  35
ENDBRANCH  32  34
ENDBRANCH  29  30
ENDBRANCH  28  29
ENDBRANCH   1  28
TORSDOF 9
ENDMDL
