MODEL 1
REMARK VINA RESULT:   -10.293      0.000      0.000
REMARK INTER + INTRA:         -13.748
REMARK INTER:                 -12.082
REMARK INTRA:                  -1.666
REMARK CONF_INDEPENDENT:        1.790
REMARK UNBOUND:                -1.666
REMARK  6 active torsions:
REMARK  status: ('A' for Active; 'I' for Inactive)
REMARK    1  A    between atoms: C_5  and  N_6 
REMARK       I    between atoms: N_6  and  C_7 
REMARK    2  A    between atoms: C_7  and  C_9 
REMARK       I    between atoms: C_9  and  N_11 
REMARK    3  A    between atoms: N_11  and  C_12 
REMARK    4  A    between atoms: C_12  and  C_13 
REMARK    5  A    between atoms: C_17  and  N_18 
REMARK       I    between atoms: N_18  and  C_19 
REMARK    6  A    between atoms: C_19  and  C_21 
ROOT
ATOM      1  C   UNL d   1      27.592 -14.917   1.279  0.00  0.00     0.309 C 
ATOM      2  O   UNL d   1      27.631 -14.378   0.184  0.00  0.00    -0.262 OA
ATOM      3  N   UNL d   1      27.507 -16.272   1.529  0.00  0.00    -0.349 N 
ATOM      4  H   UNL d   1      27.554 -16.532   2.509  0.00  0.00     0.163 HD
ENDROOT
BRANCH   3   5
ATOM      5  C   UNL d   1      27.451 -17.278   0.503  0.00  0.00     0.161 C 
BRANCH   5   6
ATOM      6  C   UNL d   1      26.188 -17.276  -0.333  0.00  0.00    -0.038 A 
ATOM      7  C   UNL d   1      26.040 -16.675  -1.581  0.00  0.00     0.009 A 
ATOM      8  C   UNL d   1      24.780 -16.604  -2.182  0.00  0.00     0.003 A 
ATOM      9  C   UNL d   1      23.666 -17.222  -1.595  0.00  0.00     0.029 A 
ATOM     10  C   UNL d   1      23.799 -17.885  -0.370  0.00  0.00     0.035 A 
ATOM     11  C   UNL d   1      25.066 -17.904   0.225  0.00  0.00     0.038 A 
BRANCH  10  12
ATOM     12  N   UNL d   1      22.670 -18.484   0.252  0.00  0.00    -0.321 N 
ATOM     13  C   UNL d   1      21.589 -19.065  -0.418  0.00  0.00     0.279 C 
ATOM     14  O   UNL d   1      21.477 -19.133  -1.645  0.00  0.00    -0.265 OA
ATOM     15  H   UNL d   1      22.697 -18.577   1.261  0.00  0.00     0.169 HD
BRANCH  13  16
ATOM     16  C   UNL d   1      20.546 -19.607   0.419  0.00  0.00     0.142 A 
ATOM     17  C   UNL d   1      19.464 -20.421   0.150  0.00  0.00     0.045 A 
ATOM     18  C   UNL d   1      18.867 -20.727   1.398  0.00  0.00     0.027 A 
ATOM     19  C   UNL d   1      19.611 -20.078   2.354  0.00  0.00     0.143 A 
ATOM     20  O   UNL d   1      20.635 -19.406   1.774  0.00  0.00    -0.317 OA
ENDBRANCH  13  16
ENDBRANCH  10  12
ENDBRANCH   5   6
ENDBRANCH   3   5
BRANCH   1  21
ATOM     21  C   UNL d   1      27.630 -14.091   2.584  0.00  0.00     0.313 C 
ATOM     22  N   UNL d   1      28.321 -14.653   3.656  0.00  0.00    -0.319 N 
ATOM     23  H   UNL d   1      28.745 -15.563   3.493  0.00  0.00     0.169 HD
ATOM     24  O   UNL d   1      27.047 -13.010   2.534  0.00  0.00    -0.262 OA
BRANCH  22  25
ATOM     25  C   UNL d   1      28.490 -14.038   4.931  0.00  0.00     0.035 A 
ATOM     26  C   UNL d   1      27.699 -12.961   5.329  0.00  0.00     0.030 A 
ATOM     27  C   UNL d   1      27.882 -12.325   6.554  0.00  0.00     0.009 A 
ATOM     28  C   UNL d   1      28.862 -12.755   7.445  0.00  0.00    -0.056 A 
ATOM     29  C   UNL d   1      29.022 -12.013   8.742  0.00  0.00     0.049 C 
ATOM     30  C   UNL d   1      29.656 -13.865   7.093  0.00  0.00    -0.054 A 
ATOM     31  C   UNL d   1      29.468 -14.494   5.832  0.00  0.00     0.037 A 
ATOM     32  C   UNL d   1      30.693 -14.377   8.061  0.00  0.00     0.049 C 
ENDBRANCH  22  25
ENDBRANCH   1  21
TORSDOF 6
ENDMDL
MODEL 2
REMARK VINA RESULT:   -10.026      5.317      7.539
REMARK INTER + INTRA:         -13.838
REMARK INTER:                 -11.815
REMARK INTRA:                  -2.022
REMARK CONF_INDEPENDENT:        1.790
REMARK UNBOUND:                -2.022
REMARK  6 active torsions:
REMARK  status: ('A' for Active; 'I' for Inactive)
REMARK    1  A    between atoms: C_5  and  N_6 
REMARK       I    between atoms: N_6  and  C_7 
REMARK    2  A    between atoms: C_7  and  C_9 
REMARK       I    between atoms: C_9  and  N_11 
REMARK    3  A    between atoms: N_11  and  C_12 
REMARK    4  A    between atoms: C_12  and  C_13 
REMARK    5  A    between atoms: C_17  and  N_18 
REMARK       I    between atoms: N_18  and  C_19 
REMARK    6  A    between atoms: C_19  and  C_21 
ROOT
ATOM      1  C   UNL d   1      25.521 -13.718  -3.713  0.00  0.00     0.309 C 
ATOM      2  O   UNL d   1      24.780 -14.019  -4.636  0.00  0.00    -0.262 OA
ATOM      3  N   UNL d   1      26.150 -14.586  -2.844  0.00  0.00    -0.349 N 
ATOM      4  H   UNL d   1      26.783 -14.148  -2.182  0.00  0.00     0.163 HD
ENDROOT
BRANCH   3   5
ATOM      5  C   UNL d   1      26.019 -16.017  -2.899  0.00  0.00     0.161 C 
BRANCH   5   6
ATOM      6  C   UNL d   1      25.871 -16.702  -1.557  0.00  0.00    -0.038 A 
ATOM      7  C   UNL d   1      26.894 -16.917  -0.635  0.00  0.00     0.009 A 
ATOM      8  C   UNL d   1      26.666 -17.702   0.499  0.00  0.00     0.003 A 
ATOM      9  C   UNL d   1      25.386 -18.200   0.784  0.00  0.00     0.029 A 
ATOM     10  C   UNL d   1      24.326 -17.949  -0.094  0.00  0.00     0.035 A 
ATOM     11  C   UNL d   1      24.596 -17.193  -1.240  0.00  0.00     0.038 A 
BRANCH  10  12
ATOM     12  N   UNL d   1      23.032 -18.479   0.167  0.00  0.00    -0.321 N 
ATOM     13  C   UNL d   1      22.176 -19.033  -0.790  0.00  0.00     0.279 C 
ATOM     14  O   UNL d   1      22.437 -19.135  -1.992  0.00  0.00    -0.265 OA
ATOM     15  H   UNL d   1      22.749 -18.540   1.138  0.00  0.00     0.169 HD
BRANCH  13  16
ATOM     16  C   UNL d   1      20.903 -19.502  -0.299  0.00  0.00     0.142 A 
ATOM     17  C   UNL d   1      20.404 -19.681   0.975  0.00  0.00     0.045 A 
ATOM     18  C   UNL d   1      19.041 -20.044   0.830  0.00  0.00     0.027 A 
ATOM     19  C   UNL d   1      18.790 -20.074  -0.521  0.00  0.00     0.143 A 
ATOM     20  O   UNL d   1      19.906 -19.738  -1.213  0.00  0.00    -0.317 OA
ENDBRANCH  13  16
ENDBRANCH  10  12
ENDBRANCH   5   6
ENDBRANCH   3   5
BRANCH   1  21
ATOM     21  C   UNL d   1      25.853 -12.243  -3.397  0.00  0.00     0.313 C 
ATOM     22  N   UNL d   1      25.503 -11.305  -4.368  0.00  0.00    -0.319 N 
ATOM     23  H   UNL d   1      25.056 -11.668  -5.206  0.00  0.00     0.169 HD
ATOM     24  O   UNL d   1      26.389 -12.049  -2.309  0.00  0.00    -0.262 OA
BRANCH  22  25
ATOM     25  C   UNL d   1      25.701  -9.899  -4.254  0.00  0.00     0.035 A 
ATOM     26  C   UNL d   1      26.804  -9.373  -3.581  0.00  0.00     0.030 A 
ATOM     27  C   UNL d   1      26.988  -8.001  -3.427  0.00  0.00     0.009 A 
ATOM     28  C   UNL d   1      26.076  -7.092  -3.957  0.00  0.00    -0.056 A 
ATOM     29  C   UNL d   1      26.322  -5.625  -3.738  0.00  0.00     0.049 C 
ATOM     30  C   UNL d   1      24.968  -7.585  -4.676  0.00  0.00    -0.054 A 
ATOM     31  C   UNL d   1      24.786  -8.989  -4.812  0.00  0.00     0.037 A 
ATOM     32  C   UNL d   1      23.993  -6.619  -5.298  0.00  0.00     0.049 C 
ENDBRANCH  22  25
ENDBRANCH   1  21
TORSDOF 6
ENDMDL
MODEL 3
REMARK VINA RESULT:    -9.704      5.429      8.680
REMARK INTER + INTRA:         -14.154
REMARK INTER:                 -11.494
REMARK INTRA:                  -2.660
REMARK CONF_INDEPENDENT:        1.790
REMARK UNBOUND:                -2.660
REMARK  6 active torsions:
REMARK  status: ('A' for Active; 'I' for Inactive)
REMARK    1  A    between atoms: C_5  and  N_6 
REMARK       I    between atoms: N_6  and  C_7 
REMARK    2  A    between atoms: C_7  and  C_9 
REMARK       I    between atoms: C_9  and  N_11 
REMARK    3  A    between atoms: N_11  and  C_12 
REMARK    4  A    between atoms: C_12  and  C_13 
REMARK    5  A    between atoms: C_17  and  N_18 
REMARK       I    between atoms: N_18  and  C_19 
REMARK    6  A    between atoms: C_19  and  C_21 
ROOT
ATOM      1  C   UNL d   1      25.894 -13.873  -3.951  0.00  0.00     0.309 C 
ATOM      2  O   UNL d   1      25.585 -12.750  -3.583  0.00  0.00    -0.262 OA
ATOM      3  N   UNL d   1      25.408 -15.065  -3.455  0.00  0.00    -0.349 N 
ATOM      4  H   UNL d   1      25.737 -15.897  -3.937  0.00  0.00     0.163 HD
ENDROOT
BRANCH   3   5
ATOM      5  C   UNL d   1      24.437 -15.163  -2.399  0.00  0.00     0.161 C 
BRANCH   5   6
ATOM      6  C   UNL d   1      24.657 -16.301  -1.425  0.00  0.00    -0.038 A 
ATOM      7  C   UNL d   1      25.894 -16.817  -1.043  0.00  0.00     0.009 A 
ATOM      8  C   UNL d   1      25.963 -17.973  -0.259  0.00  0.00     0.003 A 
ATOM      9  C   UNL d   1      24.798 -18.573   0.242  0.00  0.00     0.029 A 
ATOM     10  C   UNL d   1      23.544 -18.040  -0.077  0.00  0.00     0.035 A 
ATOM     11  C   UNL d   1      23.508 -16.906  -0.896  0.00  0.00     0.038 A 
BRANCH  10  12
ATOM     12  N   UNL d   1      22.355 -18.661   0.396  0.00  0.00    -0.321 N 
ATOM     13  C   UNL d   1      21.307 -19.120  -0.408  0.00  0.00     0.279 C 
ATOM     14  O   UNL d   1      21.280 -19.046  -1.639  0.00  0.00    -0.265 OA
ATOM     15  H   UNL d   1      22.308 -18.867   1.387  0.00  0.00     0.169 HD
BRANCH  13  16
ATOM     16  C   UNL d   1      20.190 -19.711   0.290  0.00  0.00     0.142 A 
ATOM     17  C   UNL d   1      19.090 -20.422  -0.145  0.00  0.00     0.045 A 
ATOM     18  C   UNL d   1      18.404 -20.859   1.015  0.00  0.00     0.027 A 
ATOM     19  C   UNL d   1      19.118 -20.384   2.089  0.00  0.00     0.143 A 
ATOM     20  O   UNL d   1      20.206 -19.698   1.663  0.00  0.00    -0.317 OA
ENDBRANCH  13  16
ENDBRANCH  10  12
ENDBRANCH   5   6
ENDBRANCH   3   5
BRANCH   1  21
ATOM     21  C   UNL d   1      26.929 -14.094  -5.076  0.00  0.00     0.313 C 
ATOM     22  N   UNL d   1      27.688 -12.985  -5.449  0.00  0.00    -0.319 N 
ATOM     23  H   UNL d   1      27.500 -12.120  -4.949  0.00  0.00     0.169 HD
ATOM     24  O   UNL d   1      26.979 -15.237  -5.523  0.00  0.00    -0.262 OA
BRANCH  22  25
ATOM     25  C   UNL d   1      28.707 -12.991  -6.445  0.00  0.00     0.035 A 
ATOM     26  C   UNL d   1      30.007 -13.403  -6.153  0.00  0.00     0.030 A 
ATOM     27  C   UNL d   1      31.021 -13.375  -7.107  0.00  0.00     0.009 A 
ATOM     28  C   UNL d   1      30.770 -12.944  -8.407  0.00  0.00    -0.056 A 
ATOM     29  C   UNL d   1      31.913 -12.918  -9.383  0.00  0.00     0.049 C 
ATOM     30  C   UNL d   1      29.460 -12.554  -8.749  0.00  0.00    -0.054 A 
ATOM     31  C   UNL d   1      28.437 -12.574  -7.760  0.00  0.00     0.037 A 
ATOM     32  C   UNL d   1      29.154 -12.127 -10.162  0.00  0.00     0.049 C 
ENDBRANCH  22  25
ENDBRANCH   1  21
TORSDOF 6
ENDMDL
MODEL 4
REMARK VINA RESULT:    -9.661      5.067      8.351
REMARK INTER + INTRA:         -14.105
REMARK INTER:                 -11.451
REMARK INTRA:                  -2.654
REMARK CONF_INDEPENDENT:        1.790
REMARK UNBOUND:                -2.654
REMARK  6 active torsions:
REMARK  status: ('A' for Active; 'I' for Inactive)
REMARK    1  A    between atoms: C_5  and  N_6 
REMARK       I    between atoms: N_6  and  C_7 
REMARK    2  A    between atoms: C_7  and  C_9 
REMARK       I    between atoms: C_9  and  N_11 
REMARK    3  A    between atoms: N_11  and  C_12 
REMARK    4  A    between atoms: C_12  and  C_13 
REMARK    5  A    between atoms: C_17  and  N_18 
REMARK       I    between atoms: N_18  and  C_19 
REMARK    6  A    between atoms: C_19  and  C_21 
ROOT
ATOM      1  C   UNL d   1      27.032 -14.953  -3.499  0.00  0.00     0.309 C 
ATOM      2  O   UNL d   1      27.532 -14.348  -2.563  0.00  0.00    -0.262 OA
ATOM      3  N   UNL d   1      25.737 -15.423  -3.579  0.00  0.00    -0.349 N 
ATOM      4  H   UNL d   1      25.487 -15.844  -4.468  0.00  0.00     0.163 HD
ENDROOT
BRANCH   3   5
ATOM      5  C   UNL d   1      24.756 -15.264  -2.539  0.00  0.00     0.161 C 
BRANCH   5   6
ATOM      6  C   UNL d   1      24.882 -16.233  -1.382  0.00  0.00    -0.038 A 
ATOM      7  C   UNL d   1      26.073 -16.612  -0.764  0.00  0.00     0.009 A 
ATOM      8  C   UNL d   1      26.076 -17.635   0.188  0.00  0.00     0.003 A 
ATOM      9  C   UNL d   1      24.876 -18.225   0.615  0.00  0.00     0.029 A 
ATOM     10  C   UNL d   1      23.660 -17.821   0.054  0.00  0.00     0.035 A 
ATOM     11  C   UNL d   1      23.695 -16.822  -0.925  0.00  0.00     0.038 A 
BRANCH  10  12
ATOM     12  N   UNL d   1      22.442 -18.437   0.453  0.00  0.00    -0.321 N 
ATOM     13  C   UNL d   1      21.475 -18.956  -0.413  0.00  0.00     0.279 C 
ATOM     14  O   UNL d   1      21.557 -18.949  -1.644  0.00  0.00    -0.265 OA
ATOM     15  H   UNL d   1      22.309 -18.591   1.446  0.00  0.00     0.169 HD
BRANCH  13  16
ATOM     16  C   UNL d   1      20.309 -19.529   0.215  0.00  0.00     0.142 A 
ATOM     17  C   UNL d   1      19.150 -20.077  -0.297  0.00  0.00     0.045 A 
ATOM     18  C   UNL d   1      18.425 -20.595   0.806  0.00  0.00     0.027 A 
ATOM     19  C   UNL d   1      19.177 -20.327   1.924  0.00  0.00     0.143 A 
ATOM     20  O   UNL d   1      20.324 -19.692   1.578  0.00  0.00    -0.317 OA
ENDBRANCH  13  16
ENDBRANCH  10  12
ENDBRANCH   5   6
ENDBRANCH   3   5
BRANCH   1  21
ATOM     21  C   UNL d   1      27.846 -15.282  -4.770  0.00  0.00     0.313 C 
ATOM     22  N   UNL d   1      29.231 -15.341  -4.624  0.00  0.00    -0.319 N 
ATOM     23  H   UNL d   1      29.594 -15.163  -3.691  0.00  0.00     0.169 HD
ATOM     24  O   UNL d   1      27.178 -15.467  -5.784  0.00  0.00    -0.262 OA
BRANCH  22  25
ATOM     25  C   UNL d   1      30.150 -15.653  -5.667  0.00  0.00     0.035 A 
ATOM     26  C   UNL d   1      30.885 -14.658  -6.311  0.00  0.00     0.030 A 
ATOM     27  C   UNL d   1      31.755 -14.945  -7.359  0.00  0.00     0.009 A 
ATOM     28  C   UNL d   1      31.938 -16.254  -7.800  0.00  0.00    -0.056 A 
ATOM     29  C   UNL d   1      32.876 -16.494  -8.950  0.00  0.00     0.049 C 
ATOM     30  C   UNL d   1      31.240 -17.291  -7.150  0.00  0.00    -0.054 A 
ATOM     31  C   UNL d   1      30.343 -16.981  -6.090  0.00  0.00     0.037 A 
ATOM     32  C   UNL d   1      31.456 -18.720  -7.579  0.00  0.00     0.049 C 
ENDBRANCH  22  25
ENDBRANCH   1  21
TORSDOF 6
ENDMDL
MODEL 5
REMARK VINA RESULT:    -9.607      5.081      8.426
REMARK INTER + INTRA:         -14.065
REMARK INTER:                 -11.397
REMARK INTRA:                  -2.668
REMARK CONF_INDEPENDENT:        1.790
REMARK UNBOUND:                -2.668
REMARK  6 active torsions:
REMARK  status: ('A' for Active; 'I' for Inactive)
REMARK    1  A    between atoms: C_5  and  N_6 
REMARK       I    between atoms: N_6  and  C_7 
REMARK    2  A    between atoms: C_7  and  C_9 
REMARK       I    between atoms: C_9  and  N_11 
REMARK    3  A    between atoms: N_11  and  C_12 
REMARK    4  A    between atoms: C_12  and  C_13 
REMARK    5  A    between atoms: C_17  and  N_18 
REMARK       I    between atoms: N_18  and  C_19 
REMARK    6  A    between atoms: C_19  and  C_21 
ROOT
ATOM      1  C   UNL d   1      27.021 -14.958  -3.500  0.00  0.00     0.309 C 
ATOM      2  O   UNL d   1      27.554 -14.367  -2.573  0.00  0.00    -0.262 OA
ATOM      3  N   UNL d   1      25.716 -15.404  -3.551  0.00  0.00    -0.349 N 
ATOM      4  H   UNL d   1      25.437 -15.816  -4.436  0.00  0.00     0.163 HD
ENDROOT
BRANCH   3   5
ATOM      5  C   UNL d   1      24.765 -15.235  -2.486  0.00  0.00     0.161 C 
BRANCH   5   6
ATOM      6  C   UNL d   1      24.886 -16.229  -1.350  0.00  0.00    -0.038 A 
ATOM      7  C   UNL d   1      26.076 -16.635  -0.748  0.00  0.00     0.009 A 
ATOM      8  C   UNL d   1      26.073 -17.677   0.184  0.00  0.00     0.003 A 
ATOM      9  C   UNL d   1      24.869 -18.263   0.605  0.00  0.00     0.029 A 
ATOM     10  C   UNL d   1      23.654 -17.833   0.061  0.00  0.00     0.035 A 
ATOM     11  C   UNL d   1      23.695 -16.814  -0.898  0.00  0.00     0.038 A 
BRANCH  10  12
ATOM     12  N   UNL d   1      22.432 -18.443   0.455  0.00  0.00    -0.321 N 
ATOM     13  C   UNL d   1      21.478 -18.981  -0.415  0.00  0.00     0.279 C 
ATOM     14  O   UNL d   1      21.578 -18.997  -1.645  0.00  0.00    -0.265 OA
ATOM     15  H   UNL d   1      22.285 -18.578   1.448  0.00  0.00     0.169 HD
BRANCH  13  16
ATOM     16  C   UNL d   1      20.304 -19.544   0.207  0.00  0.00     0.142 A 
ATOM     17  C   UNL d   1      19.139 -20.075  -0.309  0.00  0.00     0.045 A 
ATOM     18  C   UNL d   1      18.406 -20.590   0.789  0.00  0.00     0.027 A 
ATOM     19  C   UNL d   1      19.160 -20.337   1.910  0.00  0.00     0.143 A 
ATOM     20  O   UNL d   1      20.314 -19.714   1.569  0.00  0.00    -0.317 OA
ENDBRANCH  13  16
ENDBRANCH  10  12
ENDBRANCH   5   6
ENDBRANCH   3   5
BRANCH   1  21
ATOM     21  C   UNL d   1      27.797 -15.292  -4.793  0.00  0.00     0.313 C 
ATOM     22  N   UNL d   1      29.188 -15.313  -4.695  0.00  0.00    -0.319 N 
ATOM     23  H   UNL d   1      29.579 -15.106  -3.780  0.00  0.00     0.169 HD
ATOM     24  O   UNL d   1      27.099 -15.516  -5.778  0.00  0.00    -0.262 OA
BRANCH  22  25
ATOM     25  C   UNL d   1      30.077 -15.624  -5.765  0.00  0.00     0.035 A 
ATOM     26  C   UNL d   1      30.415 -16.942  -6.070  0.00  0.00     0.030 A 
ATOM     27  C   UNL d   1      31.314 -17.257  -7.086  0.00  0.00     0.009 A 
ATOM     28  C   UNL d   1      31.904 -16.257  -7.855  0.00  0.00    -0.056 A 
ATOM     29  C   UNL d   1      32.882 -16.662  -8.922  0.00  0.00     0.049 C 
ATOM     30  C   UNL d   1      31.559 -14.914  -7.600  0.00  0.00    -0.054 A 
ATOM     31  C   UNL d   1      30.651 -14.607  -6.549  0.00  0.00     0.037 A 
ATOM     32  C   UNL d   1      32.150 -13.818  -8.449  0.00  0.00     0.049 C 
ENDBRANCH  22  25
ENDBRANCH   1  21
TORSDOF 6
ENDMDL
MODEL 6
REMARK VINA RESULT:    -8.754      2.125      2.723
REMARK INTER + INTRA:         -13.129
REMARK INTER:                 -10.544
REMARK INTRA:                  -2.585
REMARK CONF_INDEPENDENT:        1.790
REMARK UNBOUND:                -2.585
REMARK  6 active torsions:
REMARK  status: ('A' for Active; 'I' for Inactive)
REMARK    1  A    between atoms: C_5  and  N_6 
REMARK       I    between atoms: N_6  and  C_7 
REMARK    2  A    between atoms: C_7  and  C_9 
REMARK       I    between atoms: C_9  and  N_11 
REMARK    3  A    between atoms: N_11  and  C_12 
REMARK    4  A    between atoms: C_12  and  C_13 
REMARK    5  A    between atoms: C_17  and  N_18 
REMARK       I    between atoms: N_18  and  C_19 
REMARK    6  A    between atoms: C_19  and  C_21 
ROOT
ATOM      1  C   UNL d   1      27.043 -14.809   0.912  0.00  0.00     0.309 C 
ATOM      2  O   UNL d   1      26.605 -14.552  -0.198  0.00  0.00    -0.262 OA
ATOM      3  N   UNL d   1      27.410 -16.052   1.387  0.00  0.00    -0.349 N 
ATOM      4  H   UNL d   1      27.816 -16.054   2.317  0.00  0.00     0.163 HD
ENDROOT
BRANCH   3   5
ATOM      5  C   UNL d   1      27.325 -17.264   0.618  0.00  0.00     0.161 C 
BRANCH   5   6
ATOM      6  C   UNL d   1      26.107 -17.378  -0.274  0.00  0.00    -0.038 A 
ATOM      7  C   UNL d   1      26.008 -16.903  -1.581  0.00  0.00     0.009 A 
ATOM      8  C   UNL d   1      24.778 -16.925  -2.246  0.00  0.00     0.003 A 
ATOM      9  C   UNL d   1      23.651 -17.516  -1.656  0.00  0.00     0.029 A 
ATOM     10  C   UNL d   1      23.738 -18.054  -0.367  0.00  0.00     0.035 A 
ATOM     11  C   UNL d   1      24.972 -17.981   0.287  0.00  0.00     0.038 A 
BRANCH  10  12
ATOM     12  N   UNL d   1      22.592 -18.624   0.255  0.00  0.00    -0.321 N 
ATOM     13  C   UNL d   1      21.505 -19.192  -0.415  0.00  0.00     0.279 C 
ATOM     14  O   UNL d   1      21.400 -19.275  -1.642  0.00  0.00    -0.265 OA
ATOM     15  H   UNL d   1      22.611 -18.704   1.265  0.00  0.00     0.169 HD
BRANCH  13  16
ATOM     16  C   UNL d   1      20.446 -19.703   0.421  0.00  0.00     0.142 A 
ATOM     17  C   UNL d   1      19.296 -20.413   0.140  0.00  0.00     0.045 A 
ATOM     18  C   UNL d   1      18.711 -20.748   1.387  0.00  0.00     0.027 A 
ATOM     19  C   UNL d   1      19.530 -20.218   2.354  0.00  0.00     0.143 A 
ATOM     20  O   UNL d   1      20.588 -19.593   1.782  0.00  0.00    -0.317 OA
ENDBRANCH  13  16
ENDBRANCH  10  12
ENDBRANCH   5   6
ENDBRANCH   3   5
BRANCH   1  21
ATOM     21  C   UNL d   1      27.243 -13.704   1.973  0.00  0.00     0.313 C 
ATOM     22  N   UNL d   1      26.998 -12.394   1.561  0.00  0.00    -0.319 N 
ATOM     23  H   UNL d   1      26.706 -12.273   0.594  0.00  0.00     0.169 HD
ATOM     24  O   UNL d   1      27.594 -14.101   3.081  0.00  0.00    -0.262 OA
BRANCH  22  25
ATOM     25  C   UNL d   1      27.102 -11.243   2.394  0.00  0.00     0.035 A 
ATOM     26  C   UNL d   1      26.453 -10.052   2.072  0.00  0.00     0.030 A 
ATOM     27  C   UNL d   1      26.579  -8.907   2.856  0.00  0.00     0.009 A 
ATOM     28  C   UNL d   1      27.354  -8.915   4.013  0.00  0.00    -0.056 A 
ATOM     29  C   UNL d   1      27.467  -7.641   4.803  0.00  0.00     0.049 C 
ATOM     30  C   UNL d   1      27.996 -10.111   4.391  0.00  0.00    -0.054 A 
ATOM     31  C   UNL d   1      27.870 -11.267   3.572  0.00  0.00     0.037 A 
ATOM     32  C   UNL d   1      28.803 -10.155   5.663  0.00  0.00     0.049 C 
ENDBRANCH  22  25
ENDBRANCH   1  21
TORSDOF 6
ENDMDL
MODEL 7
REMARK VINA RESULT:    -8.347      8.422     11.309
REMARK INTER + INTRA:         -12.763
REMARK INTER:                 -10.137
REMARK INTRA:                  -2.627
REMARK CONF_INDEPENDENT:        1.790
REMARK UNBOUND:                -2.627
REMARK  6 active torsions:
REMARK  status: ('A' for Active; 'I' for Inactive)
REMARK    1  A    between atoms: C_5  and  N_6 
REMARK       I    between atoms: N_6  and  C_7 
REMARK    2  A    between atoms: C_7  and  C_9 
REMARK       I    between atoms: C_9  and  N_11 
REMARK    3  A    between atoms: N_11  and  C_12 
REMARK    4  A    between atoms: C_12  and  C_13 
REMARK    5  A    between atoms: C_17  and  N_18 
REMARK       I    between atoms: N_18  and  C_19 
REMARK    6  A    between atoms: C_19  and  C_21 
ROOT
ATOM      1  C   UNL d   1      26.380 -12.622  -4.502  0.00  0.00     0.309 C 
ATOM      2  O   UNL d   1      27.555 -12.442  -4.220  0.00  0.00    -0.262 OA
ATOM      3  N   UNL d   1      25.613 -11.865  -5.364  0.00  0.00    -0.349 N 
ATOM      4  H   UNL d   1      24.673 -12.214  -5.522  0.00  0.00     0.163 HD
ENDROOT
BRANCH   3   5
ATOM      5  C   UNL d   1      26.101 -10.715  -6.078  0.00  0.00     0.161 C 
BRANCH   5   6
ATOM      6  C   UNL d   1      25.600  -9.381  -5.567  0.00  0.00    -0.038 A 
ATOM      7  C   UNL d   1      26.193  -8.620  -4.560  0.00  0.00     0.009 A 
ATOM      8  C   UNL d   1      25.548  -7.483  -4.067  0.00  0.00     0.003 A 
ATOM      9  C   UNL d   1      24.352  -7.027  -4.640  0.00  0.00     0.029 A 
ATOM     10  C   UNL d   1      23.766  -7.738  -5.693  0.00  0.00     0.035 A 
ATOM     11  C   UNL d   1      24.416  -8.895  -6.139  0.00  0.00     0.038 A 
BRANCH  10  12
ATOM     12  N   UNL d   1      22.535  -7.306  -6.259  0.00  0.00    -0.321 N 
ATOM     13  C   UNL d   1      22.399  -6.591  -7.453  0.00  0.00     0.279 C 
ATOM     14  O   UNL d   1      23.337  -6.242  -8.175  0.00  0.00    -0.265 OA
ATOM     15  H   UNL d   1      21.686  -7.621  -5.805  0.00  0.00     0.169 HD
BRANCH  13  16
ATOM     16  C   UNL d   1      21.050  -6.248  -7.832  0.00  0.00     0.142 A 
ATOM     17  C   UNL d   1      20.512  -5.723  -8.990  0.00  0.00     0.045 A 
ATOM     18  C   UNL d   1      19.104  -5.728  -8.822  0.00  0.00     0.027 A 
ATOM     19  C   UNL d   1      18.865  -6.246  -7.572  0.00  0.00     0.143 A 
ATOM     20  O   UNL d   1      20.033  -6.574  -6.968  0.00  0.00    -0.317 OA
ENDBRANCH  13  16
ENDBRANCH  10  12
ENDBRANCH   5   6
ENDBRANCH   3   5
BRANCH   1  21
ATOM     21  C   UNL d   1      25.575 -13.787  -3.885  0.00  0.00     0.313 C 
ATOM     22  N   UNL d   1      26.107 -14.370  -2.735  0.00  0.00    -0.319 N 
ATOM     23  H   UNL d   1      26.983 -13.981  -2.396  0.00  0.00     0.169 HD
ATOM     24  O   UNL d   1      24.535 -14.073  -4.473  0.00  0.00    -0.262 OA
BRANCH  22  25
ATOM     25  C   UNL d   1      25.504 -15.435  -2.006  0.00  0.00     0.035 A 
ATOM     26  C   UNL d   1      24.123 -15.626  -2.007  0.00  0.00     0.030 A 
ATOM     27  C   UNL d   1      23.517 -16.638  -1.266  0.00  0.00     0.009 A 
ATOM     28  C   UNL d   1      24.278 -17.517  -0.500  0.00  0.00    -0.056 A 
ATOM     29  C   UNL d   1      23.562 -18.574   0.294  0.00  0.00     0.049 C 
ATOM     30  C   UNL d   1      25.681 -17.378  -0.502  0.00  0.00    -0.054 A 
ATOM     31  C   UNL d   1      26.283 -16.331  -1.252  0.00  0.00     0.037 A 
ATOM     32  C   UNL d   1      26.528 -18.346   0.284  0.00  0.00     0.049 C 
ENDBRANCH  22  25
ENDBRANCH   1  21
TORSDOF 6
ENDMDL
MODEL 8
REMARK VINA RESULT:    -8.261      6.181     10.109
REMARK INTER + INTRA:         -12.817
REMARK INTER:                 -10.051
REMARK INTRA:                  -2.766
REMARK CONF_INDEPENDENT:        1.790
REMARK UNBOUND:                -2.766
REMARK  6 active torsions:
REMARK  status: ('A' for Active; 'I' for Inactive)
REMARK    1  A    between atoms: C_5  and  N_6 
REMARK       I    between atoms: N_6  and  C_7 
REMARK    2  A    between atoms: C_7  and  C_9 
REMARK       I    between atoms: C_9  and  N_11 
REMARK    3  A    between atoms: N_11  and  C_12 
REMARK    4  A    between atoms: C_12  and  C_13 
REMARK    5  A    between atoms: C_17  and  N_18 
REMARK       I    between atoms: N_18  and  C_19 
REMARK    6  A    between atoms: C_19  and  C_21 
ROOT
ATOM      1  C   UNL d   1      26.254 -12.644  -4.411  0.00  0.00     0.309 C 
ATOM      2  O   UNL d   1      27.419 -12.455  -4.096  0.00  0.00    -0.262 OA
ATOM      3  N   UNL d   1      25.531 -11.947  -5.356  0.00  0.00    -0.349 N 
ATOM      4  H   UNL d   1      24.593 -12.297  -5.525  0.00  0.00     0.163 HD
ENDROOT
BRANCH   3   5
ATOM      5  C   UNL d   1      26.061 -10.859  -6.135  0.00  0.00     0.161 C 
BRANCH   5   6
ATOM      6  C   UNL d   1      27.018 -11.263  -7.237  0.00  0.00    -0.038 A 
ATOM      7  C   UNL d   1      27.112 -10.665  -8.492  0.00  0.00     0.009 A 
ATOM      8  C   UNL d   1      27.923 -11.229  -9.481  0.00  0.00     0.003 A 
ATOM      9  C   UNL d   1      28.733 -12.340  -9.201  0.00  0.00     0.029 A 
ATOM     10  C   UNL d   1      28.703 -12.924  -7.930  0.00  0.00     0.035 A 
ATOM     11  C   UNL d   1      27.851 -12.360  -6.974  0.00  0.00     0.038 A 
BRANCH  10  12
ATOM     12  N   UNL d   1      29.493 -14.072  -7.645  0.00  0.00    -0.321 N 
ATOM     13  C   UNL d   1      29.126 -15.115  -6.790  0.00  0.00     0.279 C 
ATOM     14  O   UNL d   1      28.061 -15.175  -6.169  0.00  0.00    -0.265 OA
ATOM     15  H   UNL d   1      30.349 -14.183  -8.175  0.00  0.00     0.169 HD
BRANCH  13  16
ATOM     16  C   UNL d   1      30.091 -16.178  -6.642  0.00  0.00     0.142 A 
ATOM     17  C   UNL d   1      30.212 -17.207  -5.730  0.00  0.00     0.045 A 
ATOM     18  C   UNL d   1      31.289 -18.016  -6.171  0.00  0.00     0.027 A 
ATOM     19  C   UNL d   1      31.768 -17.431  -7.319  0.00  0.00     0.143 A 
ATOM     20  O   UNL d   1      31.044 -16.325  -7.619  0.00  0.00    -0.317 OA
ENDBRANCH  13  16
ENDBRANCH  10  12
ENDBRANCH   5   6
ENDBRANCH   3   5
BRANCH   1  21
ATOM     21  C   UNL d   1      25.411 -13.750  -3.739  0.00  0.00     0.313 C 
ATOM     22  N   UNL d   1      26.033 -14.477  -2.724  0.00  0.00    -0.319 N 
ATOM     23  H   UNL d   1      26.993 -14.220  -2.508  0.00  0.00     0.169 HD
ATOM     24  O   UNL d   1      24.266 -13.868  -4.169  0.00  0.00    -0.262 OA
BRANCH  22  25
ATOM     25  C   UNL d   1      25.417 -15.517  -1.970  0.00  0.00     0.035 A 
ATOM     26  C   UNL d   1      24.030 -15.646  -1.907  0.00  0.00     0.030 A 
ATOM     27  C   UNL d   1      23.415 -16.633  -1.140  0.00  0.00     0.009 A 
ATOM     28  C   UNL d   1      24.170 -17.548  -0.411  0.00  0.00    -0.056 A 
ATOM     29  C   UNL d   1      23.445 -18.575   0.413  0.00  0.00     0.049 C 
ATOM     30  C   UNL d   1      25.576 -17.472  -0.479  0.00  0.00    -0.054 A 
ATOM     31  C   UNL d   1      26.190 -16.449  -1.254  0.00  0.00     0.037 A 
ATOM     32  C   UNL d   1      26.414 -18.480   0.266  0.00  0.00     0.049 C 
ENDBRANCH  22  25
ENDBRANCH   1  21
TORSDOF 6
ENDMDL
MODEL 9
REMARK VINA RESULT:    -8.166      1.771      9.708
REMARK INTER + INTRA:         -12.658
REMARK INTER:                  -9.956
REMARK INTRA:                  -2.702
REMARK CONF_INDEPENDENT:        1.790
REMARK UNBOUND:                -2.702
REMARK  6 active torsions:
REMARK  status: ('A' for Active; 'I' for Inactive)
REMARK    1  A    between atoms: C_5  and  N_6 
REMARK       I    between atoms: N_6  and  C_7 
REMARK    2  A    between atoms: C_7  and  C_9 
REMARK       I    between atoms: C_9  and  N_11 
REMARK    3  A    between atoms: N_11  and  C_12 
REMARK    4  A    between atoms: C_12  and  C_13 
REMARK    5  A    between atoms: C_17  and  N_18 
REMARK       I    between atoms: N_18  and  C_19 
REMARK    6  A    between atoms: C_19  and  C_21 
ROOT
ATOM      1  C   UNL d   1      24.956 -16.966  -0.836  0.00  0.00     0.309 C 
ATOM      2  O   UNL d   1      24.607 -15.853  -1.198  0.00  0.00    -0.262 OA
ATOM      3  N   UNL d   1      26.251 -17.423  -0.705  0.00  0.00    -0.349 N 
ATOM      4  H   UNL d   1      26.341 -18.360  -0.325  0.00  0.00     0.163 HD
ENDROOT
BRANCH   3   5
ATOM      5  C   UNL d   1      27.418 -16.628  -0.985  0.00  0.00     0.161 C 
BRANCH   5   6
ATOM      6  C   UNL d   1      27.442 -15.266  -0.324  0.00  0.00    -0.038 A 
ATOM      7  C   UNL d   1      27.143 -14.055  -0.946  0.00  0.00     0.009 A 
ATOM      8  C   UNL d   1      27.356 -12.848  -0.274  0.00  0.00     0.003 A 
ATOM      9  C   UNL d   1      27.773 -12.834   1.066  0.00  0.00     0.029 A 
ATOM     10  C   UNL d   1      28.023 -14.037   1.733  0.00  0.00     0.035 A 
ATOM     11  C   UNL d   1      27.838 -15.228   1.020  0.00  0.00     0.038 A 
BRANCH  10  12
ATOM     12  N   UNL d   1      28.480 -14.034   3.080  0.00  0.00    -0.321 N 
ATOM     13  C   UNL d   1      28.261 -13.011   4.007  0.00  0.00     0.279 C 
ATOM     14  O   UNL d   1      27.636 -11.973   3.774  0.00  0.00    -0.265 OA
ATOM     15  H   UNL d   1      28.921 -14.882   3.416  0.00  0.00     0.169 HD
BRANCH  13  16
ATOM     16  C   UNL d   1      28.827 -13.218   5.319  0.00  0.00     0.142 A 
ATOM     17  C   UNL d   1      28.730 -12.507   6.498  0.00  0.00     0.045 A 
ATOM     18  C   UNL d   1      29.400 -13.269   7.487  0.00  0.00     0.027 A 
ATOM     19  C   UNL d   1      29.873 -14.394   6.856  0.00  0.00     0.143 A 
ATOM     20  O   UNL d   1      29.523 -14.379   5.546  0.00  0.00    -0.317 OA
ENDBRANCH  13  16
ENDBRANCH  10  12
ENDBRANCH   5   6
ENDBRANCH   3   5
BRANCH   1  21
ATOM     21  C   UNL d   1      23.921 -18.052  -0.467  0.00  0.00     0.313 C 
ATOM     22  N   UNL d   1      22.580 -17.673  -0.509  0.00  0.00    -0.319 N 
ATOM     23  H   UNL d   1      22.391 -16.711  -0.779  0.00  0.00     0.169 HD
ATOM     24  O   UNL d   1      24.394 -19.149  -0.181  0.00  0.00    -0.262 OA
BRANCH  22  25
ATOM     25  C   UNL d   1      21.479 -18.533  -0.229  0.00  0.00     0.035 A 
ATOM     26  C   UNL d   1      20.591 -18.926  -1.229  0.00  0.00     0.030 A 
ATOM     27  C   UNL d   1      19.488 -19.733  -0.961  0.00  0.00     0.009 A 
ATOM     28  C   UNL d   1      19.236 -20.195   0.329  0.00  0.00    -0.056 A 
ATOM     29  C   UNL d   1      18.016 -21.045   0.556  0.00  0.00     0.049 C 
ATOM     30  C   UNL d   1      20.132 -19.848   1.360  0.00  0.00    -0.054 A 
ATOM     31  C   UNL d   1      21.245 -19.011   1.073  0.00  0.00     0.037 A 
ATOM     32  C   UNL d   1      19.904 -20.374   2.754  0.00  0.00     0.049 C 
ENDBRANCH  22  25
ENDBRANCH   1  21
TORSDOF 6
ENDMDL
