MODEL 1
REMARK VINA RESULT:   -11.551      0.000      0.000
REMARK INTER + INTRA:         -14.480
REMARK INTER:                 -13.043
REMARK INTRA:                  -1.437
REMARK CONF_INDEPENDENT:        1.492
REMARK UNBOUND:                -1.437
REMARK  5 active torsions:
REMARK  status: ('A' for Active; 'I' for Inactive)
REMARK    1  A    between atoms: C_8  and  S_9 
REMARK    2  A    between atoms: S_9  and  N_12 
REMARK    3  A    between atoms: N_12  and  C_13 
REMARK    4  A    between atoms: C_18  and  C_19 
REMARK       I    between atoms: C_19  and  N_21 
REMARK    5  A    between atoms: N_21  and  C_22 
ROOT
ATOM      1  C   UNL d   1      25.667 -16.658  -1.307  0.00  0.00     0.058 A 
ATOM      2  C   UNL d   1      27.074 -16.831  -1.319  0.00  0.00     0.031 A 
ATOM      3  C   UNL d   1      27.715 -17.690  -0.403  0.00  0.00     0.002 A 
ATOM      4  C   UNL d   1      26.979 -18.314   0.592  0.00  0.00     0.001 A 
ATOM      5  C   UNL d   1      25.598 -18.154   0.610  0.00  0.00     0.019 A 
ATOM      6  C   UNL d   1      24.926 -17.367  -0.350  0.00  0.00     0.059 A 
ENDROOT
BRANCH   1   7
ATOM      7  N   UNL d   1      25.036 -15.908  -2.376  0.00  0.00    -0.280 N 
ATOM      8  H   UNL d   1      24.086 -16.203  -2.572  0.00  0.00     0.179 HD
BRANCH   7   9
ATOM      9  S   UNL d   1      25.935 -15.251  -3.684  0.00  0.00     0.263 S 
ATOM     10  O   UNL d   1      25.159 -15.339  -4.912  0.00  0.00    -0.200 OA
ATOM     11  O   UNL d   1      27.255 -15.757  -3.693  0.00  0.00    -0.200 OA
BRANCH   9  12
ATOM     12  C   UNL d   1      26.156 -13.534  -3.233  0.00  0.00     0.082 C 
ATOM     13  C   UNL d   1      26.968 -13.262  -2.115  0.00  0.00     0.028 C 
ATOM     14  C   UNL d   1      27.274 -11.948  -1.771  0.00  0.00     0.040 C 
ATOM     15  C   UNL d   1      26.732 -10.910  -2.515  0.00  0.00     0.096 C 
ATOM     16  O   UNL d   1      27.198  -9.660  -2.227  0.00  0.00    -0.340 OA
ATOM     17  C   UNL d   1      25.819 -11.180  -3.540  0.00  0.00     0.070 C 
ATOM     18  C   UNL d   1      26.380  -8.615  -2.723  0.00  0.00     0.278 C 
ATOM     19  C   UNL d   1      25.593  -8.831  -4.012  0.00  0.00     0.246 C 
ATOM     20  O   UNL d   1      25.184  -7.913  -4.718  0.00  0.00    -0.271 OA
ATOM     21  N   UNL d   1      25.290 -10.134  -4.295  0.00  0.00    -0.323 N 
ATOM     22  H   UNL d   1      24.734 -10.298  -5.123  0.00  0.00     0.169 HD
ATOM     23  C   UNL d   1      25.486 -12.492  -3.872  0.00  0.00     0.057 C 
ENDBRANCH   9  12
ENDBRANCH   7   9
ENDBRANCH   1   7
BRANCH   6  24
ATOM     24  C   UNL d   1      23.440 -17.438  -0.275  0.00  0.00     0.258 C 
ATOM     25  O   UNL d   1      22.789 -16.568  -0.851  0.00  0.00    -0.267 OA
ATOM     26  N   UNL d   1      22.873 -18.451   0.484  0.00  0.00    -0.323 N 
ATOM     27  H   UNL d   1      23.513 -19.137   0.860  0.00  0.00     0.169 HD
BRANCH  26  28
ATOM     28  C   UNL d   1      21.609 -19.000   0.157  0.00  0.00     0.037 C 
ATOM     29  C   UNL d   1      21.102 -18.968  -1.134  0.00  0.00     0.032 C 
ATOM     30  C   UNL d   1      19.922 -19.707  -1.369  0.00  0.00     0.042 C 
ATOM     31  C   UNL d   1      19.193 -20.111  -0.251  0.00  0.00     0.105 C 
ATOM     32  C   UNL d   1      19.371 -19.376   0.858  0.00  0.00     0.107 C 
ATOM     33  O   UNL d   1      18.770 -21.359   0.250  0.00  0.00    -0.323 OA
ATOM     34  C   UNL d   1      20.693 -19.235   1.178  0.00  0.00     0.069 C 
ATOM     35  O   UNL d   1      18.404 -19.635   1.793  0.00  0.00    -0.323 OA
ATOM     36  C   UNL d   1      18.617 -21.033   1.704  0.00  0.00     0.352 C 
ENDBRANCH  26  28
ENDBRANCH   6  24
TORSDOF 5
ENDMDL
MODEL 2
REMARK VINA RESULT:   -10.980      1.620      2.371
REMARK INTER + INTRA:         -14.103
REMARK INTER:                 -12.472
REMARK INTRA:                  -1.631
REMARK CONF_INDEPENDENT:        1.492
REMARK UNBOUND:                -1.631
REMARK  5 active torsions:
REMARK  status: ('A' for Active; 'I' for Inactive)
REMARK    1  A    between atoms: C_8  and  S_9 
REMARK    2  A    between atoms: S_9  and  N_12 
REMARK    3  A    between atoms: N_12  and  C_13 
REMARK    4  A    between atoms: C_18  and  C_19 
REMARK       I    between atoms: C_19  and  N_21 
REMARK    5  A    between atoms: N_21  and  C_22 
ROOT
ATOM      1  C   UNL d   1      25.315 -16.482  -1.224  0.00  0.00     0.058 A 
ATOM      2  C   UNL d   1      26.718 -16.638  -1.357  0.00  0.00     0.031 A 
ATOM      3  C   UNL d   1      27.424 -17.597  -0.602  0.00  0.00     0.002 A 
ATOM      4  C   UNL d   1      26.761 -18.345   0.359  0.00  0.00     0.001 A 
ATOM      5  C   UNL d   1      25.385 -18.202   0.494  0.00  0.00     0.019 A 
ATOM      6  C   UNL d   1      24.644 -17.310  -0.311  0.00  0.00     0.059 A 
ENDROOT
BRANCH   1   7
ATOM      7  N   UNL d   1      24.609 -15.612  -2.145  0.00  0.00    -0.280 N 
ATOM      8  H   UNL d   1      23.644 -15.886  -2.302  0.00  0.00     0.179 HD
BRANCH   7   9
ATOM      9  S   UNL d   1      25.408 -14.802  -3.431  0.00  0.00     0.263 S 
ATOM     10  O   UNL d   1      24.431 -14.304  -4.387  0.00  0.00    -0.200 OA
ATOM     11  O   UNL d   1      26.485 -15.575  -3.922  0.00  0.00    -0.200 OA
BRANCH   9  12
ATOM     12  C   UNL d   1      26.223 -13.426  -2.630  0.00  0.00     0.082 C 
ATOM     13  C   UNL d   1      26.631 -12.354  -3.449  0.00  0.00     0.028 C 
ATOM     14  C   UNL d   1      27.171 -11.203  -2.883  0.00  0.00     0.040 C 
ATOM     15  C   UNL d   1      27.346 -11.142  -1.508  0.00  0.00     0.096 C 
ATOM     16  O   UNL d   1      27.728  -9.932  -1.005  0.00  0.00    -0.340 OA
ATOM     17  C   UNL d   1      27.065 -12.259  -0.712  0.00  0.00     0.070 C 
ATOM     18  C   UNL d   1      28.246  -9.996   0.311  0.00  0.00     0.278 C 
ATOM     19  C   UNL d   1      27.722 -11.061   1.270  0.00  0.00     0.246 C 
ATOM     20  O   UNL d   1      27.799 -10.971   2.492  0.00  0.00    -0.271 OA
ATOM     21  N   UNL d   1      27.226 -12.187   0.671  0.00  0.00    -0.323 N 
ATOM     22  H   UNL d   1      26.911 -12.924   1.287  0.00  0.00     0.169 HD
ATOM     23  C   UNL d   1      26.550 -13.425  -1.275  0.00  0.00     0.057 C 
ENDBRANCH   9  12
ENDBRANCH   7   9
ENDBRANCH   1   7
BRANCH   6  24
ATOM     24  C   UNL d   1      23.168 -17.404  -0.140  0.00  0.00     0.258 C 
ATOM     25  O   UNL d   1      22.477 -16.475  -0.555  0.00  0.00    -0.267 OA
ATOM     26  N   UNL d   1      22.657 -18.509   0.525  0.00  0.00    -0.323 N 
ATOM     27  H   UNL d   1      23.323 -19.230   0.765  0.00  0.00     0.169 HD
BRANCH  26  28
ATOM     28  C   UNL d   1      21.374 -19.024   0.222  0.00  0.00     0.037 C 
ATOM     29  C   UNL d   1      20.805 -18.897  -1.036  0.00  0.00     0.032 C 
ATOM     30  C   UNL d   1      19.607 -19.609  -1.265  0.00  0.00     0.042 C 
ATOM     31  C   UNL d   1      18.929 -20.087  -0.144  0.00  0.00     0.105 C 
ATOM     32  C   UNL d   1      19.169 -19.434   1.004  0.00  0.00     0.107 C 
ATOM     33  O   UNL d   1      18.518 -21.364   0.288  0.00  0.00    -0.323 OA
ATOM     34  C   UNL d   1      20.506 -19.325   1.268  0.00  0.00     0.069 C 
ATOM     35  O   UNL d   1      18.246 -19.753   1.965  0.00  0.00    -0.323 OA
ATOM     36  C   UNL d   1      18.440 -21.142   1.768  0.00  0.00     0.352 C 
ENDBRANCH  26  28
ENDBRANCH   6  24
TORSDOF 5
ENDMDL
MODEL 3
REMARK VINA RESULT:   -10.628      1.647      1.720
REMARK INTER + INTRA:         -13.813
REMARK INTER:                 -12.120
REMARK INTRA:                  -1.694
REMARK CONF_INDEPENDENT:        1.492
REMARK UNBOUND:                -1.694
REMARK  5 active torsions:
REMARK  status: ('A' for Active; 'I' for Inactive)
REMARK    1  A    between atoms: C_8  and  S_9 
REMARK    2  A    between atoms: S_9  and  N_12 
REMARK    3  A    between atoms: N_12  and  C_13 
REMARK    4  A    between atoms: C_18  and  C_19 
REMARK       I    between atoms: C_19  and  N_21 
REMARK    5  A    between atoms: N_21  and  C_22 
ROOT
ATOM      1  C   UNL d   1      25.257 -16.290  -1.222  0.00  0.00     0.058 A 
ATOM      2  C   UNL d   1      26.654 -16.422  -1.419  0.00  0.00     0.031 A 
ATOM      3  C   UNL d   1      27.390 -17.448  -0.790  0.00  0.00     0.002 A 
ATOM      4  C   UNL d   1      26.764 -18.295   0.111  0.00  0.00     0.001 A 
ATOM      5  C   UNL d   1      25.393 -18.177   0.307  0.00  0.00     0.019 A 
ATOM      6  C   UNL d   1      24.621 -17.212  -0.377  0.00  0.00     0.059 A 
ENDROOT
BRANCH   1   7
ATOM      7  N   UNL d   1      24.515 -15.336  -2.024  0.00  0.00    -0.280 N 
ATOM      8  H   UNL d   1      23.509 -15.458  -1.972  0.00  0.00     0.179 HD
BRANCH   7   9
ATOM      9  S   UNL d   1      25.147 -14.683  -3.482  0.00  0.00     0.263 S 
ATOM     10  O   UNL d   1      24.076 -14.076  -4.258  0.00  0.00    -0.200 OA
ATOM     11  O   UNL d   1      25.991 -15.614  -4.127  0.00  0.00    -0.200 OA
BRANCH   9  12
ATOM     12  C   UNL d   1      26.281 -13.416  -2.927  0.00  0.00     0.082 C 
ATOM     13  C   UNL d   1      26.434 -13.253  -1.536  0.00  0.00     0.028 C 
ATOM     14  C   UNL d   1      27.379 -12.364  -1.032  0.00  0.00     0.040 C 
ATOM     15  C   UNL d   1      28.135 -11.606  -1.916  0.00  0.00     0.096 C 
ATOM     16  O   UNL d   1      29.149 -10.877  -1.364  0.00  0.00    -0.340 OA
ATOM     17  C   UNL d   1      27.886 -11.671  -3.291  0.00  0.00     0.070 C 
ATOM     18  C   UNL d   1      29.646  -9.856  -2.210  0.00  0.00     0.278 C 
ATOM     19  C   UNL d   1      29.622 -10.060  -3.722  0.00  0.00     0.246 C 
ATOM     20  O   UNL d   1      30.350  -9.451  -4.500  0.00  0.00    -0.271 OA
ATOM     21  N   UNL d   1      28.660 -10.921  -4.175  0.00  0.00    -0.323 N 
ATOM     22  H   UNL d   1      28.598 -11.041  -5.177  0.00  0.00     0.169 HD
ATOM     23  C   UNL d   1      26.922 -12.539  -3.802  0.00  0.00     0.057 C 
ENDBRANCH   9  12
ENDBRANCH   7   9
ENDBRANCH   1   7
BRANCH   6  24
ATOM     24  C   UNL d   1      23.152 -17.334  -0.165  0.00  0.00     0.258 C 
ATOM     25  O   UNL d   1      22.436 -16.401  -0.524  0.00  0.00    -0.267 OA
ATOM     26  N   UNL d   1      22.677 -18.471   0.472  0.00  0.00    -0.323 N 
ATOM     27  H   UNL d   1      23.359 -19.191   0.665  0.00  0.00     0.169 HD
BRANCH  26  28
ATOM     28  C   UNL d   1      21.392 -18.993   0.188  0.00  0.00     0.037 C 
ATOM     29  C   UNL d   1      20.791 -18.843  -1.053  0.00  0.00     0.032 C 
ATOM     30  C   UNL d   1      19.596 -19.563  -1.270  0.00  0.00     0.042 C 
ATOM     31  C   UNL d   1      18.950 -20.074  -0.144  0.00  0.00     0.105 C 
ATOM     32  C   UNL d   1      19.211 -19.446   1.013  0.00  0.00     0.107 C 
ATOM     33  O   UNL d   1      18.564 -21.366   0.267  0.00  0.00    -0.323 OA
ATOM     34  C   UNL d   1      20.553 -19.328   1.247  0.00  0.00     0.069 C 
ATOM     35  O   UNL d   1      18.315 -19.797   1.988  0.00  0.00    -0.323 OA
ATOM     36  C   UNL d   1      18.518 -21.180   1.753  0.00  0.00     0.352 C 
ENDBRANCH  26  28
ENDBRANCH   6  24
TORSDOF 5
ENDMDL
MODEL 4
REMARK VINA RESULT:    -9.616      3.843      8.876
REMARK INTER + INTRA:         -12.593
REMARK INTER:                 -11.108
REMARK INTRA:                  -1.486
REMARK CONF_INDEPENDENT:        1.492
REMARK UNBOUND:                -1.486
REMARK  5 active torsions:
REMARK  status: ('A' for Active; 'I' for Inactive)
REMARK    1  A    between atoms: C_8  and  S_9 
REMARK    2  A    between atoms: S_9  and  N_12 
REMARK    3  A    between atoms: N_12  and  C_13 
REMARK    4  A    between atoms: C_18  and  C_19 
REMARK       I    between atoms: C_19  and  N_21 
REMARK    5  A    between atoms: N_21  and  C_22 
ROOT
ATOM      1  C   UNL d   1      26.436 -15.553  -2.084  0.00  0.00     0.058 A 
ATOM      2  C   UNL d   1      25.614 -15.555  -3.239  0.00  0.00     0.031 A 
ATOM      3  C   UNL d   1      25.217 -14.352  -3.858  0.00  0.00     0.002 A 
ATOM      4  C   UNL d   1      25.553 -13.135  -3.285  0.00  0.00     0.001 A 
ATOM      5  C   UNL d   1      26.363 -13.123  -2.155  0.00  0.00     0.019 A 
ATOM      6  C   UNL d   1      26.843 -14.314  -1.568  0.00  0.00     0.059 A 
ENDROOT
BRANCH   1   7
ATOM      7  N   UNL d   1      26.964 -16.810  -1.588  0.00  0.00    -0.280 N 
ATOM      8  H   UNL d   1      27.257 -17.444  -2.323  0.00  0.00     0.179 HD
BRANCH   7   9
ATOM      9  S   UNL d   1      26.416 -17.515  -0.121  0.00  0.00     0.263 S 
ATOM     10  O   UNL d   1      26.758 -16.655   1.001  0.00  0.00    -0.200 OA
ATOM     11  O   UNL d   1      26.781 -18.879  -0.050  0.00  0.00    -0.200 OA
BRANCH   9  12
ATOM     12  C   UNL d   1      24.638 -17.576  -0.313  0.00  0.00     0.082 C 
ATOM     13  C   UNL d   1      24.001 -16.408  -0.775  0.00  0.00     0.028 C 
ATOM     14  C   UNL d   1      22.637 -16.414  -1.052  0.00  0.00     0.040 C 
ATOM     15  C   UNL d   1      21.905 -17.570  -0.823  0.00  0.00     0.096 C 
ATOM     16  O   UNL d   1      20.613 -17.559  -1.265  0.00  0.00    -0.340 OA
ATOM     17  C   UNL d   1      22.514 -18.686  -0.238  0.00  0.00     0.070 C 
ATOM     18  C   UNL d   1      19.806 -18.576  -0.701  0.00  0.00     0.278 C 
ATOM     19  C   UNL d   1      20.443 -19.909  -0.317  0.00  0.00     0.246 C 
ATOM     20  O   UNL d   1      19.809 -20.954  -0.197  0.00  0.00    -0.271 OA
ATOM     21  N   UNL d   1      21.778 -19.851  -0.026  0.00  0.00    -0.323 N 
ATOM     22  H   UNL d   1      22.213 -20.714   0.270  0.00  0.00     0.169 HD
ATOM     23  C   UNL d   1      23.874 -18.678   0.068  0.00  0.00     0.057 C 
ENDBRANCH   9  12
ENDBRANCH   7   9
ENDBRANCH   1   7
BRANCH   6  24
ATOM     24  C   UNL d   1      27.823 -14.106  -0.465  0.00  0.00     0.258 C 
ATOM     25  O   UNL d   1      28.949 -13.709  -0.759  0.00  0.00    -0.267 OA
ATOM     26  N   UNL d   1      27.427 -14.420   0.826  0.00  0.00    -0.323 N 
ATOM     27  H   UNL d   1      26.458 -14.680   0.944  0.00  0.00     0.169 HD
BRANCH  26  28
ATOM     28  C   UNL d   1      27.951 -13.731   1.947  0.00  0.00     0.037 C 
ATOM     29  C   UNL d   1      28.941 -12.767   1.824  0.00  0.00     0.032 C 
ATOM     30  C   UNL d   1      29.248 -12.023   2.985  0.00  0.00     0.042 C 
ATOM     31  C   UNL d   1      28.797 -12.532   4.202  0.00  0.00     0.105 C 
ATOM     32  C   UNL d   1      28.576 -13.856   4.235  0.00  0.00     0.107 C 
ATOM     33  O   UNL d   1      27.966 -12.039   5.229  0.00  0.00    -0.323 OA
ATOM     34  C   UNL d   1      27.763 -14.270   3.216  0.00  0.00     0.069 C 
ATOM     35  O   UNL d   1      28.447 -14.312   5.520  0.00  0.00    -0.323 OA
ATOM     36  C   UNL d   1      27.483 -13.322   5.832  0.00  0.00     0.352 C 
ENDBRANCH  26  28
ENDBRANCH   6  24
TORSDOF 5
ENDMDL
MODEL 5
REMARK VINA RESULT:    -9.457      4.160      9.252
REMARK INTER + INTRA:         -12.954
REMARK INTER:                 -10.949
REMARK INTRA:                  -2.005
REMARK CONF_INDEPENDENT:        1.492
REMARK UNBOUND:                -2.005
REMARK  5 active torsions:
REMARK  status: ('A' for Active; 'I' for Inactive)
REMARK    1  A    between atoms: C_8  and  S_9 
REMARK    2  A    between atoms: S_9  and  N_12 
REMARK    3  A    between atoms: N_12  and  C_13 
REMARK    4  A    between atoms: C_18  and  C_19 
REMARK       I    between atoms: C_19  and  N_21 
REMARK    5  A    between atoms: N_21  and  C_22 
ROOT
ATOM      1  C   UNL d   1      27.252 -14.388  -2.532  0.00  0.00     0.058 A 
ATOM      2  C   UNL d   1      25.998 -13.728  -2.534  0.00  0.00     0.031 A 
ATOM      3  C   UNL d   1      25.131 -13.804  -3.644  0.00  0.00     0.002 A 
ATOM      4  C   UNL d   1      25.539 -14.456  -4.797  0.00  0.00     0.001 A 
ATOM      5  C   UNL d   1      26.766 -15.110  -4.804  0.00  0.00     0.019 A 
ATOM      6  C   UNL d   1      27.612 -15.121  -3.673  0.00  0.00     0.059 A 
ENDROOT
BRANCH   1   7
ATOM      7  N   UNL d   1      28.028 -14.432  -1.307  0.00  0.00    -0.280 N 
ATOM      8  H   UNL d   1      28.966 -14.796  -1.434  0.00  0.00     0.179 HD
BRANCH   7   9
ATOM      9  S   UNL d   1      27.297 -14.676   0.228  0.00  0.00     0.263 S 
ATOM     10  O   UNL d   1      26.520 -13.503   0.599  0.00  0.00    -0.200 OA
ATOM     11  O   UNL d   1      28.236 -15.175   1.159  0.00  0.00    -0.200 OA
BRANCH   9  12
ATOM     12  C   UNL d   1      26.201 -16.065  -0.035  0.00  0.00     0.082 C 
ATOM     13  C   UNL d   1      26.741 -17.354   0.143  0.00  0.00     0.028 C 
ATOM     14  C   UNL d   1      25.923 -18.476   0.063  0.00  0.00     0.040 C 
ATOM     15  C   UNL d   1      24.579 -18.314  -0.240  0.00  0.00     0.096 C 
ATOM     16  O   UNL d   1      23.804 -19.434  -0.145  0.00  0.00    -0.340 OA
ATOM     17  C   UNL d   1      24.074 -17.046  -0.550  0.00  0.00     0.070 C 
ATOM     18  C   UNL d   1      22.555 -19.324  -0.803  0.00  0.00     0.278 C 
ATOM     19  C   UNL d   1      21.874 -17.961  -0.893  0.00  0.00     0.246 C 
ATOM     20  O   UNL d   1      20.669 -17.815  -1.077  0.00  0.00    -0.271 OA
ATOM     21  N   UNL d   1      22.720 -16.887  -0.837  0.00  0.00    -0.323 N 
ATOM     22  H   UNL d   1      22.296 -15.974  -0.936  0.00  0.00     0.169 HD
ATOM     23  C   UNL d   1      24.895 -15.920  -0.499  0.00  0.00     0.057 C 
ENDBRANCH   9  12
ENDBRANCH   7   9
ENDBRANCH   1   7
BRANCH   6  24
ATOM     24  C   UNL d   1      28.807 -16.000  -3.805  0.00  0.00     0.258 C 
ATOM     25  O   UNL d   1      29.260 -16.517  -2.785  0.00  0.00    -0.267 OA
ATOM     26  N   UNL d   1      29.374 -16.148  -5.062  0.00  0.00    -0.323 N 
ATOM     27  H   UNL d   1      28.874 -15.719  -5.828  0.00  0.00     0.169 HD
BRANCH  26  28
ATOM     28  C   UNL d   1      30.037 -17.340  -5.438  0.00  0.00     0.037 C 
ATOM     29  C   UNL d   1      30.644 -18.172  -4.509  0.00  0.00     0.032 C 
ATOM     30  C   UNL d   1      31.110 -19.418  -4.982  0.00  0.00     0.042 C 
ATOM     31  C   UNL d   1      31.232 -19.566  -6.364  0.00  0.00     0.105 C 
ATOM     32  C   UNL d   1      31.388 -18.429  -7.060  0.00  0.00     0.107 C 
ATOM     33  O   UNL d   1      30.686 -20.456  -7.310  0.00  0.00    -0.323 OA
ATOM     34  C   UNL d   1      30.424 -17.506  -6.765  0.00  0.00     0.069 C 
ATOM     35  O   UNL d   1      31.811 -18.678  -8.339  0.00  0.00    -0.323 OA
ATOM     36  C   UNL d   1      30.780 -19.626  -8.554  0.00  0.00     0.352 C 
ENDBRANCH  26  28
ENDBRANCH   6  24
TORSDOF 5
ENDMDL
MODEL 6
REMARK VINA RESULT:    -9.244      4.216      7.620
REMARK INTER + INTRA:         -12.654
REMARK INTER:                 -10.735
REMARK INTRA:                  -1.919
REMARK CONF_INDEPENDENT:        1.492
REMARK UNBOUND:                -1.919
REMARK  5 active torsions:
REMARK  status: ('A' for Active; 'I' for Inactive)
REMARK    1  A    between atoms: C_8  and  S_9 
REMARK    2  A    between atoms: S_9  and  N_12 
REMARK    3  A    between atoms: N_12  and  C_13 
REMARK    4  A    between atoms: C_18  and  C_19 
REMARK       I    between atoms: C_19  and  N_21 
REMARK    5  A    between atoms: N_21  and  C_22 
ROOT
ATOM      1  C   UNL d   1      27.068 -13.015  -5.292  0.00  0.00     0.058 A 
ATOM      2  C   UNL d   1      27.551 -11.704  -5.531  0.00  0.00     0.031 A 
ATOM      3  C   UNL d   1      27.057 -10.598  -4.810  0.00  0.00     0.002 A 
ATOM      4  C   UNL d   1      26.013 -10.766  -3.914  0.00  0.00     0.001 A 
ATOM      5  C   UNL d   1      25.535 -12.049  -3.669  0.00  0.00     0.019 A 
ATOM      6  C   UNL d   1      26.074 -13.182  -4.316  0.00  0.00     0.059 A 
ENDROOT
BRANCH   1   7
ATOM      7  N   UNL d   1      27.728 -14.140  -5.926  0.00  0.00    -0.280 N 
ATOM      8  H   UNL d   1      27.280 -15.031  -5.738  0.00  0.00     0.179 HD
BRANCH   7   9
ATOM      9  S   UNL d   1      29.422 -14.163  -6.209  0.00  0.00     0.263 S 
ATOM     10  O   UNL d   1      30.096 -13.294  -5.255  0.00  0.00    -0.200 OA
ATOM     11  O   UNL d   1      29.706 -13.990  -7.583  0.00  0.00    -0.200 OA
BRANCH   9  12
ATOM     12  C   UNL d   1      29.885 -15.864  -5.906  0.00  0.00     0.082 C 
ATOM     13  C   UNL d   1      29.792 -16.330  -4.580  0.00  0.00     0.028 C 
ATOM     14  C   UNL d   1      30.030 -17.669  -4.287  0.00  0.00     0.040 C 
ATOM     15  C   UNL d   1      30.405 -18.530  -5.308  0.00  0.00     0.096 C 
ATOM     16  O   UNL d   1      30.466 -19.854  -4.984  0.00  0.00    -0.340 OA
ATOM     17  C   UNL d   1      30.627 -18.036  -6.599  0.00  0.00     0.070 C 
ATOM     18  C   UNL d   1      31.191 -20.639  -5.913  0.00  0.00     0.278 C 
ATOM     19  C   UNL d   1      31.198 -20.238  -7.386  0.00  0.00     0.246 C 
ATOM     20  O   UNL d   1      31.447 -21.019  -8.300  0.00  0.00    -0.271 OA
ATOM     21  N   UNL d   1      30.987 -18.908  -7.625  0.00  0.00    -0.323 N 
ATOM     22  H   UNL d   1      31.028 -18.612  -8.591  0.00  0.00     0.169 HD
ATOM     23  C   UNL d   1      30.418 -16.690  -6.894  0.00  0.00     0.057 C 
ENDBRANCH   9  12
ENDBRANCH   7   9
ENDBRANCH   1   7
BRANCH   6  24
ATOM     24  C   UNL d   1      25.551 -14.485  -3.816  0.00  0.00     0.258 C 
ATOM     25  O   UNL d   1      25.517 -15.433  -4.599  0.00  0.00    -0.267 OA
ATOM     26  N   UNL d   1      25.084 -14.543  -2.512  0.00  0.00    -0.323 N 
ATOM     27  H   UNL d   1      25.221 -13.712  -1.953  0.00  0.00     0.169 HD
BRANCH  26  28
ATOM     28  C   UNL d   1      25.162 -15.736  -1.753  0.00  0.00     0.037 C 
ATOM     29  C   UNL d   1      26.374 -16.328  -1.430  0.00  0.00     0.032 C 
ATOM     30  C   UNL d   1      26.329 -17.405  -0.518  0.00  0.00     0.042 C 
ATOM     31  C   UNL d   1      25.085 -17.993  -0.290  0.00  0.00     0.105 C 
ATOM     32  C   UNL d   1      24.182 -17.846  -1.273  0.00  0.00     0.107 C 
ATOM     33  O   UNL d   1      24.289 -18.200   0.854  0.00  0.00    -0.323 OA
ATOM     34  C   UNL d   1      24.030 -16.538  -1.644  0.00  0.00     0.069 C 
ATOM     35  O   UNL d   1      23.124 -18.701  -1.115  0.00  0.00    -0.323 OA
ATOM     36  C   UNL d   1      22.930 -18.300   0.230  0.00  0.00     0.352 C 
ENDBRANCH  26  28
ENDBRANCH   6  24
TORSDOF 5
ENDMDL
MODEL 7
REMARK VINA RESULT:    -8.872      2.387      3.515
REMARK INTER + INTRA:         -13.025
REMARK INTER:                 -10.363
REMARK INTRA:                  -2.662
REMARK CONF_INDEPENDENT:        1.492
REMARK UNBOUND:                -2.662
REMARK  5 active torsions:
REMARK  status: ('A' for Active; 'I' for Inactive)
REMARK    1  A    between atoms: C_8  and  S_9 
REMARK    2  A    between atoms: S_9  and  N_12 
REMARK    3  A    between atoms: N_12  and  C_13 
REMARK    4  A    between atoms: C_18  and  C_19 
REMARK       I    between atoms: C_19  and  N_21 
REMARK    5  A    between atoms: N_21  and  C_22 
ROOT
ATOM      1  C   UNL d   1      28.235 -15.351  -2.148  0.00  0.00     0.058 A 
ATOM      2  C   UNL d   1      29.508 -14.960  -2.633  0.00  0.00     0.031 A 
ATOM      3  C   UNL d   1      30.629 -15.807  -2.518  0.00  0.00     0.002 A 
ATOM      4  C   UNL d   1      30.520 -17.010  -1.837  0.00  0.00     0.001 A 
ATOM      5  C   UNL d   1      29.275 -17.405  -1.362  0.00  0.00     0.019 A 
ATOM      6  C   UNL d   1      28.121 -16.611  -1.542  0.00  0.00     0.059 A 
ENDROOT
BRANCH   1   7
ATOM      7  N   UNL d   1      27.079 -14.528  -2.447  0.00  0.00    -0.280 N 
ATOM      8  H   UNL d   1      26.593 -14.196  -1.621  0.00  0.00     0.179 HD
BRANCH   7   9
ATOM      9  S   UNL d   1      26.139 -14.756  -3.867  0.00  0.00     0.263 S 
ATOM     10  O   UNL d   1      24.730 -14.854  -3.517  0.00  0.00    -0.200 OA
ATOM     11  O   UNL d   1      26.695 -15.768  -4.682  0.00  0.00    -0.200 OA
BRANCH   9  12
ATOM     12  C   UNL d   1      26.423 -13.265  -4.813  0.00  0.00     0.082 C 
ATOM     13  C   UNL d   1      27.434 -13.306  -5.792  0.00  0.00     0.028 C 
ATOM     14  C   UNL d   1      27.637 -12.221  -6.640  0.00  0.00     0.040 C 
ATOM     15  C   UNL d   1      26.863 -11.081  -6.479  0.00  0.00     0.096 C 
ATOM     16  O   UNL d   1      27.001 -10.122  -7.440  0.00  0.00    -0.340 OA
ATOM     17  C   UNL d   1      25.953 -10.993  -5.420  0.00  0.00     0.070 C 
ATOM     18  C   UNL d   1      26.498  -8.854  -7.060  0.00  0.00     0.278 C 
ATOM     19  C   UNL d   1      25.309  -8.777  -6.105  0.00  0.00     0.246 C 
ATOM     20  O   UNL d   1      24.570  -7.800  -6.020  0.00  0.00    -0.271 OA
ATOM     21  N   UNL d   1      25.165  -9.852  -5.272  0.00  0.00    -0.323 N 
ATOM     22  H   UNL d   1      24.409  -9.805  -4.603  0.00  0.00     0.169 HD
ATOM     23  C   UNL d   1      25.763 -12.065  -4.549  0.00  0.00     0.057 C 
ENDBRANCH   9  12
ENDBRANCH   7   9
ENDBRANCH   1   7
BRANCH   6  24
ATOM     24  C   UNL d   1      26.852 -17.261  -1.111  0.00  0.00     0.258 C 
ATOM     25  O   UNL d   1      26.856 -17.896  -0.057  0.00  0.00    -0.267 OA
ATOM     26  N   UNL d   1      25.749 -17.158  -1.946  0.00  0.00    -0.323 N 
ATOM     27  H   UNL d   1      25.858 -16.560  -2.754  0.00  0.00     0.169 HD
BRANCH  26  28
ATOM     28  C   UNL d   1      24.431 -17.151  -1.431  0.00  0.00     0.037 C 
ATOM     29  C   UNL d   1      23.899 -16.051  -0.775  0.00  0.00     0.032 C 
ATOM     30  C   UNL d   1      22.521 -16.099  -0.472  0.00  0.00     0.042 C 
ATOM     31  C   UNL d   1      21.900 -17.346  -0.539  0.00  0.00     0.105 C 
ATOM     32  C   UNL d   1      22.706 -18.408  -0.387  0.00  0.00     0.107 C 
ATOM     33  O   UNL d   1      20.812 -17.865  -1.270  0.00  0.00    -0.323 OA
ATOM     34  C   UNL d   1      23.781 -18.366  -1.231  0.00  0.00     0.069 C 
ATOM     35  O   UNL d   1      21.991 -19.552  -0.152  0.00  0.00    -0.323 OA
ATOM     36  C   UNL d   1      21.153 -19.324  -1.273  0.00  0.00     0.352 C 
ENDBRANCH  26  28
ENDBRANCH   6  24
TORSDOF 5
ENDMDL
