MODEL 1
REMARK VINA RESULT:    -7.686      0.000      0.000
REMARK INTER + INTRA:          -9.704
REMARK INTER:                  -8.581
REMARK INTRA:                  -1.123
REMARK CONF_INDEPENDENT:        0.895
REMARK UNBOUND:                -1.123
REMARK  3 active torsions:
REMARK  status: ('A' for Active; 'I' for Inactive)
REMARK    1  A    between atoms: C_5  and  C_6 
REMARK       I    between atoms: C_6  and  N_8 
REMARK    2  A    between atoms: N_8  and  N_9 
REMARK    3  A    between atoms: N_9  and  C_10 
ROOT
ATOM      1  C   UNL d   1      20.636 -19.720  -0.741  0.00  0.00     0.293 C 
ATOM      2  O   UNL d   1      20.278 -19.677  -1.923  0.00  0.00    -0.264 OA
ATOM      3  N   UNL d   1      21.937 -19.327  -0.366  0.00  0.00    -0.264 N 
ATOM      4  H   UNL d   1      22.169 -19.170   0.608  0.00  0.00     0.190 HD
ENDROOT
BRANCH   3   5
ATOM      5  N   UNL d   1      22.730 -18.635  -1.296  0.00  0.00    -0.298 N 
ATOM      6  H   UNL d   1      22.512 -18.762  -2.287  0.00  0.00     0.187 HD
BRANCH   5   7
ATOM      7  C   UNL d   1      23.979 -18.109  -0.917  0.00  0.00     0.049 A 
ATOM      8  C   UNL d   1      24.720 -18.569   0.182  0.00  0.00     0.031 A 
ATOM      9  C   UNL d   1      25.936 -17.965   0.548  0.00  0.00     0.004 A 
ATOM     10  C   UNL d   1      26.415 -16.863  -0.156  0.00  0.00     0.024 A 
ATOM     11  C   UNL d   1      25.684 -16.383  -1.237  0.00  0.00     0.036 A 
ATOM     12 CL   UNL d   1      26.250 -14.996  -2.088  0.00  0.00    -0.084 Cl
ATOM     13  C   UNL d   1      24.491 -17.007  -1.625  0.00  0.00     0.054 A 
ENDBRANCH   5   7
ENDBRANCH   3   5
BRANCH   1  14
ATOM     14  C   UNL d   1      19.778 -20.182   0.358  0.00  0.00     0.144 A 
ATOM     15  C   UNL d   1      18.455 -20.594   0.384  0.00  0.00     0.045 A 
ATOM     16  C   UNL d   1      18.124 -20.905   1.724  0.00  0.00     0.035 A 
ATOM     17  C   UNL d   1      19.258 -20.681   2.469  0.00  0.00     0.050 A 
ATOM     18  C   UNL d   1      19.530 -20.825   3.923  0.00  0.00     0.076 C 
ATOM     19  O   UNL d   1      20.271 -20.247   1.652  0.00  0.00    -0.310 OA
ENDBRANCH   1  14
TORSDOF 3
ENDMDL
MODEL 2
REMARK VINA RESULT:    -7.113      1.731      2.440
REMARK INTER + INTRA:          -8.539
REMARK INTER:                  -8.008
REMARK INTRA:                  -0.531
REMARK CONF_INDEPENDENT:        0.895
REMARK UNBOUND:                -0.531
REMARK  3 active torsions:
REMARK  status: ('A' for Active; 'I' for Inactive)
REMARK    1  A    between atoms: C_5  and  C_6 
REMARK       I    between atoms: C_6  and  N_8 
REMARK    2  A    between atoms: N_8  and  N_9 
REMARK    3  A    between atoms: N_9  and  C_10 
ROOT
ATOM      1  C   UNL d   1      22.521 -18.042   0.062  0.00  0.00     0.293 C 
ATOM      2  O   UNL d   1      22.600 -16.812   0.163  0.00  0.00    -0.264 OA
ATOM      3  N   UNL d   1      23.677 -18.847   0.131  0.00  0.00    -0.264 N 
ATOM      4  H   UNL d   1      23.601 -19.850   0.250  0.00  0.00     0.190 HD
ENDROOT
BRANCH   3   5
ATOM      5  N   UNL d   1      24.877 -18.273   0.581  0.00  0.00    -0.298 N 
ATOM      6  H   UNL d   1      24.986 -18.142   1.590  0.00  0.00     0.187 HD
BRANCH   5   7
ATOM      7  C   UNL d   1      25.711 -17.572  -0.309  0.00  0.00     0.049 A 
ATOM      8  C   UNL d   1      27.112 -17.647  -0.291  0.00  0.00     0.031 A 
ATOM      9  C   UNL d   1      27.897 -16.878  -1.168  0.00  0.00     0.004 A 
ATOM     10  C   UNL d   1      27.295 -15.988  -2.055  0.00  0.00     0.024 A 
ATOM     11  C   UNL d   1      25.909 -15.889  -2.074  0.00  0.00     0.036 A 
ATOM     12 CL   UNL d   1      25.159 -14.762  -3.140  0.00  0.00    -0.084 Cl
ATOM     13  C   UNL d   1      25.124 -16.682  -1.226  0.00  0.00     0.054 A 
ENDBRANCH   5   7
ENDBRANCH   3   5
BRANCH   1  14
ATOM     14  C   UNL d   1      21.262 -18.768  -0.144  0.00  0.00     0.144 A 
ATOM     15  C   UNL d   1      20.450 -18.908  -1.260  0.00  0.00     0.045 A 
ATOM     16  C   UNL d   1      19.337 -19.698  -0.888  0.00  0.00     0.035 A 
ATOM     17  C   UNL d   1      19.510 -20.022   0.437  0.00  0.00     0.050 A 
ATOM     18  C   UNL d   1      18.682 -20.820   1.376  0.00  0.00     0.076 C 
ATOM     19  O   UNL d   1      20.678 -19.469   0.900  0.00  0.00    -0.310 OA
ENDBRANCH   1  14
TORSDOF 3
ENDMDL
MODEL 3
REMARK VINA RESULT:    -6.837      1.424      2.073
REMARK INTER + INTRA:          -8.270
REMARK INTER:                  -7.732
REMARK INTRA:                  -0.538
REMARK CONF_INDEPENDENT:        0.895
REMARK UNBOUND:                -0.538
REMARK  3 active torsions:
REMARK  status: ('A' for Active; 'I' for Inactive)
REMARK    1  A    between atoms: C_5  and  C_6 
REMARK       I    between atoms: C_6  and  N_8 
REMARK    2  A    between atoms: N_8  and  N_9 
REMARK    3  A    between atoms: N_9  and  C_10 
ROOT
ATOM      1  C   UNL d   1      21.411 -18.154  -0.782  0.00  0.00     0.293 C 
ATOM      2  O   UNL d   1      21.037 -17.081  -1.270  0.00  0.00    -0.264 OA
ATOM      3  N   UNL d   1      22.744 -18.589  -0.930  0.00  0.00    -0.264 N 
ATOM      4  H   UNL d   1      23.103 -19.354  -0.371  0.00  0.00     0.190 HD
ENDROOT
BRANCH   3   5
ATOM      5  N   UNL d   1      23.705 -17.679  -1.400  0.00  0.00    -0.298 N 
ATOM      6  H   UNL d   1      23.525 -17.227  -2.299  0.00  0.00     0.187 HD
BRANCH   5   7
ATOM      7  C   UNL d   1      25.007 -17.677  -0.865  0.00  0.00     0.049 A 
ATOM      8  C   UNL d   1      25.336 -18.200   0.394  0.00  0.00     0.031 A 
ATOM      9  C   UNL d   1      26.644 -18.118   0.901  0.00  0.00     0.004 A 
ATOM     10  C   UNL d   1      27.643 -17.475   0.173  0.00  0.00     0.024 A 
ATOM     11  C   UNL d   1      27.330 -16.937  -1.070  0.00  0.00     0.036 A 
ATOM     12 CL   UNL d   1      28.550 -16.106  -1.959  0.00  0.00    -0.084 Cl
ATOM     13  C   UNL d   1      26.035 -17.051  -1.593  0.00  0.00     0.054 A 
ENDBRANCH   5   7
ENDBRANCH   3   5
BRANCH   1  14
ATOM     14  C   UNL d   1      20.534 -19.062  -0.031  0.00  0.00     0.144 A 
ATOM     15  C   UNL d   1      20.582 -19.516   1.278  0.00  0.00     0.045 A 
ATOM     16  C   UNL d   1      19.495 -20.402   1.468  0.00  0.00     0.035 A 
ATOM     17  C   UNL d   1      18.816 -20.451   0.274  0.00  0.00     0.050 A 
ATOM     18  C   UNL d   1      17.604 -21.201  -0.145  0.00  0.00     0.076 C 
ATOM     19  O   UNL d   1      19.433 -19.637  -0.643  0.00  0.00    -0.310 OA
ENDBRANCH   1  14
TORSDOF 3
ENDMDL
MODEL 4
REMARK VINA RESULT:    -6.636      4.931      8.772
REMARK INTER + INTRA:          -8.520
REMARK INTER:                  -7.531
REMARK INTRA:                  -0.989
REMARK CONF_INDEPENDENT:        0.895
REMARK UNBOUND:                -0.989
REMARK  3 active torsions:
REMARK  status: ('A' for Active; 'I' for Inactive)
REMARK    1  A    between atoms: C_5  and  C_6 
REMARK       I    between atoms: C_6  and  N_8 
REMARK    2  A    between atoms: N_8  and  N_9 
REMARK    3  A    between atoms: N_9  and  C_10 
ROOT
ATOM      1  C   UNL d   1      25.789 -14.462  -4.307  0.00  0.00     0.293 C 
ATOM      2  O   UNL d   1      24.773 -13.844  -4.645  0.00  0.00    -0.264 OA
ATOM      3  N   UNL d   1      25.821 -15.192  -3.101  0.00  0.00    -0.264 N 
ATOM      4  H   UNL d   1      26.564 -15.854  -2.918  0.00  0.00     0.190 HD
ENDROOT
BRANCH   3   5
ATOM      5  N   UNL d   1      24.614 -15.433  -2.422  0.00  0.00    -0.298 N 
ATOM      6  H   UNL d   1      23.899 -14.703  -2.462  0.00  0.00     0.187 HD
BRANCH   5   7
ATOM      7  C   UNL d   1      24.537 -16.435  -1.438  0.00  0.00     0.049 A 
ATOM      8  C   UNL d   1      25.640 -16.893  -0.701  0.00  0.00     0.031 A 
ATOM      9  C   UNL d   1      25.514 -17.939   0.230  0.00  0.00     0.004 A 
ATOM     10  C   UNL d   1      24.288 -18.575   0.413  0.00  0.00     0.024 A 
ATOM     11  C   UNL d   1      23.189 -18.145  -0.321  0.00  0.00     0.036 A 
ATOM     12 CL   UNL d   1      21.678 -18.952  -0.129  0.00  0.00    -0.084 Cl
ATOM     13  C   UNL d   1      23.305 -17.078  -1.223  0.00  0.00     0.054 A 
ENDBRANCH   5   7
ENDBRANCH   3   5
BRANCH   1  14
ATOM     14  C   UNL d   1      27.029 -14.492  -5.092  0.00  0.00     0.144 A 
ATOM     15  C   UNL d   1      27.580 -13.581  -5.980  0.00  0.00     0.045 A 
ATOM     16  C   UNL d   1      28.784 -14.134  -6.475  0.00  0.00     0.035 A 
ATOM     17  C   UNL d   1      28.933 -15.359  -5.867  0.00  0.00     0.050 A 
ATOM     18  C   UNL d   1      29.987 -16.399  -5.983  0.00  0.00     0.076 C 
ATOM     19  O   UNL d   1      27.877 -15.586  -5.020  0.00  0.00    -0.310 OA
ENDBRANCH   1  14
TORSDOF 3
ENDMDL
MODEL 5
REMARK VINA RESULT:    -6.475      2.630      3.755
REMARK INTER + INTRA:          -8.115
REMARK INTER:                  -7.370
REMARK INTRA:                  -0.745
REMARK CONF_INDEPENDENT:        0.895
REMARK UNBOUND:                -0.745
REMARK  3 active torsions:
REMARK  status: ('A' for Active; 'I' for Inactive)
REMARK    1  A    between atoms: C_5  and  C_6 
REMARK       I    between atoms: C_6  and  N_8 
REMARK    2  A    between atoms: N_8  and  N_9 
REMARK    3  A    between atoms: N_9  and  C_10 
ROOT
ATOM      1  C   UNL d   1      23.452 -17.935  -0.176  0.00  0.00     0.293 C 
ATOM      2  O   UNL d   1      24.279 -18.097   0.728  0.00  0.00    -0.264 OA
ATOM      3  N   UNL d   1      23.726 -17.073  -1.257  0.00  0.00    -0.264 N 
ATOM      4  H   UNL d   1      23.149 -17.089  -2.090  0.00  0.00     0.190 HD
ENDROOT
BRANCH   3   5
ATOM      5  N   UNL d   1      25.040 -16.611  -1.441  0.00  0.00    -0.298 N 
ATOM      6  H   UNL d   1      25.709 -16.787  -0.688  0.00  0.00     0.187 HD
BRANCH   5   7
ATOM      7  C   UNL d   1      25.325 -15.639  -2.417  0.00  0.00     0.049 A 
ATOM      8  C   UNL d   1      24.446 -14.604  -2.770  0.00  0.00     0.031 A 
ATOM      9  C   UNL d   1      24.761 -13.695  -3.796  0.00  0.00     0.004 A 
ATOM     10  C   UNL d   1      25.946 -13.828  -4.515  0.00  0.00     0.024 A 
ATOM     11  C   UNL d   1      26.821 -14.858  -4.189  0.00  0.00     0.036 A 
ATOM     12 CL   UNL d   1      28.271 -15.052  -5.100  0.00  0.00    -0.084 Cl
ATOM     13  C   UNL d   1      26.526 -15.742  -3.143  0.00  0.00     0.054 A 
ENDBRANCH   5   7
ENDBRANCH   3   5
BRANCH   1  14
ATOM     14  C   UNL d   1      22.139 -18.590  -0.213  0.00  0.00     0.144 A 
ATOM     15  C   UNL d   1      21.317 -18.951  -1.270  0.00  0.00     0.045 A 
ATOM     16  C   UNL d   1      20.146 -19.531  -0.729  0.00  0.00     0.035 A 
ATOM     17  C   UNL d   1      20.295 -19.514   0.638  0.00  0.00     0.050 A 
ATOM     18  C   UNL d   1      19.407 -19.976   1.735  0.00  0.00     0.076 C 
ATOM     19  O   UNL d   1      21.503 -18.951   0.965  0.00  0.00    -0.310 OA
ENDBRANCH   1  14
TORSDOF 3
ENDMDL
MODEL 6
REMARK VINA RESULT:    -5.917      5.076      8.591
REMARK INTER + INTRA:          -7.923
REMARK INTER:                  -6.812
REMARK INTRA:                  -1.111
REMARK CONF_INDEPENDENT:        0.895
REMARK UNBOUND:                -1.111
REMARK  3 active torsions:
REMARK  status: ('A' for Active; 'I' for Inactive)
REMARK    1  A    between atoms: C_5  and  C_6 
REMARK       I    between atoms: C_6  and  N_8 
REMARK    2  A    between atoms: N_8  and  N_9 
REMARK    3  A    between atoms: N_9  and  C_10 
ROOT
ATOM      1  C   UNL d   1      25.546 -14.028  -4.023  0.00  0.00     0.293 C 
ATOM      2  O   UNL d   1      25.160 -14.663  -5.012  0.00  0.00    -0.264 OA
ATOM      3  N   UNL d   1      25.742 -14.672  -2.785  0.00  0.00    -0.264 N 
ATOM      4  H   UNL d   1      26.242 -14.209  -2.036  0.00  0.00     0.190 HD
ENDROOT
BRANCH   3   5
ATOM      5  N   UNL d   1      25.757 -16.076  -2.745  0.00  0.00    -0.298 N 
ATOM      6  H   UNL d   1      25.823 -16.571  -3.638  0.00  0.00     0.187 HD
BRANCH   5   7
ATOM      7  C   UNL d   1      25.324 -16.762  -1.596  0.00  0.00     0.049 A 
ATOM      8  C   UNL d   1      26.158 -17.079  -0.513  0.00  0.00     0.031 A 
ATOM      9  C   UNL d   1      25.683 -17.819   0.584  0.00  0.00     0.004 A 
ATOM     10  C   UNL d   1      24.372 -18.290   0.601  0.00  0.00     0.024 A 
ATOM     11  C   UNL d   1      23.537 -17.999  -0.471  0.00  0.00     0.036 A 
ATOM     12 CL   UNL d   1      21.926 -18.611  -0.475  0.00  0.00    -0.084 Cl
ATOM     13  C   UNL d   1      23.998 -17.231  -1.549  0.00  0.00     0.054 A 
ENDBRANCH   5   7
ENDBRANCH   3   5
BRANCH   1  14
ATOM     14  C   UNL d   1      25.820 -12.586  -4.032  0.00  0.00     0.144 A 
ATOM     15  C   UNL d   1      25.865 -11.662  -5.065  0.00  0.00     0.045 A 
ATOM     16  C   UNL d   1      26.205 -10.407  -4.509  0.00  0.00     0.035 A 
ATOM     17  C   UNL d   1      26.346 -10.603  -3.155  0.00  0.00     0.050 A 
ATOM     18  C   UNL d   1      26.695  -9.672  -2.052  0.00  0.00     0.076 C 
ATOM     19  O   UNL d   1      26.110 -11.921  -2.851  0.00  0.00    -0.310 OA
ENDBRANCH   1  14
TORSDOF 3
ENDMDL
MODEL 7
REMARK VINA RESULT:    -5.747      5.134      9.038
REMARK INTER + INTRA:          -7.812
REMARK INTER:                  -6.641
REMARK INTRA:                  -1.170
REMARK CONF_INDEPENDENT:        0.895
REMARK UNBOUND:                -1.170
REMARK  3 active torsions:
REMARK  status: ('A' for Active; 'I' for Inactive)
REMARK    1  A    between atoms: C_5  and  C_6 
REMARK       I    between atoms: C_6  and  N_8 
REMARK    2  A    between atoms: N_8  and  N_9 
REMARK    3  A    between atoms: N_9  and  C_10 
ROOT
ATOM      1  C   UNL d   1      26.228 -14.102  -4.415  0.00  0.00     0.293 C 
ATOM      2  O   UNL d   1      25.435 -13.154  -4.472  0.00  0.00    -0.264 OA
ATOM      3  N   UNL d   1      26.062 -15.124  -3.458  0.00  0.00    -0.264 N 
ATOM      4  H   UNL d   1      26.579 -15.991  -3.534  0.00  0.00     0.190 HD
ENDROOT
BRANCH   3   5
ATOM      5  N   UNL d   1      24.849 -15.202  -2.753  0.00  0.00    -0.298 N 
ATOM      6  H   UNL d   1      24.252 -14.372  -2.752  0.00  0.00     0.187 HD
BRANCH   5   7
ATOM      7  C   UNL d   1      24.645 -16.211  -1.794  0.00  0.00     0.049 A 
ATOM      8  C   UNL d   1      23.388 -16.549  -1.270  0.00  0.00     0.031 A 
ATOM      9  C   UNL d   1      23.252 -17.527  -0.270  0.00  0.00     0.004 A 
ATOM     10  C   UNL d   1      24.376 -18.160   0.254  0.00  0.00     0.024 A 
ATOM     11  C   UNL d   1      25.631 -17.826  -0.242  0.00  0.00     0.036 A 
ATOM     12 CL   UNL d   1      27.030 -18.576   0.428  0.00  0.00    -0.084 Cl
ATOM     13  C   UNL d   1      25.765 -16.877  -1.265  0.00  0.00     0.054 A 
ENDBRANCH   5   7
ENDBRANCH   3   5
BRANCH   1  14
ATOM     14  C   UNL d   1      27.391 -14.251  -5.298  0.00  0.00     0.144 A 
ATOM     15  C   UNL d   1      27.972 -13.385  -6.212  0.00  0.00     0.045 A 
ATOM     16  C   UNL d   1      29.062 -14.058  -6.813  0.00  0.00     0.035 A 
ATOM     17  C   UNL d   1      29.116 -15.307  -6.240  0.00  0.00     0.050 A 
ATOM     18  C   UNL d   1      30.031 -16.457  -6.458  0.00  0.00     0.076 C 
ATOM     19  O   UNL d   1      28.111 -15.435  -5.314  0.00  0.00    -0.310 OA
ENDBRANCH   1  14
TORSDOF 3
ENDMDL
MODEL 8
REMARK VINA RESULT:    -5.550      5.456      9.274
REMARK INTER + INTRA:          -7.484
REMARK INTER:                  -6.445
REMARK INTRA:                  -1.039
REMARK CONF_INDEPENDENT:        0.895
REMARK UNBOUND:                -1.039
REMARK  3 active torsions:
REMARK  status: ('A' for Active; 'I' for Inactive)
REMARK    1  A    between atoms: C_5  and  C_6 
REMARK       I    between atoms: C_6  and  N_8 
REMARK    2  A    between atoms: N_8  and  N_9 
REMARK    3  A    between atoms: N_9  and  C_10 
ROOT
ATOM      1  C   UNL d   1      27.264 -15.062  -4.824  0.00  0.00     0.293 C 
ATOM      2  O   UNL d   1      26.379 -14.334  -5.288  0.00  0.00    -0.264 OA
ATOM      3  N   UNL d   1      27.133 -15.625  -3.538  0.00  0.00    -0.264 N 
ATOM      4  H   UNL d   1      27.748 -16.372  -3.236  0.00  0.00     0.190 HD
ENDROOT
BRANCH   3   5
ATOM      5  N   UNL d   1      25.883 -15.576  -2.900  0.00  0.00    -0.298 N 
ATOM      6  H   UNL d   1      25.293 -14.762  -3.084  0.00  0.00     0.187 HD
BRANCH   5   7
ATOM      7  C   UNL d   1      25.618 -16.394  -1.785  0.00  0.00     0.049 A 
ATOM      8  C   UNL d   1      26.575 -16.729  -0.816  0.00  0.00     0.031 A 
ATOM      9  C   UNL d   1      26.268 -17.598   0.245  0.00  0.00     0.004 A 
ATOM     10  C   UNL d   1      25.006 -18.181   0.335  0.00  0.00     0.024 A 
ATOM     11  C   UNL d   1      24.050 -17.872  -0.626  0.00  0.00     0.036 A 
ATOM     12 CL   UNL d   1      22.499 -18.619  -0.543  0.00  0.00    -0.084 Cl
ATOM     13  C   UNL d   1      24.344 -16.977  -1.664  0.00  0.00     0.054 A 
ENDBRANCH   5   7
ENDBRANCH   3   5
BRANCH   1  14
ATOM     14  C   UNL d   1      28.506 -15.396  -5.533  0.00  0.00     0.144 A 
ATOM     15  C   UNL d   1      29.163 -14.774  -6.583  0.00  0.00     0.045 A 
ATOM     16  C   UNL d   1      30.309 -15.544  -6.892  0.00  0.00     0.035 A 
ATOM     17  C   UNL d   1      30.318 -16.603  -6.015  0.00  0.00     0.050 A 
ATOM     18  C   UNL d   1      31.258 -17.742  -5.850  0.00  0.00     0.076 C 
ATOM     19  O   UNL d   1      29.232 -16.522  -5.181  0.00  0.00    -0.310 OA
ENDBRANCH   1  14
TORSDOF 3
ENDMDL
MODEL 9
REMARK VINA RESULT:    -5.259      5.509      7.656
REMARK INTER + INTRA:          -7.342
REMARK INTER:                  -6.154
REMARK INTRA:                  -1.188
REMARK CONF_INDEPENDENT:        0.895
REMARK UNBOUND:                -1.188
REMARK  3 active torsions:
REMARK  status: ('A' for Active; 'I' for Inactive)
REMARK    1  A    between atoms: C_5  and  C_6 
REMARK       I    between atoms: C_6  and  N_8 
REMARK    2  A    between atoms: N_8  and  N_9 
REMARK    3  A    between atoms: N_9  and  C_10 
ROOT
ATOM      1  C   UNL d   1      25.542 -15.224  -3.457  0.00  0.00     0.293 C 
ATOM      2  O   UNL d   1      24.739 -14.450  -3.992  0.00  0.00    -0.264 OA
ATOM      3  N   UNL d   1      26.846 -15.377  -3.969  0.00  0.00    -0.264 N 
ATOM      4  H   UNL d   1      27.562 -15.848  -3.428  0.00  0.00     0.190 HD
ENDROOT
BRANCH   3   5
ATOM      5  N   UNL d   1      27.315 -14.454  -4.918  0.00  0.00    -0.298 N 
ATOM      6  H   UNL d   1      26.650 -13.761  -5.268  0.00  0.00     0.187 HD
BRANCH   5   7
ATOM      7  C   UNL d   1      28.505 -14.701  -5.628  0.00  0.00     0.049 A 
ATOM      8  C   UNL d   1      29.069 -13.802  -6.545  0.00  0.00     0.031 A 
ATOM      9  C   UNL d   1      30.229 -14.128  -7.270  0.00  0.00     0.004 A 
ATOM     10  C   UNL d   1      30.825 -15.378  -7.119  0.00  0.00     0.024 A 
ATOM     11  C   UNL d   1      30.269 -16.288  -6.227  0.00  0.00     0.036 A 
ATOM     12 CL   UNL d   1      30.978 -17.850  -6.064  0.00  0.00    -0.084 Cl
ATOM     13  C   UNL d   1      29.134 -15.950  -5.477  0.00  0.00     0.054 A 
ENDBRANCH   5   7
ENDBRANCH   3   5
BRANCH   1  14
ATOM     14  C   UNL d   1      25.228 -16.045  -2.281  0.00  0.00     0.144 A 
ATOM     15  C   UNL d   1      24.034 -16.293  -1.622  0.00  0.00     0.045 A 
ATOM     16  C   UNL d   1      24.314 -17.141  -0.525  0.00  0.00     0.035 A 
ATOM     17  C   UNL d   1      25.666 -17.390  -0.556  0.00  0.00     0.050 A 
ATOM     18  C   UNL d   1      26.543 -18.200   0.328  0.00  0.00     0.076 C 
ATOM     19  O   UNL d   1      26.232 -16.735  -1.621  0.00  0.00    -0.310 OA
ENDBRANCH   1  14
TORSDOF 3
ENDMDL
