MODEL 1
REMARK VINA RESULT:    -8.860      0.000      0.000
REMARK INTER + INTRA:         -15.032
REMARK INTER:                 -12.738
REMARK INTRA:                  -2.294
REMARK CONF_INDEPENDENT:        3.878
REMARK UNBOUND:                -2.294
REMARK  13 active torsions:
REMARK  status: ('A' for Active; 'I' for Inactive)
REMARK    1  A    between atoms: C_2  and  C_3 
REMARK    2  A    between atoms: C_3  and  C_4 
REMARK    3  A    between atoms: C_4  and  C_5 
REMARK    4  A    between atoms: C_12  and  O_13 
REMARK    5  A    between atoms: O_13  and  C_14 
REMARK    6  A    between atoms: C_16  and  C_14 
REMARK    7  A    between atoms: C_16  and  N_21 
REMARK    8  A    between atoms: C_16  and  C_17 
REMARK    9  A    between atoms: C_17  and  C_18 
REMARK   10  A    between atoms: C_18  and  S_19 
REMARK       I    between atoms: N_21  and  C_22 
REMARK   11  A    between atoms: C_22  and  O_24 
REMARK   12  A    between atoms: O_24  and  C_25 
REMARK   13  A    between atoms: C_25  and  C_26 
ROOT
ATOM      1  C   UNL d   1      25.027 -15.489  -1.809  0.00  0.00     0.287 C 
ATOM      2  O   UNL d   1      23.959 -15.327  -2.395  0.00  0.00    -0.263 OA
ENDROOT
BRANCH   1   3
ATOM      3  O   UNL d   1      26.164 -14.698  -1.978  0.00  0.00    -0.275 OA
BRANCH   3   4
ATOM      4  C   UNL d   1      26.252 -13.636  -2.934  0.00  0.00     0.103 A 
ATOM      5  C   UNL d   1      26.033 -12.318  -2.427  0.00  0.00     0.077 A 
ATOM      6  C   UNL d   1      25.989 -11.226  -3.317  0.00  0.00     0.093 A 
ATOM      7  O   UNL d   1      25.743  -9.918  -2.846  0.00  0.00    -0.275 OA
ATOM      8  C   UNL d   1      26.179 -11.419  -4.672  0.00  0.00     0.006 A 
ATOM      9  C   UNL d   1      25.722  -8.826  -3.724  0.00  0.00     0.288 A 
ATOM     10  C   UNL d   1      25.893  -9.101  -5.164  0.00  0.00     0.090 A 
ATOM     11  O   UNL d   1      25.527  -7.677  -3.342  0.00  0.00    -0.260 OA
ATOM     12  C   UNL d   1      26.049 -10.339  -5.639  0.00  0.00    -0.039 A 
ATOM     13  C   UNL d   1      26.463 -12.692  -5.122  0.00  0.00     0.041 A 
ATOM     14  C   UNL d   1      26.461 -13.804  -4.311  0.00  0.00     0.069 A 
ATOM     15 CL   UNL d   1      26.623 -15.200  -5.321  0.00  0.00    -0.081 Cl
BRANCH  12  16
ATOM     16  C   UNL d   1      26.035 -10.688  -7.110  0.00  0.00     0.040 C 
BRANCH  16  17
ATOM     17  C   UNL d   1      27.480 -10.799  -7.633  0.00  0.00     0.004 C 
BRANCH  17  18
ATOM     18  C   UNL d   1      27.598 -11.824  -8.748  0.00  0.00    -0.004 C 
ATOM     19  C   UNL d   1      26.702 -11.432  -9.910  0.00  0.00     0.005 C 
ENDBRANCH  17  18
ENDBRANCH  16  17
ENDBRANCH  12  16
ENDBRANCH   3   4
ENDBRANCH   1   3
BRANCH   1  20
ATOM     20  C   UNL d   1      25.190 -16.708  -0.907  0.00  0.00     0.187 C 
BRANCH  20  21
ATOM     21  N   UNL d   1      24.262 -17.751  -1.435  0.00  0.00    -0.323 N 
ATOM     22  C   UNL d   1      23.537 -18.537  -0.547  0.00  0.00     0.361 C 
ATOM     23  O   UNL d   1      23.752 -18.575   0.658  0.00  0.00    -0.238 OA
ATOM     24  H   UNL d   1      23.870 -17.671  -2.365  0.00  0.00     0.165 HD
BRANCH  22  25
ATOM     25  O   UNL d   1      22.557 -19.242  -1.175  0.00  0.00    -0.299 OA
BRANCH  25  26
ATOM     26  C   UNL d   1      21.239 -18.638  -1.107  0.00  0.00     0.219 C 
BRANCH  26  27
ATOM     27  C   UNL d   1      20.338 -19.333  -0.095  0.00  0.00    -0.034 A 
ATOM     28  C   UNL d   1      20.640 -19.325   1.272  0.00  0.00     0.009 A 
ATOM     29  C   UNL d   1      19.888 -20.074   2.180  0.00  0.00     0.001 A 
ATOM     30  C   UNL d   1      18.771 -20.783   1.749  0.00  0.00     0.000 A 
ATOM     31  C   UNL d   1      18.425 -20.772   0.399  0.00  0.00     0.001 A 
ATOM     32  C   UNL d   1      19.209 -20.061  -0.520  0.00  0.00     0.009 A 
ENDBRANCH  26  27
ENDBRANCH  25  26
ENDBRANCH  22  25
ENDBRANCH  20  21
BRANCH  20  33
ATOM     33  C   UNL d   1      26.668 -17.142  -0.935  0.00  0.00     0.045 C 
BRANCH  33  34
ATOM     34  C   UNL d   1      27.351 -16.732   0.381  0.00  0.00     0.076 C 
BRANCH  34  35
ATOM     35  S   UNL d   1      28.391 -15.261   0.198  0.00  0.00    -0.173 SA
ATOM     36  C   UNL d   1      27.753 -14.295   1.599  0.00  0.00     0.089 C 
ENDBRANCH  34  35
ENDBRANCH  33  34
ENDBRANCH  20  33
ENDBRANCH   1  20
TORSDOF 13
ENDMDL
MODEL 2
REMARK VINA RESULT:    -8.776      3.919      5.428
REMARK INTER + INTRA:         -15.118
REMARK INTER:                 -12.654
REMARK INTRA:                  -2.464
REMARK CONF_INDEPENDENT:        3.878
REMARK UNBOUND:                -2.464
REMARK  13 active torsions:
REMARK  status: ('A' for Active; 'I' for Inactive)
REMARK    1  A    between atoms: C_2  and  C_3 
REMARK    2  A    between atoms: C_3  and  C_4 
REMARK    3  A    between atoms: C_4  and  C_5 
REMARK    4  A    between atoms: C_12  and  O_13 
REMARK    5  A    between atoms: O_13  and  C_14 
REMARK    6  A    between atoms: C_16  and  C_14 
REMARK    7  A    between atoms: C_16  and  N_21 
REMARK    8  A    between atoms: C_16  and  C_17 
REMARK    9  A    between atoms: C_17  and  C_18 
REMARK   10  A    between atoms: C_18  and  S_19 
REMARK       I    between atoms: N_21  and  C_22 
REMARK   11  A    between atoms: C_22  and  O_24 
REMARK   12  A    between atoms: O_24  and  C_25 
REMARK   13  A    between atoms: C_25  and  C_26 
ROOT
ATOM      1  C   UNL d   1      27.234 -17.661  -0.325  0.00  0.00     0.287 C 
ATOM      2  O   UNL d   1      27.155 -18.707   0.314  0.00  0.00    -0.263 OA
ENDROOT
BRANCH   1   3
ATOM      3  O   UNL d   1      28.408 -16.937  -0.540  0.00  0.00    -0.275 OA
BRANCH   3   4
ATOM      4  C   UNL d   1      29.085 -16.888  -1.800  0.00  0.00     0.103 A 
ATOM      5  C   UNL d   1      28.492 -16.053  -2.798  0.00  0.00     0.077 A 
ATOM      6  C   UNL d   1      29.029 -16.034  -4.101  0.00  0.00     0.093 A 
ATOM      7  O   UNL d   1      28.443 -15.242  -5.112  0.00  0.00    -0.275 OA
ATOM      8  C   UNL d   1      30.136 -16.799  -4.414  0.00  0.00     0.006 A 
ATOM      9  C   UNL d   1      28.987 -15.201  -6.404  0.00  0.00     0.288 A 
ATOM     10  C   UNL d   1      30.146 -16.069  -6.686  0.00  0.00     0.090 A 
ATOM     11  O   UNL d   1      28.510 -14.511  -7.298  0.00  0.00    -0.260 OA
ATOM     12  C   UNL d   1      30.667 -16.885  -5.766  0.00  0.00    -0.039 A 
ATOM     13  C   UNL d   1      30.732 -17.536  -3.411  0.00  0.00     0.041 A 
ATOM     14  C   UNL d   1      30.220 -17.641  -2.137  0.00  0.00     0.069 A 
ATOM     15 CL   UNL d   1      31.135 -18.843  -1.293  0.00  0.00    -0.081 Cl
BRANCH  12  16
ATOM     16  C   UNL d   1      31.724 -17.926  -6.059  0.00  0.00     0.040 C 
BRANCH  16  17
ATOM     17  C   UNL d   1      31.118 -19.336  -5.926  0.00  0.00     0.004 C 
BRANCH  17  18
ATOM     18  C   UNL d   1      30.406 -19.764  -7.197  0.00  0.00    -0.004 C 
ATOM     19  C   UNL d   1      31.206 -19.330  -8.413  0.00  0.00     0.005 C 
ENDBRANCH  17  18
ENDBRANCH  16  17
ENDBRANCH  12  16
ENDBRANCH   3   4
ENDBRANCH   1   3
BRANCH   1  20
ATOM     20  C   UNL d   1      25.950 -17.016  -0.837  0.00  0.00     0.187 C 
BRANCH  20  21
ATOM     21  N   UNL d   1      24.834 -17.607  -0.040  0.00  0.00    -0.323 N 
ATOM     22  C   UNL d   1      23.520 -17.385  -0.431  0.00  0.00     0.361 C 
ATOM     23  O   UNL d   1      23.193 -16.564  -1.279  0.00  0.00    -0.238 OA
ATOM     24  H   UNL d   1      24.985 -18.430   0.530  0.00  0.00     0.165 HD
BRANCH  22  25
ATOM     25  O   UNL d   1      22.649 -18.195   0.229  0.00  0.00    -0.299 OA
BRANCH  25  26
ATOM     26  C   UNL d   1      21.712 -18.900  -0.626  0.00  0.00     0.219 C 
BRANCH  26  27
ATOM     27  C   UNL d   1      20.528 -19.460   0.152  0.00  0.00    -0.034 A 
ATOM     28  C   UNL d   1      20.506 -19.442   1.552  0.00  0.00     0.009 A 
ATOM     29  C   UNL d   1      19.485 -20.075   2.264  0.00  0.00     0.001 A 
ATOM     30  C   UNL d   1      18.425 -20.671   1.588  0.00  0.00     0.000 A 
ATOM     31  C   UNL d   1      18.403 -20.666   0.195  0.00  0.00     0.001 A 
ATOM     32  C   UNL d   1      19.453 -20.074  -0.520  0.00  0.00     0.009 A 
ENDBRANCH  26  27
ENDBRANCH  25  26
ENDBRANCH  22  25
ENDBRANCH  20  21
BRANCH  20  33
ATOM     33  C   UNL d   1      26.070 -15.489  -0.672  0.00  0.00     0.045 C 
BRANCH  33  34
ATOM     34  C   UNL d   1      25.311 -14.785  -1.809  0.00  0.00     0.076 C 
BRANCH  34  35
ATOM     35  S   UNL d   1      25.546 -15.596  -3.410  0.00  0.00    -0.173 SA
ATOM     36  C   UNL d   1      25.494 -14.126  -4.476  0.00  0.00     0.089 C 
ENDBRANCH  34  35
ENDBRANCH  33  34
ENDBRANCH  20  33
ENDBRANCH   1  20
TORSDOF 13
ENDMDL
MODEL 3
REMARK VINA RESULT:    -8.763      4.474      9.632
REMARK INTER + INTRA:         -15.018
REMARK INTER:                 -12.641
REMARK INTRA:                  -2.377
REMARK CONF_INDEPENDENT:        3.878
REMARK UNBOUND:                -2.377
REMARK  13 active torsions:
REMARK  status: ('A' for Active; 'I' for Inactive)
REMARK    1  A    between atoms: C_2  and  C_3 
REMARK    2  A    between atoms: C_3  and  C_4 
REMARK    3  A    between atoms: C_4  and  C_5 
REMARK    4  A    between atoms: C_12  and  O_13 
REMARK    5  A    between atoms: O_13  and  C_14 
REMARK    6  A    between atoms: C_16  and  C_14 
REMARK    7  A    between atoms: C_16  and  N_21 
REMARK    8  A    between atoms: C_16  and  C_17 
REMARK    9  A    between atoms: C_17  and  C_18 
REMARK   10  A    between atoms: C_18  and  S_19 
REMARK       I    between atoms: N_21  and  C_22 
REMARK   11  A    between atoms: C_22  and  O_24 
REMARK   12  A    between atoms: O_24  and  C_25 
REMARK   13  A    between atoms: C_25  and  C_26 
ROOT
ATOM      1  C   UNL d   1      28.208 -14.604  -5.302  0.00  0.00     0.287 C 
ATOM      2  O   UNL d   1      27.664 -15.575  -5.823  0.00  0.00    -0.263 OA
ENDROOT
BRANCH   1   3
ATOM      3  O   UNL d   1      27.982 -14.161  -3.998  0.00  0.00    -0.275 OA
BRANCH   3   4
ATOM      4  C   UNL d   1      27.059 -14.787  -3.101  0.00  0.00     0.103 A 
ATOM      5  C   UNL d   1      27.622 -15.715  -2.171  0.00  0.00     0.077 A 
ATOM      6  C   UNL d   1      26.773 -16.460  -1.329  0.00  0.00     0.093 A 
ATOM      7  O   UNL d   1      27.301 -17.407  -0.424  0.00  0.00    -0.275 OA
ATOM      8  C   UNL d   1      25.403 -16.282  -1.378  0.00  0.00     0.006 A 
ATOM      9  C   UNL d   1      26.462 -18.133   0.434  0.00  0.00     0.288 A 
ATOM     10  C   UNL d   1      25.007 -17.926   0.306  0.00  0.00     0.090 A 
ATOM     11  O   UNL d   1      26.894 -18.949   1.241  0.00  0.00    -0.260 OA
ATOM     12  C   UNL d   1      24.482 -17.094  -0.597  0.00  0.00    -0.039 A 
ATOM     13  C   UNL d   1      24.895 -15.324  -2.232  0.00  0.00     0.041 A 
ATOM     14  C   UNL d   1      25.668 -14.609  -3.120  0.00  0.00     0.069 A 
ATOM     15 CL   UNL d   1      24.603 -13.713  -4.148  0.00  0.00    -0.081 Cl
BRANCH  12  16
ATOM     16  C   UNL d   1      23.003 -16.992  -0.894  0.00  0.00     0.040 C 
BRANCH  16  17
ATOM     17  C   UNL d   1      22.416 -18.400  -1.108  0.00  0.00     0.004 C 
BRANCH  17  18
ATOM     18  C   UNL d   1      21.778 -18.942   0.159  0.00  0.00    -0.004 C 
ATOM     19  C   UNL d   1      20.461 -19.621  -0.173  0.00  0.00     0.005 C 
ENDBRANCH  17  18
ENDBRANCH  16  17
ENDBRANCH  12  16
ENDBRANCH   3   4
ENDBRANCH   1   3
BRANCH   1  20
ATOM     20  C   UNL d   1      29.119 -13.729  -6.156  0.00  0.00     0.187 C 
BRANCH  20  21
ATOM     21  N   UNL d   1      29.677 -14.613  -7.222  0.00  0.00    -0.323 N 
ATOM     22  C   UNL d   1      30.994 -15.045  -7.135  0.00  0.00     0.361 C 
ATOM     23  O   UNL d   1      31.808 -14.588  -6.341  0.00  0.00    -0.238 OA
ATOM     24  H   UNL d   1      29.066 -15.191  -7.786  0.00  0.00     0.165 HD
BRANCH  22  25
ATOM     25  O   UNL d   1      31.264 -16.040  -8.022  0.00  0.00    -0.299 OA
BRANCH  25  26
ATOM     26  C   UNL d   1      32.191 -17.047  -7.540  0.00  0.00     0.219 C 
BRANCH  26  27
ATOM     27  C   UNL d   1      31.499 -18.114  -6.702  0.00  0.00    -0.034 A 
ATOM     28  C   UNL d   1      30.919 -17.805  -5.467  0.00  0.00     0.009 A 
ATOM     29  C   UNL d   1      30.405 -18.808  -4.642  0.00  0.00     0.001 A 
ATOM     30  C   UNL d   1      30.390 -20.131  -5.072  0.00  0.00     0.000 A 
ATOM     31  C   UNL d   1      30.924 -20.458  -6.316  0.00  0.00     0.001 A 
ATOM     32  C   UNL d   1      31.485 -19.459  -7.124  0.00  0.00     0.009 A 
ENDBRANCH  26  27
ENDBRANCH  25  26
ENDBRANCH  22  25
ENDBRANCH  20  21
BRANCH  20  33
ATOM     33  C   UNL d   1      28.287 -12.558  -6.715  0.00  0.00     0.045 C 
BRANCH  33  34
ATOM     34  C   UNL d   1      27.662 -11.768  -5.552  0.00  0.00     0.076 C 
BRANCH  34  35
ATOM     35  S   UNL d   1      25.998 -11.166  -5.934  0.00  0.00    -0.173 SA
ATOM     36  C   UNL d   1      26.281 -10.642  -7.650  0.00  0.00     0.089 C 
ENDBRANCH  34  35
ENDBRANCH  33  34
ENDBRANCH  20  33
ENDBRANCH   1  20
TORSDOF 13
ENDMDL
MODEL 4
REMARK VINA RESULT:    -8.450      2.373      3.903
REMARK INTER + INTRA:         -14.887
REMARK INTER:                 -12.328
REMARK INTRA:                  -2.559
REMARK CONF_INDEPENDENT:        3.878
REMARK UNBOUND:                -2.559
REMARK  13 active torsions:
REMARK  status: ('A' for Active; 'I' for Inactive)
REMARK    1  A    between atoms: C_2  and  C_3 
REMARK    2  A    between atoms: C_3  and  C_4 
REMARK    3  A    between atoms: C_4  and  C_5 
REMARK    4  A    between atoms: C_12  and  O_13 
REMARK    5  A    between atoms: O_13  and  C_14 
REMARK    6  A    between atoms: C_16  and  C_14 
REMARK    7  A    between atoms: C_16  and  N_21 
REMARK    8  A    between atoms: C_16  and  C_17 
REMARK    9  A    between atoms: C_17  and  C_18 
REMARK   10  A    between atoms: C_18  and  S_19 
REMARK       I    between atoms: N_21  and  C_22 
REMARK   11  A    between atoms: C_22  and  O_24 
REMARK   12  A    between atoms: O_24  and  C_25 
REMARK   13  A    between atoms: C_25  and  C_26 
ROOT
ATOM      1  C   UNL d   1      25.019 -15.228  -2.071  0.00  0.00     0.287 C 
ATOM      2  O   UNL d   1      24.021 -15.001  -2.750  0.00  0.00    -0.263 OA
ENDROOT
BRANCH   1   3
ATOM      3  O   UNL d   1      26.245 -14.572  -2.200  0.00  0.00    -0.275 OA
BRANCH   3   4
ATOM      4  C   UNL d   1      26.968 -14.486  -3.432  0.00  0.00     0.103 A 
ATOM      5  C   UNL d   1      27.852 -15.573  -3.717  0.00  0.00     0.077 A 
ATOM      6  C   UNL d   1      28.686 -15.516  -4.851  0.00  0.00     0.093 A 
ATOM      7  O   UNL d   1      29.590 -16.562  -5.137  0.00  0.00    -0.275 OA
ATOM      8  C   UNL d   1      28.637 -14.429  -5.702  0.00  0.00     0.006 A 
ATOM      9  C   UNL d   1      30.404 -16.521  -6.278  0.00  0.00     0.288 A 
ATOM     10  C   UNL d   1      30.335 -15.317  -7.126  0.00  0.00     0.090 A 
ATOM     11  O   UNL d   1      31.187 -17.422  -6.560  0.00  0.00    -0.260 OA
ATOM     12  C   UNL d   1      29.544 -14.282  -6.831  0.00  0.00    -0.039 A 
ATOM     13  C   UNL d   1      27.720 -13.430  -5.443  0.00  0.00     0.041 A 
ATOM     14  C   UNL d   1      26.923 -13.402  -4.321  0.00  0.00     0.069 A 
ATOM     15 CL   UNL d   1      26.118 -11.871  -4.280  0.00  0.00    -0.081 Cl
BRANCH  12  16
ATOM     16  C   UNL d   1      29.579 -12.956  -7.558  0.00  0.00     0.040 C 
BRANCH  16  17
ATOM     17  C   UNL d   1      28.528 -12.950  -8.684  0.00  0.00     0.004 C 
BRANCH  17  18
ATOM     18  C   UNL d   1      28.132 -11.537  -9.076  0.00  0.00    -0.004 C 
ATOM     19  C   UNL d   1      28.004 -10.670  -7.835  0.00  0.00     0.005 C 
ENDBRANCH  17  18
ENDBRANCH  16  17
ENDBRANCH  12  16
ENDBRANCH   3   4
ENDBRANCH   1   3
BRANCH   1  20
ATOM     20  C   UNL d   1      24.985 -16.388  -1.081  0.00  0.00     0.187 C 
BRANCH  20  21
ATOM     21  N   UNL d   1      23.966 -17.351  -1.595  0.00  0.00    -0.323 N 
ATOM     22  C   UNL d   1      23.610 -18.449  -0.822  0.00  0.00     0.361 C 
ATOM     23  O   UNL d   1      24.221 -18.803   0.178  0.00  0.00    -0.238 OA
ATOM     24  H   UNL d   1      23.280 -17.060  -2.280  0.00  0.00     0.165 HD
BRANCH  22  25
ATOM     25  O   UNL d   1      22.498 -19.069  -1.301  0.00  0.00    -0.299 OA
BRANCH  25  26
ATOM     26  C   UNL d   1      21.245 -18.437  -0.932  0.00  0.00     0.219 C 
BRANCH  26  27
ATOM     27  C   UNL d   1      20.402 -19.316  -0.018  0.00  0.00    -0.034 A 
ATOM     28  C   UNL d   1      19.338 -20.075  -0.520  0.00  0.00     0.009 A 
ATOM     29  C   UNL d   1      18.485 -20.774   0.338  0.00  0.00     0.001 A 
ATOM     30  C   UNL d   1      18.727 -20.789   1.708  0.00  0.00     0.000 A 
ATOM     31  C   UNL d   1      19.805 -20.075   2.227  0.00  0.00     0.001 A 
ATOM     32  C   UNL d   1      20.632 -19.334   1.373  0.00  0.00     0.009 A 
ENDBRANCH  26  27
ENDBRANCH  25  26
ENDBRANCH  22  25
ENDBRANCH  20  21
BRANCH  20  33
ATOM     33  C   UNL d   1      26.399 -16.994  -0.990  0.00  0.00     0.045 C 
BRANCH  33  34
ATOM     34  C   UNL d   1      27.077 -16.527   0.310  0.00  0.00     0.076 C 
BRANCH  34  35
ATOM     35  S   UNL d   1      28.786 -15.991   0.050  0.00  0.00    -0.173 SA
ATOM     36  C   UNL d   1      29.363 -17.384  -0.964  0.00  0.00     0.089 C 
ENDBRANCH  34  35
ENDBRANCH  33  34
ENDBRANCH  20  33
ENDBRANCH   1  20
TORSDOF 13
ENDMDL
MODEL 5
REMARK VINA RESULT:    -8.139      3.032      9.960
REMARK INTER + INTRA:         -14.569
REMARK INTER:                 -12.016
REMARK INTRA:                  -2.552
REMARK CONF_INDEPENDENT:        3.878
REMARK UNBOUND:                -2.552
REMARK  13 active torsions:
REMARK  status: ('A' for Active; 'I' for Inactive)
REMARK    1  A    between atoms: C_2  and  C_3 
REMARK    2  A    between atoms: C_3  and  C_4 
REMARK    3  A    between atoms: C_4  and  C_5 
REMARK    4  A    between atoms: C_12  and  O_13 
REMARK    5  A    between atoms: O_13  and  C_14 
REMARK    6  A    between atoms: C_16  and  C_14 
REMARK    7  A    between atoms: C_16  and  N_21 
REMARK    8  A    between atoms: C_16  and  C_17 
REMARK    9  A    between atoms: C_17  and  C_18 
REMARK   10  A    between atoms: C_18  and  S_19 
REMARK       I    between atoms: N_21  and  C_22 
REMARK   11  A    between atoms: C_22  and  O_24 
REMARK   12  A    between atoms: O_24  and  C_25 
REMARK   13  A    between atoms: C_25  and  C_26 
ROOT
ATOM      1  C   UNL d   1      27.752 -14.294  -5.330  0.00  0.00     0.287 C 
ATOM      2  O   UNL d   1      27.705 -15.389  -5.885  0.00  0.00    -0.263 OA
ENDROOT
BRANCH   1   3
ATOM      3  O   UNL d   1      27.745 -14.093  -3.948  0.00  0.00    -0.275 OA
BRANCH   3   4
ATOM      4  C   UNL d   1      26.883 -14.803  -3.052  0.00  0.00     0.103 A 
ATOM      5  C   UNL d   1      27.511 -15.782  -2.223  0.00  0.00     0.077 A 
ATOM      6  C   UNL d   1      26.723 -16.605  -1.394  0.00  0.00     0.093 A 
ATOM      7  O   UNL d   1      27.317 -17.601  -0.588  0.00  0.00    -0.275 OA
ATOM      8  C   UNL d   1      25.350 -16.454  -1.360  0.00  0.00     0.006 A 
ATOM      9  C   UNL d   1      26.538 -18.405   0.257  0.00  0.00     0.288 A 
ATOM     10  C   UNL d   1      25.075 -18.223   0.219  0.00  0.00     0.090 A 
ATOM     11  O   UNL d   1      27.027 -19.267   0.979  0.00  0.00    -0.260 OA
ATOM     12  C   UNL d   1      24.487 -17.341  -0.593  0.00  0.00    -0.039 A 
ATOM     13  C   UNL d   1      24.779 -15.450  -2.115  0.00  0.00     0.041 A 
ATOM     14  C   UNL d   1      25.489 -14.656  -2.987  0.00  0.00     0.069 A 
ATOM     15 CL   UNL d   1      24.355 -13.713  -3.892  0.00  0.00    -0.081 Cl
BRANCH  12  16
ATOM     16  C   UNL d   1      22.992 -17.252  -0.806  0.00  0.00     0.040 C 
BRANCH  16  17
ATOM     17  C   UNL d   1      22.376 -18.664  -0.769  0.00  0.00     0.004 C 
BRANCH  17  18
ATOM     18  C   UNL d   1      20.862 -18.620  -0.888  0.00  0.00    -0.004 C 
ATOM     19  C   UNL d   1      20.247 -19.779  -0.124  0.00  0.00     0.005 C 
ENDBRANCH  17  18
ENDBRANCH  16  17
ENDBRANCH  12  16
ENDBRANCH   3   4
ENDBRANCH   1   3
BRANCH   1  20
ATOM     20  C   UNL d   1      27.698 -13.034  -6.187  0.00  0.00     0.187 C 
BRANCH  20  21
ATOM     21  N   UNL d   1      27.189 -11.943  -5.303  0.00  0.00    -0.323 N 
ATOM     22  C   UNL d   1      26.104 -11.178  -5.713  0.00  0.00     0.361 C 
ATOM     23  O   UNL d   1      25.650 -11.199  -6.850  0.00  0.00    -0.238 OA
ATOM     24  H   UNL d   1      27.348 -11.972  -4.304  0.00  0.00     0.165 HD
BRANCH  22  25
ATOM     25  O   UNL d   1      25.604 -10.420  -4.701  0.00  0.00    -0.299 OA
BRANCH  25  26
ATOM     26  C   UNL d   1      26.005  -9.026  -4.732  0.00  0.00     0.219 C 
BRANCH  26  27
ATOM     27  C   UNL d   1      24.968  -8.142  -5.413  0.00  0.00    -0.034 A 
ATOM     28  C   UNL d   1      25.337  -7.215  -6.394  0.00  0.00     0.009 A 
ATOM     29  C   UNL d   1      24.408  -6.315  -6.919  0.00  0.00     0.001 A 
ATOM     30  C   UNL d   1      23.074  -6.376  -6.529  0.00  0.00     0.000 A 
ATOM     31  C   UNL d   1      22.674  -7.319  -5.584  0.00  0.00     0.001 A 
ATOM     32  C   UNL d   1      23.616  -8.190  -5.020  0.00  0.00     0.009 A 
ENDBRANCH  26  27
ENDBRANCH  25  26
ENDBRANCH  22  25
ENDBRANCH  20  21
BRANCH  20  33
ATOM     33  C   UNL d   1      29.110 -12.757  -6.737  0.00  0.00     0.045 C 
BRANCH  33  34
ATOM     34  C   UNL d   1      30.162 -13.186  -5.699  0.00  0.00     0.076 C 
BRANCH  34  35
ATOM     35  S   UNL d   1      31.488 -14.183  -6.422  0.00  0.00    -0.173 SA
ATOM     36  C   UNL d   1      30.513 -15.642  -6.893  0.00  0.00     0.089 C 
ENDBRANCH  34  35
ENDBRANCH  33  34
ENDBRANCH  20  33
ENDBRANCH   1  20
TORSDOF 13
ENDMDL
MODEL 6
REMARK VINA RESULT:    -7.588      3.940      8.706
REMARK INTER + INTRA:         -14.923
REMARK INTER:                 -11.466
REMARK INTRA:                  -3.458
REMARK CONF_INDEPENDENT:        3.878
REMARK UNBOUND:                -3.458
REMARK  13 active torsions:
REMARK  status: ('A' for Active; 'I' for Inactive)
REMARK    1  A    between atoms: C_2  and  C_3 
REMARK    2  A    between atoms: C_3  and  C_4 
REMARK    3  A    between atoms: C_4  and  C_5 
REMARK    4  A    between atoms: C_12  and  O_13 
REMARK    5  A    between atoms: O_13  and  C_14 
REMARK    6  A    between atoms: C_16  and  C_14 
REMARK    7  A    between atoms: C_16  and  N_21 
REMARK    8  A    between atoms: C_16  and  C_17 
REMARK    9  A    between atoms: C_17  and  C_18 
REMARK   10  A    between atoms: C_18  and  S_19 
REMARK       I    between atoms: N_21  and  C_22 
REMARK   11  A    between atoms: C_22  and  O_24 
REMARK   12  A    between atoms: O_24  and  C_25 
REMARK   13  A    between atoms: C_25  and  C_26 
ROOT
ATOM      1  C   UNL d   1      28.409 -14.991  -5.246  0.00  0.00     0.287 C 
ATOM      2  O   UNL d   1      27.780 -15.540  -6.148  0.00  0.00    -0.263 OA
ENDROOT
BRANCH   1   3
ATOM      3  O   UNL d   1      27.839 -14.310  -4.169  0.00  0.00    -0.275 OA
BRANCH   3   4
ATOM      4  C   UNL d   1      26.979 -14.932  -3.208  0.00  0.00     0.103 A 
ATOM      5  C   UNL d   1      27.583 -15.926  -2.378  0.00  0.00     0.077 A 
ATOM      6  C   UNL d   1      26.784 -16.667  -1.484  0.00  0.00     0.093 A 
ATOM      7  O   UNL d   1      27.351 -17.676  -0.675  0.00  0.00    -0.275 OA
ATOM      8  C   UNL d   1      25.428 -16.423  -1.388  0.00  0.00     0.006 A 
ATOM      9  C   UNL d   1      26.566 -18.400   0.234  0.00  0.00     0.288 A 
ATOM     10  C   UNL d   1      25.117 -18.120   0.261  0.00  0.00     0.090 A 
ATOM     11  O   UNL d   1      27.032 -19.270   0.960  0.00  0.00    -0.260 OA
ATOM     12  C   UNL d   1      24.549 -17.226  -0.551  0.00  0.00    -0.039 A 
ATOM     13  C   UNL d   1      24.887 -15.406  -2.149  0.00  0.00     0.041 A 
ATOM     14  C   UNL d   1      25.603 -14.689  -3.080  0.00  0.00     0.069 A 
ATOM     15 CL   UNL d   1      24.489 -13.700  -3.961  0.00  0.00    -0.081 Cl
BRANCH  12  16
ATOM     16  C   UNL d   1      23.054 -17.043  -0.694  0.00  0.00     0.040 C 
BRANCH  16  17
ATOM     17  C   UNL d   1      22.321 -18.265  -0.108  0.00  0.00     0.004 C 
BRANCH  17  18
ATOM     18  C   UNL d   1      21.339 -18.861  -1.102  0.00  0.00    -0.004 C 
ATOM     19  C   UNL d   1      20.116 -19.387  -0.371  0.00  0.00     0.005 C 
ENDBRANCH  17  18
ENDBRANCH  16  17
ENDBRANCH  12  16
ENDBRANCH   3   4
ENDBRANCH   1   3
BRANCH   1  20
ATOM     20  C   UNL d   1      29.929 -14.933  -5.343  0.00  0.00     0.187 C 
BRANCH  20  21
ATOM     21  N   UNL d   1      30.446 -15.049  -3.947  0.00  0.00    -0.323 N 
ATOM     22  C   UNL d   1      30.607 -13.904  -3.178  0.00  0.00     0.361 C 
ATOM     23  O   UNL d   1      30.545 -12.767  -3.630  0.00  0.00    -0.238 OA
ATOM     24  H   UNL d   1      30.340 -15.911  -3.427  0.00  0.00     0.165 HD
BRANCH  22  25
ATOM     25  O   UNL d   1      30.827 -14.197  -1.868  0.00  0.00    -0.299 OA
BRANCH  25  26
ATOM     26  C   UNL d   1      30.435 -13.152  -0.940  0.00  0.00     0.219 C 
BRANCH  26  27
ATOM     27  C   UNL d   1      29.119 -13.466  -0.239  0.00  0.00    -0.034 A 
ATOM     28  C   UNL d   1      29.040 -14.457   0.746  0.00  0.00     0.009 A 
ATOM     29  C   UNL d   1      27.809 -14.834   1.289  0.00  0.00     0.001 A 
ATOM     30  C   UNL d   1      26.644 -14.174   0.913  0.00  0.00     0.000 A 
ATOM     31  C   UNL d   1      26.703 -13.155  -0.036  0.00  0.00     0.001 A 
ATOM     32  C   UNL d   1      27.931 -12.809  -0.617  0.00  0.00     0.009 A 
ENDBRANCH  26  27
ENDBRANCH  25  26
ENDBRANCH  22  25
ENDBRANCH  20  21
BRANCH  20  33
ATOM     33  C   UNL d   1      30.405 -16.075  -6.262  0.00  0.00     0.045 C 
BRANCH  33  34
ATOM     34  C   UNL d   1      30.262 -17.420  -5.529  0.00  0.00     0.076 C 
BRANCH  34  35
ATOM     35  S   UNL d   1      30.818 -18.821  -6.530  0.00  0.00    -0.173 SA
ATOM     36  C   UNL d   1      30.400 -20.166  -5.382  0.00  0.00     0.089 C 
ENDBRANCH  34  35
ENDBRANCH  33  34
ENDBRANCH  20  33
ENDBRANCH   1  20
TORSDOF 13
ENDMDL
MODEL 7
REMARK VINA RESULT:    -7.056      3.782      7.440
REMARK INTER + INTRA:         -14.722
REMARK INTER:                 -10.934
REMARK INTRA:                  -3.788
REMARK CONF_INDEPENDENT:        3.878
REMARK UNBOUND:                -3.788
REMARK  13 active torsions:
REMARK  status: ('A' for Active; 'I' for Inactive)
REMARK    1  A    between atoms: C_2  and  C_3 
REMARK    2  A    between atoms: C_3  and  C_4 
REMARK    3  A    between atoms: C_4  and  C_5 
REMARK    4  A    between atoms: C_12  and  O_13 
REMARK    5  A    between atoms: O_13  and  C_14 
REMARK    6  A    between atoms: C_16  and  C_14 
REMARK    7  A    between atoms: C_16  and  N_21 
REMARK    8  A    between atoms: C_16  and  C_17 
REMARK    9  A    between atoms: C_17  and  C_18 
REMARK   10  A    between atoms: C_18  and  S_19 
REMARK       I    between atoms: N_21  and  C_22 
REMARK   11  A    between atoms: C_22  and  O_24 
REMARK   12  A    between atoms: O_24  and  C_25 
REMARK   13  A    between atoms: C_25  and  C_26 
ROOT
ATOM      1  C   UNL d   1      29.286 -15.680  -3.712  0.00  0.00     0.287 C 
ATOM      2  O   UNL d   1      29.850 -16.755  -3.524  0.00  0.00    -0.263 OA
ENDROOT
BRANCH   1   3
ATOM      3  O   UNL d   1      29.423 -14.549  -2.905  0.00  0.00    -0.275 OA
BRANCH   3   4
ATOM      4  C   UNL d   1      28.917 -14.469  -1.567  0.00  0.00     0.103 A 
ATOM      5  C   UNL d   1      28.250 -13.253  -1.223  0.00  0.00     0.077 A 
ATOM      6  C   UNL d   1      27.822 -13.044   0.104  0.00  0.00     0.093 A 
ATOM      7  O   UNL d   1      27.189 -11.838   0.477  0.00  0.00    -0.275 OA
ATOM      8  C   UNL d   1      28.021 -14.015   1.066  0.00  0.00     0.006 A 
ATOM      9  C   UNL d   1      26.739 -11.635   1.790  0.00  0.00     0.288 A 
ATOM     10  C   UNL d   1      27.016 -12.693   2.780  0.00  0.00     0.090 A 
ATOM     11  O   UNL d   1      26.172 -10.606   2.140  0.00  0.00    -0.260 OA
ATOM     12  C   UNL d   1      27.682 -13.807   2.466  0.00  0.00    -0.039 A 
ATOM     13  C   UNL d   1      28.600 -15.209   0.686  0.00  0.00     0.041 A 
ATOM     14  C   UNL d   1      29.091 -15.448  -0.578  0.00  0.00     0.069 A 
ATOM     15 CL   UNL d   1      29.938 -16.957  -0.543  0.00  0.00    -0.081 Cl
BRANCH  12  16
ATOM     16  C   UNL d   1      28.155 -14.825   3.480  0.00  0.00     0.040 C 
BRANCH  16  17
ATOM     17  C   UNL d   1      27.580 -14.483   4.868  0.00  0.00     0.004 C 
BRANCH  17  18
ATOM     18  C   UNL d   1      28.669 -14.408   5.924  0.00  0.00    -0.004 C 
ATOM     19  C   UNL d   1      30.028 -14.270   5.260  0.00  0.00     0.005 C 
ENDBRANCH  17  18
ENDBRANCH  16  17
ENDBRANCH  12  16
ENDBRANCH   3   4
ENDBRANCH   1   3
BRANCH   1  20
ATOM     20  C   UNL d   1      28.264 -15.575  -4.839  0.00  0.00     0.187 C 
BRANCH  20  21
ATOM     21  N   UNL d   1      27.115 -14.792  -4.295  0.00  0.00    -0.323 N 
ATOM     22  C   UNL d   1      25.816 -15.199  -4.570  0.00  0.00     0.361 C 
ATOM     23  O   UNL d   1      25.534 -16.052  -5.403  0.00  0.00    -0.238 OA
ATOM     24  H   UNL d   1      27.225 -14.221  -3.467  0.00  0.00     0.165 HD
BRANCH  22  25
ATOM     25  O   UNL d   1      24.904 -14.551  -3.797  0.00  0.00    -0.299 OA
BRANCH  25  26
ATOM     26  C   UNL d   1      25.259 -14.456  -2.393  0.00  0.00     0.219 C 
BRANCH  26  27
ATOM     27  C   UNL d   1      25.081 -15.780  -1.661  0.00  0.00    -0.034 A 
ATOM     28  C   UNL d   1      23.812 -16.238  -1.289  0.00  0.00     0.009 A 
ATOM     29  C   UNL d   1      23.662 -17.383  -0.503  0.00  0.00     0.001 A 
ATOM     30  C   UNL d   1      24.775 -18.135  -0.139  0.00  0.00     0.000 A 
ATOM     31  C   UNL d   1      26.046 -17.721  -0.533  0.00  0.00     0.001 A 
ATOM     32  C   UNL d   1      26.201 -16.546  -1.281  0.00  0.00     0.009 A 
ENDBRANCH  26  27
ENDBRANCH  25  26
ENDBRANCH  22  25
ENDBRANCH  20  21
BRANCH  20  33
ATOM     33  C   UNL d   1      28.938 -14.900  -6.048  0.00  0.00     0.045 C 
BRANCH  33  34
ATOM     34  C   UNL d   1      28.101 -13.690  -6.497  0.00  0.00     0.076 C 
BRANCH  34  35
ATOM     35  S   UNL d   1      28.514 -12.181  -5.587  0.00  0.00    -0.173 SA
ATOM     36  C   UNL d   1      26.879 -11.830  -4.877  0.00  0.00     0.089 C 
ENDBRANCH  34  35
ENDBRANCH  33  34
ENDBRANCH  20  33
ENDBRANCH   1  20
TORSDOF 13
ENDMDL
MODEL 8
REMARK VINA RESULT:    -6.829      3.013      8.774
REMARK INTER + INTRA:         -15.004
REMARK INTER:                 -10.707
REMARK INTRA:                  -4.297
REMARK CONF_INDEPENDENT:        3.878
REMARK UNBOUND:                -4.297
REMARK  13 active torsions:
REMARK  status: ('A' for Active; 'I' for Inactive)
REMARK    1  A    between atoms: C_2  and  C_3 
REMARK    2  A    between atoms: C_3  and  C_4 
REMARK    3  A    between atoms: C_4  and  C_5 
REMARK    4  A    between atoms: C_12  and  O_13 
REMARK    5  A    between atoms: O_13  and  C_14 
REMARK    6  A    between atoms: C_16  and  C_14 
REMARK    7  A    between atoms: C_16  and  N_21 
REMARK    8  A    between atoms: C_16  and  C_17 
REMARK    9  A    between atoms: C_17  and  C_18 
REMARK   10  A    between atoms: C_18  and  S_19 
REMARK       I    between atoms: N_21  and  C_22 
REMARK   11  A    between atoms: C_22  and  O_24 
REMARK   12  A    between atoms: O_24  and  C_25 
REMARK   13  A    between atoms: C_25  and  C_26 
ROOT
ATOM      1  C   UNL d   1      27.704 -14.581  -5.454  0.00  0.00     0.287 C 
ATOM      2  O   UNL d   1      27.034 -15.348  -6.141  0.00  0.00    -0.263 OA
ENDROOT
BRANCH   1   3
ATOM      3  O   UNL d   1      28.083 -14.811  -4.131  0.00  0.00    -0.275 OA
BRANCH   3   4
ATOM      4  C   UNL d   1      27.192 -15.317  -3.131  0.00  0.00     0.103 A 
ATOM      5  C   UNL d   1      27.746 -16.272  -2.223  0.00  0.00     0.077 A 
ATOM      6  C   UNL d   1      26.912 -16.906  -1.281  0.00  0.00     0.093 A 
ATOM      7  O   UNL d   1      27.429 -17.876  -0.394  0.00  0.00    -0.275 OA
ATOM      8  C   UNL d   1      25.568 -16.592  -1.213  0.00  0.00     0.006 A 
ATOM      9  C   UNL d   1      26.608 -18.490   0.562  0.00  0.00     0.288 A 
ATOM     10  C   UNL d   1      25.174 -18.143   0.559  0.00  0.00     0.090 A 
ATOM     11  O   UNL d   1      27.031 -19.324   1.355  0.00  0.00    -0.260 OA
ATOM     12  C   UNL d   1      24.650 -17.287  -0.322  0.00  0.00    -0.039 A 
ATOM     13  C   UNL d   1      25.077 -15.612  -2.051  0.00  0.00     0.041 A 
ATOM     14  C   UNL d   1      25.829 -15.002  -3.030  0.00  0.00     0.069 A 
ATOM     15 CL   UNL d   1      24.765 -14.032  -3.990  0.00  0.00    -0.081 Cl
BRANCH  12  16
ATOM     16  C   UNL d   1      23.166 -17.046  -0.488  0.00  0.00     0.040 C 
BRANCH  16  17
ATOM     17  C   UNL d   1      22.516 -18.257  -1.184  0.00  0.00     0.004 C 
BRANCH  17  18
ATOM     18  C   UNL d   1      21.947 -19.244  -0.179  0.00  0.00    -0.004 C 
ATOM     19  C   UNL d   1      20.436 -19.316  -0.320  0.00  0.00     0.005 C 
ENDBRANCH  17  18
ENDBRANCH  16  17
ENDBRANCH  12  16
ENDBRANCH   3   4
ENDBRANCH   1   3
BRANCH   1  20
ATOM     20  C   UNL d   1      28.066 -13.214  -6.023  0.00  0.00     0.187 C 
BRANCH  20  21
ATOM     21  N   UNL d   1      28.375 -12.338  -4.854  0.00  0.00    -0.323 N 
ATOM     22  C   UNL d   1      27.452 -11.381  -4.452  0.00  0.00     0.361 C 
ATOM     23  O   UNL d   1      26.473 -11.060  -5.115  0.00  0.00    -0.238 OA
ATOM     24  H   UNL d   1      29.028 -12.638  -4.142  0.00  0.00     0.165 HD
BRANCH  22  25
ATOM     25  O   UNL d   1      27.758 -10.858  -3.234  0.00  0.00    -0.299 OA
BRANCH  25  26
ATOM     26  C   UNL d   1      26.850 -11.236  -2.167  0.00  0.00     0.219 C 
BRANCH  26  27
ATOM     27  C   UNL d   1      27.451 -12.288  -1.243  0.00  0.00    -0.034 A 
ATOM     28  C   UNL d   1      28.785 -12.691  -1.373  0.00  0.00     0.009 A 
ATOM     29  C   UNL d   1      29.295 -13.748  -0.615  0.00  0.00     0.001 A 
ATOM     30  C   UNL d   1      28.501 -14.370   0.343  0.00  0.00     0.000 A 
ATOM     31  C   UNL d   1      27.182 -13.958   0.521  0.00  0.00     0.001 A 
ATOM     32  C   UNL d   1      26.655 -12.931  -0.274  0.00  0.00     0.009 A 
ENDBRANCH  26  27
ENDBRANCH  25  26
ENDBRANCH  22  25
ENDBRANCH  20  21
BRANCH  20  33
ATOM     33  C   UNL d   1      29.260 -13.385  -6.983  0.00  0.00     0.045 C 
BRANCH  33  34
ATOM     34  C   UNL d   1      29.965 -14.722  -6.696  0.00  0.00     0.076 C 
BRANCH  34  35
ATOM     35  S   UNL d   1      31.590 -14.503  -5.929  0.00  0.00    -0.173 SA
ATOM     36  C   UNL d   1      31.054 -14.254  -4.211  0.00  0.00     0.089 C 
ENDBRANCH  34  35
ENDBRANCH  33  34
ENDBRANCH  20  33
ENDBRANCH   1  20
TORSDOF 13
ENDMDL
MODEL 9
REMARK VINA RESULT:    -6.735      2.709      6.839
REMARK INTER + INTRA:         -14.566
REMARK INTER:                 -10.613
REMARK INTRA:                  -3.953
REMARK CONF_INDEPENDENT:        3.878
REMARK UNBOUND:                -3.953
REMARK  13 active torsions:
REMARK  status: ('A' for Active; 'I' for Inactive)
REMARK    1  A    between atoms: C_2  and  C_3 
REMARK    2  A    between atoms: C_3  and  C_4 
REMARK    3  A    between atoms: C_4  and  C_5 
REMARK    4  A    between atoms: C_12  and  O_13 
REMARK    5  A    between atoms: O_13  and  C_14 
REMARK    6  A    between atoms: C_16  and  C_14 
REMARK    7  A    between atoms: C_16  and  N_21 
REMARK    8  A    between atoms: C_16  and  C_17 
REMARK    9  A    between atoms: C_17  and  C_18 
REMARK   10  A    between atoms: C_18  and  S_19 
REMARK       I    between atoms: N_21  and  C_22 
REMARK   11  A    between atoms: C_22  and  O_24 
REMARK   12  A    between atoms: O_24  and  C_25 
REMARK   13  A    between atoms: C_25  and  C_26 
ROOT
ATOM      1  C   UNL d   1      26.297 -17.976   0.464  0.00  0.00     0.287 C 
ATOM      2  O   UNL d   1      26.308 -18.577   1.535  0.00  0.00    -0.263 OA
ENDROOT
BRANCH   1   3
ATOM      3  O   UNL d   1      27.424 -17.459  -0.178  0.00  0.00    -0.275 OA
BRANCH   3   4
ATOM      4  C   UNL d   1      27.658 -16.058  -0.356  0.00  0.00     0.103 A 
ATOM      5  C   UNL d   1      27.135 -15.202   0.663  0.00  0.00     0.077 A 
ATOM      6  C   UNL d   1      27.220 -13.803   0.511  0.00  0.00     0.093 A 
ATOM      7  O   UNL d   1      26.684 -12.936   1.487  0.00  0.00    -0.275 OA
ATOM      8  C   UNL d   1      27.826 -13.255  -0.604  0.00  0.00     0.006 A 
ATOM      9  C   UNL d   1      26.789 -11.544   1.353  0.00  0.00     0.288 A 
ATOM     10  C   UNL d   1      27.411 -11.020   0.122  0.00  0.00     0.090 A 
ATOM     11  O   UNL d   1      26.347 -10.767   2.191  0.00  0.00    -0.260 OA
ATOM     12  C   UNL d   1      27.854 -11.821  -0.850  0.00  0.00    -0.039 A 
ATOM     13  C   UNL d   1      28.388 -14.107  -1.533  0.00  0.00     0.041 A 
ATOM     14  C   UNL d   1      28.285 -15.478  -1.469  0.00  0.00     0.069 A 
ATOM     15 CL   UNL d   1      28.912 -16.128  -2.945  0.00  0.00    -0.081 Cl
BRANCH  12  16
ATOM     16  C   UNL d   1      28.321 -11.332  -2.202  0.00  0.00     0.040 C 
BRANCH  16  17
ATOM     17  C   UNL d   1      27.774  -9.915  -2.462  0.00  0.00     0.004 C 
BRANCH  17  18
ATOM     18  C   UNL d   1      26.277  -9.929  -2.718  0.00  0.00    -0.004 C 
ATOM     19  C   UNL d   1      25.947  -9.053  -3.915  0.00  0.00     0.005 C 
ENDBRANCH  17  18
ENDBRANCH  16  17
ENDBRANCH  12  16
ENDBRANCH   3   4
ENDBRANCH   1   3
BRANCH   1  20
ATOM     20  C   UNL d   1      24.955 -17.653  -0.183  0.00  0.00     0.187 C 
BRANCH  20  21
ATOM     21  N   UNL d   1      25.256 -17.175  -1.565  0.00  0.00    -0.323 N 
ATOM     22  C   UNL d   1      24.581 -16.072  -2.072  0.00  0.00     0.361 C 
ATOM     23  O   UNL d   1      23.600 -15.571  -1.537  0.00  0.00    -0.238 OA
ATOM     24  H   UNL d   1      26.149 -17.376  -1.998  0.00  0.00     0.165 HD
BRANCH  22  25
ATOM     25  O   UNL d   1      25.149 -15.610  -3.218  0.00  0.00    -0.299 OA
BRANCH  25  26
ATOM     26  C   UNL d   1      25.064 -14.173  -3.400  0.00  0.00     0.219 C 
BRANCH  26  27
ATOM     27  C   UNL d   1      26.077 -13.659  -4.416  0.00  0.00    -0.034 A 
ATOM     28  C   UNL d   1      26.084 -12.318  -4.818  0.00  0.00     0.009 A 
ATOM     29  C   UNL d   1      26.922 -11.880  -5.846  0.00  0.00     0.001 A 
ATOM     30  C   UNL d   1      27.825 -12.759  -6.437  0.00  0.00     0.000 A 
ATOM     31  C   UNL d   1      27.865 -14.089  -6.024  0.00  0.00     0.001 A 
ATOM     32  C   UNL d   1      26.990 -14.541  -5.027  0.00  0.00     0.009 A 
ENDBRANCH  26  27
ENDBRANCH  25  26
ENDBRANCH  22  25
ENDBRANCH  20  21
BRANCH  20  33
ATOM     33  C   UNL d   1      24.082 -18.922  -0.157  0.00  0.00     0.045 C 
BRANCH  33  34
ATOM     34  C   UNL d   1      23.064 -18.873  -1.309  0.00  0.00     0.076 C 
BRANCH  34  35
ATOM     35  S   UNL d   1      21.557 -17.972  -0.869  0.00  0.00    -0.173 SA
ATOM     36  C   UNL d   1      20.361 -19.327  -1.052  0.00  0.00     0.089 C 
ENDBRANCH  34  35
ENDBRANCH  33  34
ENDBRANCH  20  33
ENDBRANCH   1  20
TORSDOF 13
ENDMDL
