MODEL 1
REMARK VINA RESULT:    -8.413      0.000      0.000
REMARK INTER + INTRA:         -10.902
REMARK INTER:                  -9.905
REMARK INTRA:                  -0.997
REMARK CONF_INDEPENDENT:        1.492
REMARK UNBOUND:                -0.997
REMARK  5 active torsions:
REMARK  status: ('A' for Active; 'I' for Inactive)
REMARK    1  A    between atoms: C_5  and  C_6 
REMARK       I    between atoms: C_6  and  N_7 
REMARK    2  A    between atoms: C_10  and  N_11 
REMARK       I    between atoms: N_11  and  C_12 
REMARK    3  A    between atoms: C_12  and  C_14 
REMARK    4  A    between atoms: C_18  and  O_19 
REMARK    5  A    between atoms: O_19  and  C_20 
ROOT
ATOM      1  N   UNL d   1      26.713 -17.508  -0.751  0.00  0.00    -0.322 N 
ATOM      2  C   UNL d   1      25.841 -17.958   0.238  0.00  0.00     0.256 C 
ATOM      3  O   UNL d   1      26.273 -18.569   1.212  0.00  0.00    -0.267 OA
ATOM      4  H   UNL d   1      27.488 -18.144  -0.922  0.00  0.00     0.169 HD
ENDROOT
BRANCH   1   5
ATOM      5  C   UNL d   1      26.834 -16.196  -1.306  0.00  0.00     0.042 C 
ATOM      6  C   UNL d   1      26.196 -15.940  -2.547  0.00  0.00     0.047 C 
ATOM      7  C   UNL d   1      26.166 -14.636  -3.096  0.00  0.00     0.034 C 
ATOM      8  C   UNL d   1      26.757 -13.594  -2.388  0.00  0.00     0.017 C 
ATOM      9  C   UNL d   1      27.428 -13.846  -1.203  0.00  0.00     0.010 C 
ATOM     10  C   UNL d   1      27.538 -15.139  -0.685  0.00  0.00    -0.035 C 
ATOM     11  C   UNL d   1      28.438 -15.245   0.513  0.00  0.00     0.050 C 
BRANCH   7  12
ATOM     12  C   UNL d   1      25.496 -14.373  -4.414  0.00  0.00     0.249 C 
ATOM     13  N   UNL d   1      24.844 -13.170  -4.579  0.00  0.00    -0.366 N 
ATOM     14  H   UNL d   1      24.775 -12.432  -3.899  0.00  0.00     0.159 HD
ATOM     15  H   UNL d   1      24.406 -12.998  -5.475  0.00  0.00     0.159 HD
ATOM     16  O   UNL d   1      25.522 -15.185  -5.317  0.00  0.00    -0.268 OA
ENDBRANCH   7  12
ENDBRANCH   1   5
BRANCH   2  17
ATOM     17  C   UNL d   1      24.354 -17.719   0.098  0.00  0.00     0.035 C 
ATOM     18  C   UNL d   1      23.889 -16.431  -0.221  0.00  0.00     0.017 C 
ATOM     19  C   UNL d   1      22.579 -16.261  -0.691  0.00  0.00     0.004 C 
ATOM     20  C   UNL d   1      21.748 -17.373  -0.895  0.00  0.00     0.037 C 
ATOM     21  C   UNL d   1      22.205 -18.662  -0.597  0.00  0.00     0.075 C 
ATOM     22  C   UNL d   1      23.470 -18.811  -0.016  0.00  0.00     0.054 C 
BRANCH  21  23
ATOM     23  O   UNL d   1      21.407 -19.697  -1.014  0.00  0.00    -0.290 OA
BRANCH  23  24
ATOM     24  C   UNL d   1      20.221 -19.955  -0.262  0.00  0.00     0.505 C 
ATOM     25  F   UNL d   1      20.349 -19.449   0.988  0.00  0.00    -0.184 F 
ATOM     26  F   UNL d   1      19.203 -19.270  -0.843  0.00  0.00    -0.184 F 
ENDBRANCH  23  24
ENDBRANCH  21  23
ENDBRANCH   2  17
TORSDOF 5
ENDMDL
MODEL 2
REMARK VINA RESULT:    -7.551      2.127      3.801
REMARK INTER + INTRA:          -9.843
REMARK INTER:                  -9.043
REMARK INTRA:                  -0.800
REMARK CONF_INDEPENDENT:        1.492
REMARK UNBOUND:                -0.800
REMARK  5 active torsions:
REMARK  status: ('A' for Active; 'I' for Inactive)
REMARK    1  A    between atoms: C_5  and  C_6 
REMARK       I    between atoms: C_6  and  N_7 
REMARK    2  A    between atoms: C_10  and  N_11 
REMARK       I    between atoms: N_11  and  C_12 
REMARK    3  A    between atoms: C_12  and  C_14 
REMARK    4  A    between atoms: C_18  and  O_19 
REMARK    5  A    between atoms: O_19  and  C_20 
ROOT
ATOM      1  N   UNL d   1      26.941 -16.939  -0.519  0.00  0.00    -0.322 N 
ATOM      2  C   UNL d   1      26.060 -17.943  -0.124  0.00  0.00     0.256 C 
ATOM      3  O   UNL d   1      26.488 -19.045   0.211  0.00  0.00    -0.267 OA
ATOM      4  H   UNL d   1      27.743 -17.290  -1.037  0.00  0.00     0.169 HD
ENDROOT
BRANCH   1   5
ATOM      5  C   UNL d   1      27.028 -15.592  -0.049  0.00  0.00     0.042 C 
ATOM      6  C   UNL d   1      27.389 -15.386   1.307  0.00  0.00     0.047 C 
ATOM      7  C   UNL d   1      27.617 -14.082   1.811  0.00  0.00     0.034 C 
ATOM      8  C   UNL d   1      27.503 -12.997   0.947  0.00  0.00     0.017 C 
ATOM      9  C   UNL d   1      27.098 -13.187  -0.363  0.00  0.00     0.010 C 
ATOM     10  C   UNL d   1      26.790 -14.457  -0.858  0.00  0.00    -0.035 C 
ATOM     11  C   UNL d   1      26.212 -14.452  -2.244  0.00  0.00     0.050 C 
BRANCH   7  12
ATOM     12  C   UNL d   1      27.991 -13.871   3.250  0.00  0.00     0.249 C 
ATOM     13  N   UNL d   1      28.857 -14.772   3.831  0.00  0.00    -0.366 N 
ATOM     14  H   UNL d   1      29.278 -15.568   3.383  0.00  0.00     0.159 HD
ATOM     15  H   UNL d   1      29.111 -14.615   4.798  0.00  0.00     0.159 HD
ATOM     16  O   UNL d   1      27.554 -12.938   3.893  0.00  0.00    -0.268 OA
ENDBRANCH   7  12
ENDBRANCH   1   5
BRANCH   2  17
ATOM     17  C   UNL d   1      24.569 -17.687  -0.134  0.00  0.00     0.035 C 
ATOM     18  C   UNL d   1      24.092 -16.405  -0.462  0.00  0.00     0.017 C 
ATOM     19  C   UNL d   1      22.746 -16.233  -0.816  0.00  0.00     0.004 C 
ATOM     20  C   UNL d   1      21.886 -17.339  -0.895  0.00  0.00     0.037 C 
ATOM     21  C   UNL d   1      22.354 -18.623  -0.588  0.00  0.00     0.075 C 
ATOM     22  C   UNL d   1      23.665 -18.769  -0.122  0.00  0.00     0.054 C 
BRANCH  21  23
ATOM     23  O   UNL d   1      21.508 -19.661  -0.886  0.00  0.00    -0.290 OA
BRANCH  23  24
ATOM     24  C   UNL d   1      20.269 -19.722  -0.179  0.00  0.00     0.505 C 
ATOM     25  F   UNL d   1      19.307 -19.072  -0.878  0.00  0.00    -0.184 F 
ATOM     26  F   UNL d   1      19.883 -21.023  -0.127  0.00  0.00    -0.184 F 
ENDBRANCH  23  24
ENDBRANCH  21  23
ENDBRANCH   2  17
TORSDOF 5
ENDMDL
MODEL 3
REMARK VINA RESULT:    -7.368      4.274      7.212
REMARK INTER + INTRA:          -9.609
REMARK INTER:                  -8.859
REMARK INTRA:                  -0.749
REMARK CONF_INDEPENDENT:        1.492
REMARK UNBOUND:                -0.749
REMARK  5 active torsions:
REMARK  status: ('A' for Active; 'I' for Inactive)
REMARK    1  A    between atoms: C_5  and  C_6 
REMARK       I    between atoms: C_6  and  N_7 
REMARK    2  A    between atoms: C_10  and  N_11 
REMARK       I    between atoms: N_11  and  C_12 
REMARK    3  A    between atoms: C_12  and  C_14 
REMARK    4  A    between atoms: C_18  and  O_19 
REMARK    5  A    between atoms: O_19  and  C_20 
ROOT
ATOM      1  N   UNL d   1      25.606 -16.142  -2.913  0.00  0.00    -0.322 N 
ATOM      2  C   UNL d   1      25.457 -14.788  -3.205  0.00  0.00     0.256 C 
ATOM      3  O   UNL d   1      24.991 -14.436  -4.286  0.00  0.00    -0.267 OA
ATOM      4  H   UNL d   1      25.866 -16.701  -3.723  0.00  0.00     0.169 HD
ENDROOT
BRANCH   1   5
ATOM      5  C   UNL d   1      25.159 -16.862  -1.763  0.00  0.00     0.042 C 
ATOM      6  C   UNL d   1      23.770 -17.128  -1.646  0.00  0.00     0.047 C 
ATOM      7  C   UNL d   1      23.268 -17.941  -0.601  0.00  0.00     0.034 C 
ATOM      8  C   UNL d   1      24.164 -18.500   0.306  0.00  0.00     0.017 C 
ATOM      9  C   UNL d   1      25.514 -18.201   0.230  0.00  0.00     0.010 C 
ATOM     10  C   UNL d   1      26.019 -17.335  -0.745  0.00  0.00    -0.035 C 
ATOM     11  C   UNL d   1      27.472 -16.999  -0.573  0.00  0.00     0.050 C 
BRANCH   7  12
ATOM     12  C   UNL d   1      21.797 -18.211  -0.478  0.00  0.00     0.249 C 
ATOM     13  N   UNL d   1      21.400 -19.311   0.253  0.00  0.00    -0.366 N 
ATOM     14  H   UNL d   1      22.005 -19.960   0.727  0.00  0.00     0.159 HD
ATOM     15  H   UNL d   1      20.406 -19.478   0.339  0.00  0.00     0.159 HD
ATOM     16  O   UNL d   1      20.969 -17.490  -0.998  0.00  0.00    -0.268 OA
ENDBRANCH   7  12
ENDBRANCH   1   5
BRANCH   2  17
ATOM     17  C   UNL d   1      25.896 -13.747  -2.200  0.00  0.00     0.035 C 
ATOM     18  C   UNL d   1      26.279 -14.153  -0.909  0.00  0.00     0.017 C 
ATOM     19  C   UNL d   1      27.007 -13.276  -0.092  0.00  0.00     0.004 C 
ATOM     20  C   UNL d   1      27.400 -12.018  -0.573  0.00  0.00     0.037 C 
ATOM     21  C   UNL d   1      27.040 -11.609  -1.863  0.00  0.00     0.075 C 
ATOM     22  C   UNL d   1      26.213 -12.441  -2.627  0.00  0.00     0.054 C 
BRANCH  21  23
ATOM     23  O   UNL d   1      27.634 -10.460  -2.320  0.00  0.00    -0.290 OA
BRANCH  23  24
ATOM     24  C   UNL d   1      26.812  -9.298  -2.435  0.00  0.00     0.505 C 
ATOM     25  F   UNL d   1      25.619  -9.630  -2.983  0.00  0.00    -0.184 F 
ATOM     26  F   UNL d   1      26.540  -8.856  -1.180  0.00  0.00    -0.184 F 
ENDBRANCH  23  24
ENDBRANCH  21  23
ENDBRANCH   2  17
TORSDOF 5
ENDMDL
MODEL 4
REMARK VINA RESULT:    -7.320      4.290      6.882
REMARK INTER + INTRA:          -9.763
REMARK INTER:                  -8.811
REMARK INTRA:                  -0.952
REMARK CONF_INDEPENDENT:        1.492
REMARK UNBOUND:                -0.952
REMARK  5 active torsions:
REMARK  status: ('A' for Active; 'I' for Inactive)
REMARK    1  A    between atoms: C_5  and  C_6 
REMARK       I    between atoms: C_6  and  N_7 
REMARK    2  A    between atoms: C_10  and  N_11 
REMARK       I    between atoms: N_11  and  C_12 
REMARK    3  A    between atoms: C_12  and  C_14 
REMARK    4  A    between atoms: C_18  and  O_19 
REMARK    5  A    between atoms: O_19  and  C_20 
ROOT
ATOM      1  N   UNL d   1      25.530 -14.973  -0.205  0.00  0.00    -0.322 N 
ATOM      2  C   UNL d   1      26.410 -14.373  -1.103  0.00  0.00     0.256 C 
ATOM      3  O   UNL d   1      27.358 -13.709  -0.689  0.00  0.00    -0.267 OA
ATOM      4  H   UNL d   1      25.363 -14.413   0.628  0.00  0.00     0.169 HD
ENDROOT
BRANCH   1   5
ATOM      5  C   UNL d   1      25.100 -16.335  -0.152  0.00  0.00     0.042 C 
ATOM      6  C   UNL d   1      23.713 -16.599  -0.295  0.00  0.00     0.047 C 
ATOM      7  C   UNL d   1      23.228 -17.926  -0.377  0.00  0.00     0.034 C 
ATOM      8  C   UNL d   1      24.137 -18.979  -0.338  0.00  0.00     0.017 C 
ATOM      9  C   UNL d   1      25.486 -18.731  -0.144  0.00  0.00     0.010 C 
ATOM     10  C   UNL d   1      25.975 -17.432   0.021  0.00  0.00    -0.035 C 
ATOM     11  C   UNL d   1      27.431 -17.368   0.384  0.00  0.00     0.050 C 
BRANCH   7  12
ATOM     12  C   UNL d   1      21.758 -18.198  -0.520  0.00  0.00     0.249 C 
ATOM     13  N   UNL d   1      21.250 -19.331   0.077  0.00  0.00    -0.366 N 
ATOM     14  H   UNL d   1      21.769 -20.005   0.614  0.00  0.00     0.159 HD
ATOM     15  H   UNL d   1      20.256 -19.500  -0.015  0.00  0.00     0.159 HD
ATOM     16  O   UNL d   1      21.027 -17.449  -1.136  0.00  0.00    -0.268 OA
ENDBRANCH   7  12
ENDBRANCH   1   5
BRANCH   2  17
ATOM     17  C   UNL d   1      26.183 -14.514  -2.591  0.00  0.00     0.035 C 
ATOM     18  C   UNL d   1      25.292 -13.640  -3.239  0.00  0.00     0.017 C 
ATOM     19  C   UNL d   1      25.328 -13.519  -4.636  0.00  0.00     0.004 C 
ATOM     20  C   UNL d   1      26.280 -14.226  -5.385  0.00  0.00     0.037 C 
ATOM     21  C   UNL d   1      27.184 -15.086  -4.750  0.00  0.00     0.075 C 
ATOM     22  C   UNL d   1      27.064 -15.291  -3.371  0.00  0.00     0.054 C 
BRANCH  21  23
ATOM     23  O   UNL d   1      28.202 -15.575  -5.530  0.00  0.00    -0.290 OA
BRANCH  23  24
ATOM     24  C   UNL d   1      29.115 -14.628  -6.085  0.00  0.00     0.505 C 
ATOM     25  F   UNL d   1      28.663 -14.206  -7.291  0.00  0.00    -0.184 F 
ATOM     26  F   UNL d   1      29.120 -13.534  -5.281  0.00  0.00    -0.184 F 
ENDBRANCH  23  24
ENDBRANCH  21  23
ENDBRANCH   2  17
TORSDOF 5
ENDMDL
MODEL 5
REMARK VINA RESULT:    -7.295      3.632      6.558
REMARK INTER + INTRA:          -9.605
REMARK INTER:                  -8.787
REMARK INTRA:                  -0.818
REMARK CONF_INDEPENDENT:        1.492
REMARK UNBOUND:                -0.818
REMARK  5 active torsions:
REMARK  status: ('A' for Active; 'I' for Inactive)
REMARK    1  A    between atoms: C_5  and  C_6 
REMARK       I    between atoms: C_6  and  N_7 
REMARK    2  A    between atoms: C_10  and  N_11 
REMARK       I    between atoms: N_11  and  C_12 
REMARK    3  A    between atoms: C_12  and  C_14 
REMARK    4  A    between atoms: C_18  and  O_19 
REMARK    5  A    between atoms: O_19  and  C_20 
ROOT
ATOM      1  N   UNL d   1      25.488 -16.195  -2.987  0.00  0.00    -0.322 N 
ATOM      2  C   UNL d   1      25.597 -14.818  -3.167  0.00  0.00     0.256 C 
ATOM      3  O   UNL d   1      25.048 -14.274  -4.122  0.00  0.00    -0.267 OA
ATOM      4  H   UNL d   1      25.480 -16.714  -3.861  0.00  0.00     0.169 HD
ENDROOT
BRANCH   1   5
ATOM      5  C   UNL d   1      25.089 -16.914  -1.817  0.00  0.00     0.042 C 
ATOM      6  C   UNL d   1      23.705 -17.165  -1.634  0.00  0.00     0.047 C 
ATOM      7  C   UNL d   1      23.246 -17.976  -0.568  0.00  0.00     0.034 C 
ATOM      8  C   UNL d   1      24.178 -18.547   0.293  0.00  0.00     0.017 C 
ATOM      9  C   UNL d   1      25.526 -18.263   0.152  0.00  0.00     0.010 C 
ATOM     10  C   UNL d   1      25.992 -17.400  -0.844  0.00  0.00    -0.035 C 
ATOM     11  C   UNL d   1      27.456 -17.079  -0.741  0.00  0.00     0.050 C 
BRANCH   7  12
ATOM     12  C   UNL d   1      21.779 -18.231  -0.375  0.00  0.00     0.249 C 
ATOM     13  N   UNL d   1      21.389 -18.951   0.734  0.00  0.00    -0.366 N 
ATOM     14  H   UNL d   1      21.995 -19.325   1.445  0.00  0.00     0.159 HD
ATOM     15  H   UNL d   1      20.397 -19.108   0.861  0.00  0.00     0.159 HD
ATOM     16  O   UNL d   1      20.950 -17.818  -1.161  0.00  0.00    -0.268 OA
ENDBRANCH   7  12
ENDBRANCH   1   5
BRANCH   2  17
ATOM     17  C   UNL d   1      26.417 -13.993  -2.200  0.00  0.00     0.035 C 
ATOM     18  C   UNL d   1      27.049 -12.822  -2.656  0.00  0.00     0.017 C 
ATOM     19  C   UNL d   1      27.509 -11.874  -1.730  0.00  0.00     0.004 C 
ATOM     20  C   UNL d   1      27.297 -12.063  -0.356  0.00  0.00     0.037 C 
ATOM     21  C   UNL d   1      26.654 -13.217   0.109  0.00  0.00     0.075 C 
ATOM     22  C   UNL d   1      26.304 -14.211  -0.812  0.00  0.00     0.054 C 
BRANCH  21  23
ATOM     23  O   UNL d   1      26.310 -13.222   1.438  0.00  0.00    -0.290 OA
BRANCH  23  24
ATOM     24  C   UNL d   1      27.369 -13.342   2.388  0.00  0.00     0.505 C 
ATOM     25  F   UNL d   1      27.940 -12.130   2.596  0.00  0.00    -0.184 F 
ATOM     26  F   UNL d   1      26.822 -13.710   3.575  0.00  0.00    -0.184 F 
ENDBRANCH  23  24
ENDBRANCH  21  23
ENDBRANCH   2  17
TORSDOF 5
ENDMDL
MODEL 6
REMARK VINA RESULT:    -7.122      3.963      6.123
REMARK INTER + INTRA:          -9.725
REMARK INTER:                  -8.613
REMARK INTRA:                  -1.111
REMARK CONF_INDEPENDENT:        1.492
REMARK UNBOUND:                -1.111
REMARK  5 active torsions:
REMARK  status: ('A' for Active; 'I' for Inactive)
REMARK    1  A    between atoms: C_5  and  C_6 
REMARK       I    between atoms: C_6  and  N_7 
REMARK    2  A    between atoms: C_10  and  N_11 
REMARK       I    between atoms: N_11  and  C_12 
REMARK    3  A    between atoms: C_12  and  C_14 
REMARK    4  A    between atoms: C_18  and  O_19 
REMARK    5  A    between atoms: O_19  and  C_20 
ROOT
ATOM      1  N   UNL d   1      28.567 -15.414   0.137  0.00  0.00    -0.322 N 
ATOM      2  C   UNL d   1      28.110 -16.637  -0.349  0.00  0.00     0.256 C 
ATOM      3  O   UNL d   1      28.844 -17.622  -0.332  0.00  0.00    -0.267 OA
ATOM      4  H   UNL d   1      29.552 -15.249  -0.055  0.00  0.00     0.169 HD
ENDROOT
BRANCH   1   5
ATOM      5  C   UNL d   1      27.952 -14.547   1.092  0.00  0.00     0.042 C 
ATOM      6  C   UNL d   1      28.158 -14.825   2.469  0.00  0.00     0.047 C 
ATOM      7  C   UNL d   1      27.686 -13.942   3.469  0.00  0.00     0.034 C 
ATOM      8  C   UNL d   1      27.030 -12.776   3.084  0.00  0.00     0.017 C 
ATOM      9  C   UNL d   1      26.779 -12.526   1.746  0.00  0.00     0.010 C 
ATOM     10  C   UNL d   1      27.165 -13.424   0.747  0.00  0.00    -0.035 C 
ATOM     11  C   UNL d   1      26.664 -13.069  -0.624  0.00  0.00     0.050 C 
BRANCH   7  12
ATOM     12  C   UNL d   1      27.899 -14.247   4.924  0.00  0.00     0.249 C 
ATOM     13  N   UNL d   1      28.684 -15.333   5.247  0.00  0.00    -0.366 N 
ATOM     14  H   UNL d   1      29.144 -15.950   4.599  0.00  0.00     0.159 HD
ATOM     15  H   UNL d   1      28.832 -15.524   6.230  0.00  0.00     0.159 HD
ATOM     16  O   UNL d   1      27.405 -13.566   5.799  0.00  0.00    -0.268 OA
ENDBRANCH   7  12
ENDBRANCH   1   5
BRANCH   2  17
ATOM     17  C   UNL d   1      26.717 -16.746  -0.927  0.00  0.00     0.035 C 
ATOM     18  C   UNL d   1      25.688 -17.302  -0.145  0.00  0.00     0.017 C 
ATOM     19  C   UNL d   1      24.349 -17.098  -0.512  0.00  0.00     0.004 C 
ATOM     20  C   UNL d   1      24.030 -16.302  -1.622  0.00  0.00     0.037 C 
ATOM     21  C   UNL d   1      25.045 -15.729  -2.398  0.00  0.00     0.075 C 
ATOM     22  C   UNL d   1      26.377 -16.035  -2.096  0.00  0.00     0.054 C 
BRANCH  21  23
ATOM     23  O   UNL d   1      24.644 -14.809  -3.333  0.00  0.00    -0.290 OA
BRANCH  23  24
ATOM     24  C   UNL d   1      25.652 -14.245  -4.172  0.00  0.00     0.505 C 
ATOM     25  F   UNL d   1      25.951 -15.105  -5.175  0.00  0.00    -0.184 F 
ATOM     26  F   UNL d   1      25.130 -13.141  -4.766  0.00  0.00    -0.184 F 
ENDBRANCH  23  24
ENDBRANCH  21  23
ENDBRANCH   2  17
TORSDOF 5
ENDMDL
MODEL 7
REMARK VINA RESULT:    -7.031      2.358      4.322
REMARK INTER + INTRA:          -9.487
REMARK INTER:                  -8.523
REMARK INTRA:                  -0.964
REMARK CONF_INDEPENDENT:        1.492
REMARK UNBOUND:                -0.964
REMARK  5 active torsions:
REMARK  status: ('A' for Active; 'I' for Inactive)
REMARK    1  A    between atoms: C_5  and  C_6 
REMARK       I    between atoms: C_6  and  N_7 
REMARK    2  A    between atoms: C_10  and  N_11 
REMARK       I    between atoms: N_11  and  C_12 
REMARK    3  A    between atoms: C_12  and  C_14 
REMARK    4  A    between atoms: C_18  and  O_19 
REMARK    5  A    between atoms: O_19  and  C_20 
ROOT
ATOM      1  N   UNL d   1      25.946 -14.254  -1.394  0.00  0.00    -0.322 N 
ATOM      2  C   UNL d   1      25.359 -15.246  -2.177  0.00  0.00     0.256 C 
ATOM      3  O   UNL d   1      25.156 -15.050  -3.373  0.00  0.00    -0.267 OA
ATOM      4  H   UNL d   1      25.662 -13.313  -1.659  0.00  0.00     0.169 HD
ENDROOT
BRANCH   1   5
ATOM      5  C   UNL d   1      27.076 -14.355  -0.525  0.00  0.00     0.042 C 
ATOM      6  C   UNL d   1      26.877 -14.086   0.855  0.00  0.00     0.047 C 
ATOM      7  C   UNL d   1      27.917 -14.286   1.794  0.00  0.00     0.034 C 
ATOM      8  C   UNL d   1      29.141 -14.775   1.349  0.00  0.00     0.017 C 
ATOM      9  C   UNL d   1      29.359 -14.988  -0.002  0.00  0.00     0.010 C 
ATOM     10  C   UNL d   1      28.372 -14.720  -0.954  0.00  0.00    -0.035 C 
ATOM     11  C   UNL d   1      28.840 -14.852  -2.375  0.00  0.00     0.050 C 
BRANCH   7  12
ATOM     12  C   UNL d   1      27.702 -13.991   3.250  0.00  0.00     0.249 C 
ATOM     13  N   UNL d   1      28.294 -14.826   4.173  0.00  0.00    -0.366 N 
ATOM     14  H   UNL d   1      28.873 -15.623   3.970  0.00  0.00     0.159 HD
ATOM     15  H   UNL d   1      28.153 -14.612   5.152  0.00  0.00     0.159 HD
ATOM     16  O   UNL d   1      27.031 -13.047   3.619  0.00  0.00    -0.268 OA
ENDBRANCH   7  12
ENDBRANCH   1   5
BRANCH   2  17
ATOM     17  C   UNL d   1      24.943 -16.556  -1.547  0.00  0.00     0.035 C 
ATOM     18  C   UNL d   1      25.880 -17.288  -0.795  0.00  0.00     0.017 C 
ATOM     19  C   UNL d   1      25.439 -18.300   0.071  0.00  0.00     0.004 C 
ATOM     20  C   UNL d   1      24.067 -18.550   0.229  0.00  0.00     0.037 C 
ATOM     21  C   UNL d   1      23.125 -17.816  -0.501  0.00  0.00     0.075 C 
ATOM     22  C   UNL d   1      23.577 -16.892  -1.449  0.00  0.00     0.054 C 
BRANCH  21  23
ATOM     23  O   UNL d   1      21.813 -17.986  -0.135  0.00  0.00    -0.290 OA
BRANCH  23  24
ATOM     24  C   UNL d   1      21.192 -19.226  -0.475  0.00  0.00     0.505 C 
ATOM     25  F   UNL d   1      20.690 -19.810   0.640  0.00  0.00    -0.184 F 
ATOM     26  F   UNL d   1      20.126 -18.954  -1.270  0.00  0.00    -0.184 F 
ENDBRANCH  23  24
ENDBRANCH  21  23
ENDBRANCH   2  17
TORSDOF 5
ENDMDL
MODEL 8
REMARK VINA RESULT:    -6.627      4.340      7.050
REMARK INTER + INTRA:          -9.377
REMARK INTER:                  -8.119
REMARK INTRA:                  -1.258
REMARK CONF_INDEPENDENT:        1.492
REMARK UNBOUND:                -1.258
REMARK  5 active torsions:
REMARK  status: ('A' for Active; 'I' for Inactive)
REMARK    1  A    between atoms: C_5  and  C_6 
REMARK       I    between atoms: C_6  and  N_7 
REMARK    2  A    between atoms: C_10  and  N_11 
REMARK       I    between atoms: N_11  and  C_12 
REMARK    3  A    between atoms: C_12  and  C_14 
REMARK    4  A    between atoms: C_18  and  O_19 
REMARK    5  A    between atoms: O_19  and  C_20 
ROOT
ATOM      1  N   UNL d   1      24.780 -16.076  -2.611  0.00  0.00    -0.322 N 
ATOM      2  C   UNL d   1      24.830 -14.791  -3.145  0.00  0.00     0.256 C 
ATOM      3  O   UNL d   1      23.831 -14.075  -3.129  0.00  0.00    -0.267 OA
ATOM      4  H   UNL d   1      23.887 -16.540  -2.763  0.00  0.00     0.169 HD
ENDROOT
BRANCH   1   5
ATOM      5  C   UNL d   1      25.654 -16.680  -1.654  0.00  0.00     0.042 C 
ATOM      6  C   UNL d   1      27.050 -16.481  -1.813  0.00  0.00     0.047 C 
ATOM      7  C   UNL d   1      27.968 -16.942  -0.839  0.00  0.00     0.034 C 
ATOM      8  C   UNL d   1      27.480 -17.579   0.298  0.00  0.00     0.017 C 
ATOM      9  C   UNL d   1      26.124 -17.824   0.433  0.00  0.00     0.010 C 
ATOM     10  C   UNL d   1      25.209 -17.450  -0.555  0.00  0.00    -0.035 C 
ATOM     11  C   UNL d   1      23.811 -17.943  -0.315  0.00  0.00     0.050 C 
BRANCH   7  12
ATOM     12  C   UNL d   1      29.444 -16.735  -1.018  0.00  0.00     0.249 C 
ATOM     13  N   UNL d   1      30.297 -17.380  -0.149  0.00  0.00    -0.366 N 
ATOM     14  H   UNL d   1      30.029 -17.992   0.604  0.00  0.00     0.159 HD
ATOM     15  H   UNL d   1      31.291 -17.243  -0.284  0.00  0.00     0.159 HD
ATOM     16  O   UNL d   1      29.888 -16.027  -1.900  0.00  0.00    -0.268 OA
ENDBRANCH   7  12
ENDBRANCH   1   5
BRANCH   2  17
ATOM     17  C   UNL d   1      26.109 -14.284  -3.773  0.00  0.00     0.035 C 
ATOM     18  C   UNL d   1      26.944 -13.423  -3.038  0.00  0.00     0.017 C 
ATOM     19  C   UNL d   1      28.271 -13.225  -3.448  0.00  0.00     0.004 C 
ATOM     20  C   UNL d   1      28.784 -13.920  -4.553  0.00  0.00     0.037 C 
ATOM     21  C   UNL d   1      27.967 -14.792  -5.283  0.00  0.00     0.075 C 
ATOM     22  C   UNL d   1      26.614 -14.892  -4.940  0.00  0.00     0.054 C 
BRANCH  21  23
ATOM     23  O   UNL d   1      28.600 -15.575  -6.215  0.00  0.00    -0.290 OA
BRANCH  23  24
ATOM     24  C   UNL d   1      29.856 -16.145  -5.848  0.00  0.00     0.505 C 
ATOM     25  F   UNL d   1      29.656 -17.247  -5.085  0.00  0.00    -0.184 F 
ATOM     26  F   UNL d   1      30.465 -16.577  -6.982  0.00  0.00    -0.184 F 
ENDBRANCH  23  24
ENDBRANCH  21  23
ENDBRANCH   2  17
TORSDOF 5
ENDMDL
MODEL 9
REMARK VINA RESULT:    -6.218      3.763      5.857
REMARK INTER + INTRA:          -9.609
REMARK INTER:                  -7.709
REMARK INTRA:                  -1.900
REMARK CONF_INDEPENDENT:        1.492
REMARK UNBOUND:                -1.900
REMARK  5 active torsions:
REMARK  status: ('A' for Active; 'I' for Inactive)
REMARK    1  A    between atoms: C_5  and  C_6 
REMARK       I    between atoms: C_6  and  N_7 
REMARK    2  A    between atoms: C_10  and  N_11 
REMARK       I    between atoms: N_11  and  C_12 
REMARK    3  A    between atoms: C_12  and  C_14 
REMARK    4  A    between atoms: C_18  and  O_19 
REMARK    5  A    between atoms: O_19  and  C_20 
ROOT
ATOM      1  N   UNL d   1      26.809 -14.406  -3.597  0.00  0.00    -0.322 N 
ATOM      2  C   UNL d   1      25.540 -14.807  -3.184  0.00  0.00     0.256 C 
ATOM      3  O   UNL d   1      24.545 -14.450  -3.810  0.00  0.00    -0.267 OA
ATOM      4  H   UNL d   1      26.827 -13.464  -3.978  0.00  0.00     0.169 HD
ENDROOT
BRANCH   1   5
ATOM      5  C   UNL d   1      27.966 -15.211  -3.836  0.00  0.00     0.042 C 
ATOM      6  C   UNL d   1      28.527 -15.908  -2.734  0.00  0.00     0.047 C 
ATOM      7  C   UNL d   1      29.595 -16.820  -2.916  0.00  0.00     0.034 C 
ATOM      8  C   UNL d   1      30.078 -17.043  -4.202  0.00  0.00     0.017 C 
ATOM      9  C   UNL d   1      29.571 -16.326  -5.273  0.00  0.00     0.010 C 
ATOM     10  C   UNL d   1      28.573 -15.362  -5.103  0.00  0.00    -0.035 C 
ATOM     11  C   UNL d   1      28.267 -14.572  -6.343  0.00  0.00     0.050 C 
BRANCH   7  12
ATOM     12  C   UNL d   1      30.189 -17.548  -1.746  0.00  0.00     0.249 C 
ATOM     13  N   UNL d   1      29.561 -17.429  -0.525  0.00  0.00    -0.366 N 
ATOM     14  H   UNL d   1      28.726 -16.902  -0.333  0.00  0.00     0.159 HD
ATOM     15  H   UNL d   1      29.962 -17.932   0.256  0.00  0.00     0.159 HD
ATOM     16  O   UNL d   1      31.190 -18.227  -1.856  0.00  0.00    -0.268 OA
ENDBRANCH   7  12
ENDBRANCH   1   5
BRANCH   2  17
ATOM     17  C   UNL d   1      25.384 -15.661  -1.946  0.00  0.00     0.035 C 
ATOM     18  C   UNL d   1      24.643 -16.855  -2.020  0.00  0.00     0.017 C 
ATOM     19  C   UNL d   1      24.774 -17.818  -1.008  0.00  0.00     0.004 C 
ATOM     20  C   UNL d   1      25.677 -17.621   0.047  0.00  0.00     0.037 C 
ATOM     21  C   UNL d   1      26.432 -16.445   0.123  0.00  0.00     0.075 C 
ATOM     22  C   UNL d   1      26.209 -15.439  -0.824  0.00  0.00     0.054 C 
BRANCH  21  23
ATOM     23  O   UNL d   1      27.428 -16.426   1.067  0.00  0.00    -0.290 OA
BRANCH  23  24
ATOM     24  C   UNL d   1      28.032 -15.165   1.358  0.00  0.00     0.505 C 
ATOM     25  F   UNL d   1      28.654 -14.686   0.254  0.00  0.00    -0.184 F 
ATOM     26  F   UNL d   1      27.038 -14.284   1.643  0.00  0.00    -0.184 F 
ENDBRANCH  23  24
ENDBRANCH  21  23
ENDBRANCH   2  17
TORSDOF 5
ENDMDL
