MODEL 1
REMARK VINA RESULT:    -7.521      0.000      0.000
REMARK INTER + INTRA:         -11.720
REMARK INTER:                  -9.907
REMARK INTRA:                  -1.812
REMARK CONF_INDEPENDENT:        2.386
REMARK UNBOUND:                -1.812
REMARK  8 active torsions:
REMARK  status: ('A' for Active; 'I' for Inactive)
REMARK    1  A    between atoms: C_2  and  C_15 
REMARK    2  A    between atoms: C_2  and  N_3 
REMARK       I    between atoms: N_3  and  C_4 
REMARK    3  A    between atoms: C_4  and  C_6 
REMARK    4  A    between atoms: C_10  and  N_11 
REMARK       I    between atoms: C_15  and  N_17 
REMARK    5  A    between atoms: N_17  and  N_18 
REMARK    6  A    between atoms: N_18  and  C_19 
REMARK    7  A    between atoms: C_19  and  N_21 
REMARK    8  A    between atoms: N_21  and  C_22 
ROOT
ATOM      1  C   UNL d   1      28.570 -12.864  -3.398  0.00  0.00     0.042 C 
ATOM      2  C   UNL d   1      27.453 -13.742  -3.959  0.00  0.00     0.174 C 
ENDROOT
BRANCH   2   3
ATOM      3  C   UNL d   1      27.926 -14.510  -5.250  0.00  0.00     0.258 C 
ATOM      4  O   UNL d   1      27.417 -15.575  -5.608  0.00  0.00    -0.269 OA
ATOM      5  N   UNL d   1      28.975 -13.925  -5.961  0.00  0.00    -0.266 N 
ATOM      6  H   UNL d   1      29.411 -13.045  -5.693  0.00  0.00     0.190 HD
BRANCH   5   7
ATOM      7  N   UNL d   1      29.513 -14.537  -7.158  0.00  0.00    -0.274 N 
ATOM      8  H   UNL d   1      29.144 -14.175  -8.035  0.00  0.00     0.189 HD
BRANCH   7   9
ATOM      9  C   UNL d   1      30.502 -15.526  -7.063  0.00  0.00     0.186 C 
ATOM     10  S   UNL d   1      32.003 -15.332  -7.803  0.00  0.00    -0.040 SA
BRANCH   9  11
ATOM     11  N   UNL d   1      30.136 -16.662  -6.337  0.00  0.00    -0.361 N 
ATOM     12  H   UNL d   1      29.379 -16.583  -5.668  0.00  0.00     0.162 HD
BRANCH  11  13
ATOM     13  C   UNL d   1      30.873 -17.952  -6.354  0.00  0.00     0.083 C 
ATOM     14  C   UNL d   1      30.370 -18.969  -5.323  0.00  0.00     0.025 C 
ATOM     15  C   UNL d   1      31.019 -20.286  -5.744  0.00  0.00     0.002 C 
ATOM     16  C   UNL d   1      31.181 -20.196  -7.260  0.00  0.00     0.002 C 
ATOM     17  C   UNL d   1      30.780 -18.765  -7.654  0.00  0.00     0.025 C 
ENDBRANCH  11  13
ENDBRANCH   9  11
ENDBRANCH   7   9
ENDBRANCH   5   7
ENDBRANCH   2   3
BRANCH   2  18
ATOM     18  N   UNL d   1      26.996 -14.657  -2.883  0.00  0.00    -0.344 N 
ATOM     19  C   UNL d   1      25.692 -15.101  -2.803  0.00  0.00     0.252 C 
ATOM     20  O   UNL d   1      24.798 -14.706  -3.551  0.00  0.00    -0.268 OA
ATOM     21  H   UNL d   1      27.711 -15.159  -2.372  0.00  0.00     0.163 HD
BRANCH  19  22
ATOM     22  C   UNL d   1      25.352 -16.092  -1.737  0.00  0.00     0.034 A 
ATOM     23  C   UNL d   1      26.375 -16.557  -0.892  0.00  0.00     0.017 A 
ATOM     24  C   UNL d   1      26.149 -17.616  -0.004  0.00  0.00     0.003 A 
ATOM     25  C   UNL d   1      24.882 -18.191   0.089  0.00  0.00     0.036 A 
ATOM     26  C   UNL d   1      23.859 -17.727  -0.750  0.00  0.00     0.103 A 
ATOM     27  C   UNL d   1      24.083 -16.680  -1.665  0.00  0.00     0.053 A 
BRANCH  26  28
ATOM     28  N   UNL d   1      22.547 -18.390  -0.717  0.00  0.00    -0.116 N 
ATOM     29  O   UNL d   1      22.263 -19.159  -1.646  0.00  0.00    -0.532 OA
ATOM     30  O   UNL d   1      21.801 -18.136   0.238  0.00  0.00    -0.532 OA
ENDBRANCH  26  28
ENDBRANCH  19  22
ENDBRANCH   2  18
TORSDOF 8
ENDMDL
MODEL 2
REMARK VINA RESULT:    -7.148      5.619      8.385
REMARK INTER + INTRA:         -11.399
REMARK INTER:                  -9.534
REMARK INTRA:                  -1.865
REMARK CONF_INDEPENDENT:        2.386
REMARK UNBOUND:                -1.865
REMARK  8 active torsions:
REMARK  status: ('A' for Active; 'I' for Inactive)
REMARK    1  A    between atoms: C_2  and  C_15 
REMARK    2  A    between atoms: C_2  and  N_3 
REMARK       I    between atoms: N_3  and  C_4 
REMARK    3  A    between atoms: C_4  and  C_6 
REMARK    4  A    between atoms: C_10  and  N_11 
REMARK       I    between atoms: C_15  and  N_17 
REMARK    5  A    between atoms: N_17  and  N_18 
REMARK    6  A    between atoms: N_18  and  C_19 
REMARK    7  A    between atoms: C_19  and  N_21 
REMARK    8  A    between atoms: N_21  and  C_22 
ROOT
ATOM      1  C   UNL d   1      27.772 -10.225  -4.246  0.00  0.00     0.042 C 
ATOM      2  C   UNL d   1      26.325 -10.283  -3.759  0.00  0.00     0.174 C 
ENDROOT
BRANCH   2   3
ATOM      3  C   UNL d   1      25.871 -11.769  -3.497  0.00  0.00     0.258 C 
ATOM      4  O   UNL d   1      26.144 -12.367  -2.454  0.00  0.00    -0.269 OA
ATOM      5  N   UNL d   1      25.155 -12.381  -4.526  0.00  0.00    -0.266 N 
ATOM      6  H   UNL d   1      24.910 -11.910  -5.396  0.00  0.00     0.190 HD
BRANCH   5   7
ATOM      7  N   UNL d   1      24.692 -13.749  -4.418  0.00  0.00    -0.274 N 
ATOM      8  H   UNL d   1      23.737 -13.911  -4.731  0.00  0.00     0.189 HD
BRANCH   7   9
ATOM      9  C   UNL d   1      25.552 -14.751  -3.948  0.00  0.00     0.186 C 
ATOM     10  S   UNL d   1      26.600 -15.560  -4.989  0.00  0.00    -0.040 SA
BRANCH   9  11
ATOM     11  N   UNL d   1      25.452 -15.024  -2.581  0.00  0.00    -0.361 N 
ATOM     12  H   UNL d   1      25.790 -14.330  -1.925  0.00  0.00     0.162 HD
BRANCH  11  13
ATOM     13  C   UNL d   1      25.025 -16.326  -2.006  0.00  0.00     0.083 C 
ATOM     14  C   UNL d   1      25.964 -16.865  -0.922  0.00  0.00     0.025 C 
ATOM     15  C   UNL d   1      25.172 -17.992  -0.262  0.00  0.00     0.002 C 
ATOM     16  C   UNL d   1      23.704 -17.590  -0.390  0.00  0.00     0.002 C 
ATOM     17  C   UNL d   1      23.677 -16.329  -1.270  0.00  0.00     0.025 C 
ENDBRANCH  11  13
ENDBRANCH   9  11
ENDBRANCH   7   9
ENDBRANCH   5   7
ENDBRANCH   2   3
BRANCH   2  18
ATOM     18  N   UNL d   1      26.205  -9.426  -2.553  0.00  0.00    -0.344 N 
ATOM     19  C   UNL d   1      25.724  -8.135  -2.616  0.00  0.00     0.252 C 
ATOM     20  O   UNL d   1      25.451  -7.567  -3.673  0.00  0.00    -0.268 OA
ATOM     21  H   UNL d   1      26.226  -9.892  -1.654  0.00  0.00     0.163 HD
BRANCH  19  22
ATOM     22  C   UNL d   1      25.555  -7.384  -1.334  0.00  0.00     0.034 A 
ATOM     23  C   UNL d   1      25.409  -5.987  -1.381  0.00  0.00     0.017 A 
ATOM     24  C   UNL d   1      25.433  -5.221  -0.208  0.00  0.00     0.003 A 
ATOM     25  C   UNL d   1      25.550  -5.847   1.032  0.00  0.00     0.036 A 
ATOM     26  C   UNL d   1      25.692  -7.241   1.082  0.00  0.00     0.103 A 
ATOM     27  C   UNL d   1      25.696  -8.017  -0.094  0.00  0.00     0.053 A 
BRANCH  26  28
ATOM     28  N   UNL d   1      25.905  -7.895   2.381  0.00  0.00    -0.116 N 
ATOM     29  O   UNL d   1      25.290  -8.946   2.608  0.00  0.00    -0.532 OA
ATOM     30  O   UNL d   1      26.685  -7.351   3.175  0.00  0.00    -0.532 OA
ENDBRANCH  26  28
ENDBRANCH  19  22
ENDBRANCH   2  18
TORSDOF 8
ENDMDL
MODEL 3
REMARK VINA RESULT:    -7.116      1.961      2.254
REMARK INTER + INTRA:         -11.738
REMARK INTER:                  -9.503
REMARK INTRA:                  -2.235
REMARK CONF_INDEPENDENT:        2.386
REMARK UNBOUND:                -2.235
REMARK  8 active torsions:
REMARK  status: ('A' for Active; 'I' for Inactive)
REMARK    1  A    between atoms: C_2  and  C_15 
REMARK    2  A    between atoms: C_2  and  N_3 
REMARK       I    between atoms: N_3  and  C_4 
REMARK    3  A    between atoms: C_4  and  C_6 
REMARK    4  A    between atoms: C_10  and  N_11 
REMARK       I    between atoms: C_15  and  N_17 
REMARK    5  A    between atoms: N_17  and  N_18 
REMARK    6  A    between atoms: N_18  and  C_19 
REMARK    7  A    between atoms: C_19  and  N_21 
REMARK    8  A    between atoms: N_21  and  C_22 
ROOT
ATOM      1  C   UNL d   1      26.619 -13.228  -3.295  0.00  0.00     0.042 C 
ATOM      2  C   UNL d   1      26.105 -14.385  -4.151  0.00  0.00     0.174 C 
ENDROOT
BRANCH   2   3
ATOM      3  C   UNL d   1      27.285 -15.093  -4.919  0.00  0.00     0.258 C 
ATOM      4  O   UNL d   1      27.319 -15.169  -6.149  0.00  0.00    -0.269 OA
ATOM      5  N   UNL d   1      28.285 -15.652  -4.122  0.00  0.00    -0.266 N 
ATOM      6  H   UNL d   1      28.286 -15.600  -3.105  0.00  0.00     0.190 HD
BRANCH   5   7
ATOM      7  N   UNL d   1      29.418 -16.344  -4.702  0.00  0.00    -0.274 N 
ATOM      8  H   UNL d   1      29.619 -16.111  -5.673  0.00  0.00     0.189 HD
BRANCH   7   9
ATOM      9  C   UNL d   1      30.177 -17.230  -3.927  0.00  0.00     0.186 C 
ATOM     10  S   UNL d   1      30.067 -17.233  -2.247  0.00  0.00    -0.040 SA
BRANCH   9  11
ATOM     11  N   UNL d   1      31.024 -18.074  -4.651  0.00  0.00    -0.361 N 
ATOM     12  H   UNL d   1      31.978 -18.189  -4.331  0.00  0.00     0.162 HD
BRANCH  11  13
ATOM     13  C   UNL d   1      30.680 -18.706  -5.950  0.00  0.00     0.083 C 
ATOM     14  C   UNL d   1      31.611 -18.307  -7.101  0.00  0.00     0.025 C 
ATOM     15  C   UNL d   1      31.289 -19.306  -8.211  0.00  0.00     0.002 C 
ATOM     16  C   UNL d   1      30.855 -20.585  -7.497  0.00  0.00     0.002 C 
ATOM     17  C   UNL d   1      30.773 -20.238  -6.001  0.00  0.00     0.025 C 
ENDBRANCH  11  13
ENDBRANCH   9  11
ENDBRANCH   7   9
ENDBRANCH   5   7
ENDBRANCH   2   3
BRANCH   2  18
ATOM     18  N   UNL d   1      25.352 -15.315  -3.274  0.00  0.00    -0.344 N 
ATOM     19  C   UNL d   1      25.887 -15.815  -2.104  0.00  0.00     0.252 C 
ATOM     20  O   UNL d   1      27.048 -15.608  -1.751  0.00  0.00    -0.268 OA
ATOM     21  H   UNL d   1      24.349 -15.362  -3.406  0.00  0.00     0.163 HD
BRANCH  19  22
ATOM     22  C   UNL d   1      25.016 -16.672  -1.243  0.00  0.00     0.034 A 
ATOM     23  C   UNL d   1      25.602 -17.381  -0.180  0.00  0.00     0.017 A 
ATOM     24  C   UNL d   1      24.870 -18.335   0.538  0.00  0.00     0.003 A 
ATOM     25  C   UNL d   1      23.527 -18.556   0.237  0.00  0.00     0.036 A 
ATOM     26  C   UNL d   1      22.939 -17.848  -0.820  0.00  0.00     0.103 A 
ATOM     27  C   UNL d   1      23.674 -16.905  -1.565  0.00  0.00     0.053 A 
BRANCH  26  28
ATOM     28  N   UNL d   1      21.548 -18.142  -1.196  0.00  0.00    -0.116 N 
ATOM     29  O   UNL d   1      20.755 -17.194  -1.270  0.00  0.00    -0.532 OA
ATOM     30  O   UNL d   1      21.252 -19.325  -1.412  0.00  0.00    -0.532 OA
ENDBRANCH  26  28
ENDBRANCH  19  22
ENDBRANCH   2  18
TORSDOF 8
ENDMDL
MODEL 4
REMARK VINA RESULT:    -6.923      1.689      2.055
REMARK INTER + INTRA:         -12.144
REMARK INTER:                  -9.309
REMARK INTRA:                  -2.835
REMARK CONF_INDEPENDENT:        2.386
REMARK UNBOUND:                -2.835
REMARK  8 active torsions:
REMARK  status: ('A' for Active; 'I' for Inactive)
REMARK    1  A    between atoms: C_2  and  C_15 
REMARK    2  A    between atoms: C_2  and  N_3 
REMARK       I    between atoms: N_3  and  C_4 
REMARK    3  A    between atoms: C_4  and  C_6 
REMARK    4  A    between atoms: C_10  and  N_11 
REMARK       I    between atoms: C_15  and  N_17 
REMARK    5  A    between atoms: N_17  and  N_18 
REMARK    6  A    between atoms: N_18  and  C_19 
REMARK    7  A    between atoms: C_19  and  N_21 
REMARK    8  A    between atoms: N_21  and  C_22 
ROOT
ATOM      1  C   UNL d   1      26.579 -12.755  -3.314  0.00  0.00     0.042 C 
ATOM      2  C   UNL d   1      25.790 -13.787  -4.118  0.00  0.00     0.174 C 
ENDROOT
BRANCH   2   3
ATOM      3  C   UNL d   1      26.703 -14.495  -5.189  0.00  0.00     0.258 C 
ATOM      4  O   UNL d   1      26.430 -15.601  -5.660  0.00  0.00    -0.269 OA
ATOM      5  N   UNL d   1      27.856 -13.804  -5.563  0.00  0.00    -0.266 N 
ATOM      6  H   UNL d   1      28.105 -12.887  -5.194  0.00  0.00     0.190 HD
BRANCH   5   7
ATOM      7  N   UNL d   1      28.788 -14.351  -6.527  0.00  0.00    -0.274 N 
ATOM      8  H   UNL d   1      28.855 -13.840  -7.405  0.00  0.00     0.189 HD
BRANCH   7   9
ATOM      9  C   UNL d   1      29.551 -15.483  -6.210  0.00  0.00     0.186 C 
ATOM     10  S   UNL d   1      30.723 -16.069  -7.268  0.00  0.00    -0.040 SA
BRANCH   9  11
ATOM     11  N   UNL d   1      29.249 -16.075  -4.981  0.00  0.00    -0.361 N 
ATOM     12  H   UNL d   1      28.311 -15.970  -4.613  0.00  0.00     0.162 HD
BRANCH  11  13
ATOM     13  C   UNL d   1      30.241 -16.726  -4.088  0.00  0.00     0.083 C 
ATOM     14  C   UNL d   1      29.851 -16.707  -2.606  0.00  0.00     0.025 C 
ATOM     15  C   UNL d   1      30.812 -17.696  -1.948  0.00  0.00     0.002 C 
ATOM     16  C   UNL d   1      31.128 -18.734  -3.023  0.00  0.00     0.002 C 
ATOM     17  C   UNL d   1      30.479 -18.225  -4.320  0.00  0.00     0.025 C 
ENDBRANCH  11  13
ENDBRANCH   9  11
ENDBRANCH   7   9
ENDBRANCH   5   7
ENDBRANCH   2   3
BRANCH   2  18
ATOM     18  N   UNL d   1      25.173 -14.745  -3.167  0.00  0.00    -0.344 N 
ATOM     19  C   UNL d   1      25.904 -15.739  -2.550  0.00  0.00     0.252 C 
ATOM     20  O   UNL d   1      27.086 -15.966  -2.808  0.00  0.00    -0.268 OA
ATOM     21  H   UNL d   1      24.275 -14.490  -2.775  0.00  0.00     0.163 HD
BRANCH  19  22
ATOM     22  C   UNL d   1      25.213 -16.596  -1.539  0.00  0.00     0.034 A 
ATOM     23  C   UNL d   1      25.984 -17.241  -0.556  0.00  0.00     0.017 A 
ATOM     24  C   UNL d   1      25.412 -18.195   0.295  0.00  0.00     0.003 A 
ATOM     25  C   UNL d   1      24.050 -18.479   0.211  0.00  0.00     0.036 A 
ATOM     26  C   UNL d   1      23.277 -17.834  -0.766  0.00  0.00     0.103 A 
ATOM     27  C   UNL d   1      23.849 -16.892  -1.644  0.00  0.00     0.053 A 
BRANCH  26  28
ATOM     28  N   UNL d   1      21.861 -18.197  -0.916  0.00  0.00    -0.116 N 
ATOM     29  O   UNL d   1      21.582 -19.396  -1.058  0.00  0.00    -0.532 OA
ATOM     30  O   UNL d   1      21.030 -17.279  -0.895  0.00  0.00    -0.532 OA
ENDBRANCH  26  28
ENDBRANCH  19  22
ENDBRANCH   2  18
TORSDOF 8
ENDMDL
MODEL 5
REMARK VINA RESULT:    -6.629      4.897      8.240
REMARK INTER + INTRA:         -11.351
REMARK INTER:                  -9.015
REMARK INTRA:                  -2.336
REMARK CONF_INDEPENDENT:        2.386
REMARK UNBOUND:                -2.336
REMARK  8 active torsions:
REMARK  status: ('A' for Active; 'I' for Inactive)
REMARK    1  A    between atoms: C_2  and  C_15 
REMARK    2  A    between atoms: C_2  and  N_3 
REMARK       I    between atoms: N_3  and  C_4 
REMARK    3  A    between atoms: C_4  and  C_6 
REMARK    4  A    between atoms: C_10  and  N_11 
REMARK       I    between atoms: C_15  and  N_17 
REMARK    5  A    between atoms: N_17  and  N_18 
REMARK    6  A    between atoms: N_18  and  C_19 
REMARK    7  A    between atoms: C_19  and  N_21 
REMARK    8  A    between atoms: N_21  and  C_22 
ROOT
ATOM      1  C   UNL d   1      27.133 -11.888  -5.411  0.00  0.00     0.042 C 
ATOM      2  C   UNL d   1      25.732 -12.003  -4.812  0.00  0.00     0.174 C 
ENDROOT
BRANCH   2   3
ATOM      3  C   UNL d   1      25.623 -13.249  -3.852  0.00  0.00     0.258 C 
ATOM      4  O   UNL d   1      25.142 -14.323  -4.219  0.00  0.00    -0.269 OA
ATOM      5  N   UNL d   1      26.085 -13.060  -2.550  0.00  0.00    -0.266 N 
ATOM      6  H   UNL d   1      26.492 -12.186  -2.220  0.00  0.00     0.190 HD
BRANCH   5   7
ATOM      7  N   UNL d   1      26.029 -14.121  -1.565  0.00  0.00    -0.274 N 
ATOM      8  H   UNL d   1      25.677 -13.846  -0.650  0.00  0.00     0.189 HD
BRANCH   7   9
ATOM      9  C   UNL d   1      26.404 -15.427  -1.909  0.00  0.00     0.186 C 
ATOM     10  S   UNL d   1      27.976 -15.977  -1.663  0.00  0.00    -0.040 SA
BRANCH   9  11
ATOM     11  N   UNL d   1      25.390 -16.203  -2.477  0.00  0.00    -0.361 N 
ATOM     12  H   UNL d   1      25.083 -15.983  -3.416  0.00  0.00     0.162 HD
BRANCH  11  13
ATOM     13  C   UNL d   1      24.613 -17.242  -1.752  0.00  0.00     0.083 C 
ATOM     14  C   UNL d   1      25.327 -17.807  -0.520  0.00  0.00     0.025 C 
ATOM     15  C   UNL d   1      24.240 -18.574   0.229  0.00  0.00     0.002 C 
ATOM     16  C   UNL d   1      22.934 -17.847  -0.089  0.00  0.00     0.002 C 
ATOM     17  C   UNL d   1      23.277 -16.786  -1.147  0.00  0.00     0.025 C 
ENDBRANCH  11  13
ENDBRANCH   9  11
ENDBRANCH   7   9
ENDBRANCH   5   7
ENDBRANCH   2   3
BRANCH   2  18
ATOM     18  N   UNL d   1      25.411 -10.725  -4.130  0.00  0.00    -0.344 N 
ATOM     19  C   UNL d   1      26.313 -10.088  -3.302  0.00  0.00     0.252 C 
ATOM     20  O   UNL d   1      27.403 -10.570  -2.995  0.00  0.00    -0.268 OA
ATOM     21  H   UNL d   1      24.628 -10.195  -4.491  0.00  0.00     0.163 HD
BRANCH  19  22
ATOM     22  C   UNL d   1      25.929  -8.760  -2.735  0.00  0.00     0.034 A 
ATOM     23  C   UNL d   1      26.012  -7.622  -3.558  0.00  0.00     0.017 A 
ATOM     24  C   UNL d   1      25.844  -6.337  -3.027  0.00  0.00     0.003 A 
ATOM     25  C   UNL d   1      25.537  -6.174  -1.676  0.00  0.00     0.036 A 
ATOM     26  C   UNL d   1      25.450  -7.306  -0.855  0.00  0.00     0.103 A 
ATOM     27  C   UNL d   1      25.644  -8.602  -1.374  0.00  0.00     0.053 A 
BRANCH  26  28
ATOM     28  N   UNL d   1      25.215  -7.132   0.586  0.00  0.00    -0.116 N 
ATOM     29  O   UNL d   1      24.810  -6.028   0.977  0.00  0.00    -0.532 OA
ATOM     30  O   UNL d   1      25.441  -8.100   1.324  0.00  0.00    -0.532 OA
ENDBRANCH  26  28
ENDBRANCH  19  22
ENDBRANCH   2  18
TORSDOF 8
ENDMDL
MODEL 6
REMARK VINA RESULT:    -6.354      1.892      3.456
REMARK INTER + INTRA:         -11.160
REMARK INTER:                  -8.741
REMARK INTRA:                  -2.420
REMARK CONF_INDEPENDENT:        2.386
REMARK UNBOUND:                -2.420
REMARK  8 active torsions:
REMARK  status: ('A' for Active; 'I' for Inactive)
REMARK    1  A    between atoms: C_2  and  C_15 
REMARK    2  A    between atoms: C_2  and  N_3 
REMARK       I    between atoms: N_3  and  C_4 
REMARK    3  A    between atoms: C_4  and  C_6 
REMARK    4  A    between atoms: C_10  and  N_11 
REMARK       I    between atoms: C_15  and  N_17 
REMARK    5  A    between atoms: N_17  and  N_18 
REMARK    6  A    between atoms: N_18  and  C_19 
REMARK    7  A    between atoms: C_19  and  N_21 
REMARK    8  A    between atoms: N_21  and  C_22 
ROOT
ATOM      1  C   UNL d   1      27.796 -13.559  -2.993  0.00  0.00     0.042 C 
ATOM      2  C   UNL d   1      26.783 -14.293  -3.870  0.00  0.00     0.174 C 
ENDROOT
BRANCH   2   3
ATOM      3  C   UNL d   1      27.505 -15.149  -4.979  0.00  0.00     0.258 C 
ATOM      4  O   UNL d   1      27.069 -15.240  -6.129  0.00  0.00    -0.269 OA
ATOM      5  N   UNL d   1      28.661 -15.819  -4.579  0.00  0.00    -0.266 N 
ATOM      6  H   UNL d   1      29.048 -15.759  -3.638  0.00  0.00     0.190 HD
BRANCH   5   7
ATOM      7  N   UNL d   1      29.411 -16.651  -5.498  0.00  0.00    -0.274 N 
ATOM      8  H   UNL d   1      29.326 -17.654  -5.345  0.00  0.00     0.189 HD
BRANCH   7   9
ATOM      9  C   UNL d   1      30.154 -16.068  -6.534  0.00  0.00     0.186 C 
ATOM     10  S   UNL d   1      31.718 -16.586  -6.884  0.00  0.00    -0.040 SA
BRANCH   9  11
ATOM     11  N   UNL d   1      29.506 -15.037  -7.219  0.00  0.00    -0.361 N 
ATOM     12  H   UNL d   1      28.889 -15.280  -7.984  0.00  0.00     0.162 HD
BRANCH  11  13
ATOM     13  C   UNL d   1      29.768 -13.589  -7.013  0.00  0.00     0.083 C 
ATOM     14  C   UNL d   1      28.510 -12.715  -7.073  0.00  0.00     0.025 C 
ATOM     15  C   UNL d   1      28.959 -11.367  -6.513  0.00  0.00     0.002 C 
ATOM     16  C   UNL d   1      30.068 -11.689  -5.513  0.00  0.00     0.002 C 
ATOM     17  C   UNL d   1      30.348 -13.194  -5.647  0.00  0.00     0.025 C 
ENDBRANCH  11  13
ENDBRANCH   9  11
ENDBRANCH   7   9
ENDBRANCH   5   7
ENDBRANCH   2   3
BRANCH   2  18
ATOM     18  N   UNL d   1      25.913 -15.112  -2.990  0.00  0.00    -0.344 N 
ATOM     19  C   UNL d   1      26.411 -16.141  -2.217  0.00  0.00     0.252 C 
ATOM     20  O   UNL d   1      27.583 -16.516  -2.267  0.00  0.00    -0.268 OA
ATOM     21  H   UNL d   1      25.002 -14.733  -2.762  0.00  0.00     0.163 HD
BRANCH  19  22
ATOM     22  C   UNL d   1      25.470 -16.847  -1.295  0.00  0.00     0.034 A 
ATOM     23  C   UNL d   1      25.967 -17.364  -0.086  0.00  0.00     0.017 A 
ATOM     24  C   UNL d   1      25.175 -18.189   0.723  0.00  0.00     0.003 A 
ATOM     25  C   UNL d   1      23.857 -18.465   0.360  0.00  0.00     0.036 A 
ATOM     26  C   UNL d   1      23.358 -17.948  -0.843  0.00  0.00     0.103 A 
ATOM     27  C   UNL d   1      24.156 -17.138  -1.676  0.00  0.00     0.053 A 
BRANCH  26  28
ATOM     28  N   UNL d   1      21.999 -18.310  -1.272  0.00  0.00    -0.116 N 
ATOM     29  O   UNL d   1      21.864 -19.322  -1.974  0.00  0.00    -0.532 OA
ATOM     30  O   UNL d   1      21.070 -17.576  -0.909  0.00  0.00    -0.532 OA
ENDBRANCH  26  28
ENDBRANCH  19  22
ENDBRANCH   2  18
TORSDOF 8
ENDMDL
MODEL 7
REMARK VINA RESULT:    -6.297      3.361      4.887
REMARK INTER + INTRA:         -11.251
REMARK INTER:                  -8.684
REMARK INTRA:                  -2.567
REMARK CONF_INDEPENDENT:        2.386
REMARK UNBOUND:                -2.567
REMARK  8 active torsions:
REMARK  status: ('A' for Active; 'I' for Inactive)
REMARK    1  A    between atoms: C_2  and  C_15 
REMARK    2  A    between atoms: C_2  and  N_3 
REMARK       I    between atoms: N_3  and  C_4 
REMARK    3  A    between atoms: C_4  and  C_6 
REMARK    4  A    between atoms: C_10  and  N_11 
REMARK       I    between atoms: C_15  and  N_17 
REMARK    5  A    between atoms: N_17  and  N_18 
REMARK    6  A    between atoms: N_18  and  C_19 
REMARK    7  A    between atoms: C_19  and  N_21 
REMARK    8  A    between atoms: N_21  and  C_22 
ROOT
ATOM      1  C   UNL d   1      27.873 -15.336  -5.202  0.00  0.00     0.042 C 
ATOM      2  C   UNL d   1      27.993 -14.528  -3.911  0.00  0.00     0.174 C 
ENDROOT
BRANCH   2   3
ATOM      3  C   UNL d   1      27.411 -13.075  -4.092  0.00  0.00     0.258 C 
ATOM      4  O   UNL d   1      27.983 -12.076  -3.650  0.00  0.00    -0.269 OA
ATOM      5  N   UNL d   1      26.194 -12.983  -4.767  0.00  0.00    -0.266 N 
ATOM      6  H   UNL d   1      25.701 -13.790  -5.148  0.00  0.00     0.190 HD
BRANCH   5   7
ATOM      7  N   UNL d   1      25.544 -11.707  -4.987  0.00  0.00    -0.274 N 
ATOM      8  H   UNL d   1      24.653 -11.585  -4.510  0.00  0.00     0.189 HD
BRANCH   7   9
ATOM      9  C   UNL d   1      26.159 -10.727  -5.778  0.00  0.00     0.186 C 
ATOM     10  S   UNL d   1      25.407  -9.251  -6.081  0.00  0.00    -0.040 SA
BRANCH   9  11
ATOM     11  N   UNL d   1      27.410 -11.081  -6.292  0.00  0.00    -0.361 N 
ATOM     12  H   UNL d   1      28.175 -11.221  -5.644  0.00  0.00     0.162 HD
BRANCH  11  13
ATOM     13  C   UNL d   1      27.750 -11.121  -7.738  0.00  0.00     0.083 C 
ATOM     14  C   UNL d   1      28.448 -12.413  -8.176  0.00  0.00     0.025 C 
ATOM     15  C   UNL d   1      28.391 -12.374  -9.702  0.00  0.00     0.002 C 
ATOM     16  C   UNL d   1      27.118 -11.602 -10.044  0.00  0.00     0.002 C 
ATOM     17  C   UNL d   1      26.565 -11.069  -8.713  0.00  0.00     0.025 C 
ENDBRANCH  11  13
ENDBRANCH   9  11
ENDBRANCH   7   9
ENDBRANCH   5   7
ENDBRANCH   2   3
BRANCH   2  18
ATOM     18  N   UNL d   1      27.322 -15.283  -2.825  0.00  0.00    -0.344 N 
ATOM     19  C   UNL d   1      25.966 -15.539  -2.839  0.00  0.00     0.252 C 
ATOM     20  O   UNL d   1      25.203 -15.086  -3.692  0.00  0.00    -0.268 OA
ATOM     21  H   UNL d   1      27.912 -15.836  -2.216  0.00  0.00     0.163 HD
BRANCH  19  22
ATOM     22  C   UNL d   1      25.399 -16.387  -1.746  0.00  0.00     0.034 A 
ATOM     23  C   UNL d   1      26.251 -16.819  -0.714  0.00  0.00     0.017 A 
ATOM     24  C   UNL d   1      25.817 -17.761   0.228  0.00  0.00     0.003 A 
ATOM     25  C   UNL d   1      24.509 -18.243   0.183  0.00  0.00     0.036 A 
ATOM     26  C   UNL d   1      23.657 -17.810  -0.842  0.00  0.00     0.103 A 
ATOM     27  C   UNL d   1      24.093 -16.883  -1.810  0.00  0.00     0.053 A 
BRANCH  26  28
ATOM     28  N   UNL d   1      22.308 -18.384  -0.945  0.00  0.00    -0.116 N 
ATOM     29  O   UNL d   1      21.417 -17.900  -0.232  0.00  0.00    -0.532 OA
ATOM     30  O   UNL d   1      22.143 -19.322  -1.736  0.00  0.00    -0.532 OA
ENDBRANCH  26  28
ENDBRANCH  19  22
ENDBRANCH   2  18
TORSDOF 8
ENDMDL
MODEL 8
REMARK VINA RESULT:    -5.956      5.352      8.242
REMARK INTER + INTRA:         -11.684
REMARK INTER:                  -8.342
REMARK INTRA:                  -3.342
REMARK CONF_INDEPENDENT:        2.386
REMARK UNBOUND:                -3.342
REMARK  8 active torsions:
REMARK  status: ('A' for Active; 'I' for Inactive)
REMARK    1  A    between atoms: C_2  and  C_15 
REMARK    2  A    between atoms: C_2  and  N_3 
REMARK       I    between atoms: N_3  and  C_4 
REMARK    3  A    between atoms: C_4  and  C_6 
REMARK    4  A    between atoms: C_10  and  N_11 
REMARK       I    between atoms: C_15  and  N_17 
REMARK    5  A    between atoms: N_17  and  N_18 
REMARK    6  A    between atoms: N_18  and  C_19 
REMARK    7  A    between atoms: C_19  and  N_21 
REMARK    8  A    between atoms: N_21  and  C_22 
ROOT
ATOM      1  C   UNL d   1      31.673 -13.107  -0.857  0.00  0.00     0.042 C 
ATOM      2  C   UNL d   1      31.003 -14.214  -0.045  0.00  0.00     0.174 C 
ENDROOT
BRANCH   2   3
ATOM      3  C   UNL d   1      30.820 -13.786   1.460  0.00  0.00     0.258 C 
ATOM      4  O   UNL d   1      30.746 -12.604   1.805  0.00  0.00    -0.269 OA
ATOM      5  N   UNL d   1      30.767 -14.824   2.390  0.00  0.00    -0.266 N 
ATOM      6  H   UNL d   1      30.820 -15.809   2.134  0.00  0.00     0.190 HD
BRANCH   5   7
ATOM      7  N   UNL d   1      30.615 -14.566   3.807  0.00  0.00    -0.274 N 
ATOM      8  H   UNL d   1      31.480 -14.376   4.309  0.00  0.00     0.189 HD
BRANCH   7   9
ATOM      9  C   UNL d   1      29.341 -14.549   4.390  0.00  0.00     0.186 C 
ATOM     10  S   UNL d   1      29.147 -14.450   6.060  0.00  0.00    -0.040 SA
BRANCH   9  11
ATOM     11  N   UNL d   1      28.276 -14.636   3.490  0.00  0.00    -0.361 N 
ATOM     12  H   UNL d   1      28.157 -15.496   2.967  0.00  0.00     0.162 HD
BRANCH  11  13
ATOM     13  C   UNL d   1      27.384 -13.507   3.121  0.00  0.00     0.083 C 
ATOM     14  C   UNL d   1      27.900 -12.135   3.567  0.00  0.00     0.025 C 
ATOM     15  C   UNL d   1      27.029 -11.138   2.806  0.00  0.00     0.002 C 
ATOM     16  C   UNL d   1      26.652 -11.836   1.501  0.00  0.00     0.002 C 
ATOM     17  C   UNL d   1      27.172 -13.278   1.617  0.00  0.00     0.025 C 
ENDBRANCH  11  13
ENDBRANCH   9  11
ENDBRANCH   7   9
ENDBRANCH   5   7
ENDBRANCH   2   3
BRANCH   2  18
ATOM     18  N   UNL d   1      29.719 -14.561  -0.702  0.00  0.00    -0.344 N 
ATOM     19  C   UNL d   1      28.783 -15.377  -0.100  0.00  0.00     0.252 C 
ATOM     20  O   UNL d   1      28.979 -15.950   0.972  0.00  0.00    -0.268 OA
ATOM     21  H   UNL d   1      29.425 -13.976  -1.475  0.00  0.00     0.163 HD
BRANCH  19  22
ATOM     22  C   UNL d   1      27.482 -15.593  -0.803  0.00  0.00     0.034 A 
ATOM     23  C   UNL d   1      26.484 -16.350  -0.164  0.00  0.00     0.017 A 
ATOM     24  C   UNL d   1      25.325 -16.736  -0.849  0.00  0.00     0.003 A 
ATOM     25  C   UNL d   1      25.123 -16.325  -2.166  0.00  0.00     0.036 A 
ATOM     26  C   UNL d   1      26.114 -15.567  -2.805  0.00  0.00     0.103 A 
ATOM     27  C   UNL d   1      27.296 -15.197  -2.132  0.00  0.00     0.053 A 
BRANCH  26  28
ATOM     28  N   UNL d   1      25.944 -15.209  -4.220  0.00  0.00    -0.116 N 
ATOM     29  O   UNL d   1      26.818 -15.575  -5.019  0.00  0.00    -0.532 OA
ATOM     30  O   UNL d   1      24.938 -14.556  -4.528  0.00  0.00    -0.532 OA
ENDBRANCH  26  28
ENDBRANCH  19  22
ENDBRANCH   2  18
TORSDOF 8
ENDMDL
MODEL 9
REMARK VINA RESULT:    -5.610      5.448      8.571
REMARK INTER + INTRA:         -11.159
REMARK INTER:                  -7.996
REMARK INTRA:                  -3.163
REMARK CONF_INDEPENDENT:        2.386
REMARK UNBOUND:                -3.163
REMARK  8 active torsions:
REMARK  status: ('A' for Active; 'I' for Inactive)
REMARK    1  A    between atoms: C_2  and  C_15 
REMARK    2  A    between atoms: C_2  and  N_3 
REMARK       I    between atoms: N_3  and  C_4 
REMARK    3  A    between atoms: C_4  and  C_6 
REMARK    4  A    between atoms: C_10  and  N_11 
REMARK       I    between atoms: C_15  and  N_17 
REMARK    5  A    between atoms: N_17  and  N_18 
REMARK    6  A    between atoms: N_18  and  C_19 
REMARK    7  A    between atoms: C_19  and  N_21 
REMARK    8  A    between atoms: N_21  and  C_22 
ROOT
ATOM      1  C   UNL d   1      25.466 -15.731  -1.540  0.00  0.00     0.042 C 
ATOM      2  C   UNL d   1      26.273 -14.466  -1.825  0.00  0.00     0.174 C 
ENDROOT
BRANCH   2   3
ATOM      3  C   UNL d   1      25.599 -13.602  -2.957  0.00  0.00     0.258 C 
ATOM      4  O   UNL d   1      24.785 -14.077  -3.752  0.00  0.00    -0.269 OA
ATOM      5  N   UNL d   1      25.993 -12.265  -3.024  0.00  0.00    -0.266 N 
ATOM      6  H   UNL d   1      26.659 -11.845  -2.378  0.00  0.00     0.190 HD
BRANCH   5   7
ATOM      7  N   UNL d   1      25.460 -11.368  -4.027  0.00  0.00    -0.274 N 
ATOM      8  H   UNL d   1      24.779 -11.780  -4.662  0.00  0.00     0.189 HD
BRANCH   7   9
ATOM      9  C   UNL d   1      25.854 -10.023  -4.054  0.00  0.00     0.186 C 
ATOM     10  S   UNL d   1      26.908  -9.446  -5.234  0.00  0.00    -0.040 SA
BRANCH   9  11
ATOM     11  N   UNL d   1      25.325  -9.230  -3.032  0.00  0.00    -0.361 N 
ATOM     12  H   UNL d   1      24.415  -8.807  -3.173  0.00  0.00     0.162 HD
BRANCH  11  13
ATOM     13  C   UNL d   1      26.058  -8.829  -1.804  0.00  0.00     0.083 C 
ATOM     14  C   UNL d   1      27.583  -8.885  -1.945  0.00  0.00     0.025 C 
ATOM     15  C   UNL d   1      28.104  -8.130  -0.724  0.00  0.00     0.002 C 
ATOM     16  C   UNL d   1      27.034  -7.088  -0.401  0.00  0.00     0.002 C 
ATOM     17  C   UNL d   1      25.849  -7.381  -1.335  0.00  0.00     0.025 C 
ENDBRANCH  11  13
ENDBRANCH   9  11
ENDBRANCH   7   9
ENDBRANCH   5   7
ENDBRANCH   2   3
BRANCH   2  18
ATOM     18  N   UNL d   1      26.432 -13.719  -0.552  0.00  0.00    -0.344 N 
ATOM     19  C   UNL d   1      27.421 -12.774  -0.374  0.00  0.00     0.252 C 
ATOM     20  O   UNL d   1      28.296 -12.548  -1.211  0.00  0.00    -0.268 OA
ATOM     21  H   UNL d   1      25.642 -13.719   0.082  0.00  0.00     0.163 HD
BRANCH  19  22
ATOM     22  C   UNL d   1      27.441 -12.011   0.910  0.00  0.00     0.034 A 
ATOM     23  C   UNL d   1      27.901 -12.654   2.073  0.00  0.00     0.017 A 
ATOM     24  C   UNL d   1      27.768 -12.048   3.330  0.00  0.00     0.003 A 
ATOM     25  C   UNL d   1      27.222 -10.769   3.435  0.00  0.00     0.036 A 
ATOM     26  C   UNL d   1      26.767 -10.125   2.276  0.00  0.00     0.103 A 
ATOM     27  C   UNL d   1      26.872 -10.736   1.011  0.00  0.00     0.053 A 
BRANCH  26  28
ATOM     28  N   UNL d   1      26.111  -8.815   2.394  0.00  0.00    -0.116 N 
ATOM     29  O   UNL d   1      26.558  -8.016   3.229  0.00  0.00    -0.532 OA
ATOM     30  O   UNL d   1      25.144  -8.590   1.654  0.00  0.00    -0.532 OA
ENDBRANCH  26  28
ENDBRANCH  19  22
ENDBRANCH   2  18
TORSDOF 8
ENDMDL
