MODEL 1
REMARK VINA RESULT:    -8.379      0.000      0.000
REMARK INTER + INTRA:         -11.624
REMARK INTER:                 -10.467
REMARK INTRA:                  -1.157
REMARK CONF_INDEPENDENT:        2.088
REMARK UNBOUND:                -1.157
REMARK  7 active torsions:
REMARK  status: ('A' for Active; 'I' for Inactive)
REMARK    1  A    between atoms: C_2  and  C_3 
REMARK    2  A    between atoms: C_6  and  N_7 
REMARK    3  A    between atoms: C_11  and  S_12 
REMARK    4  A    between atoms: S_12  and  N_15 
REMARK    5  A    between atoms: N_15  and  C_16 
REMARK    6  A    between atoms: C_19  and  O_20 
REMARK    7  A    between atoms: C_22  and  N_23 
REMARK       I    between atoms: N_23  and  C_24 
ROOT
ATOM      1  N   UNL d   1      28.301 -15.070   1.092  0.00  0.00    -0.281 N 
ATOM      2  H   UNL d   1      28.882 -15.578   1.735  0.00  0.00     0.179 HD
ENDROOT
BRANCH   1   3
ATOM      3  S   UNL d   1      28.474 -13.396   0.842  0.00  0.00     0.263 S 
ATOM      4  O   UNL d   1      27.453 -13.041  -0.135  0.00  0.00    -0.200 OA
ATOM      5  O   UNL d   1      29.854 -13.064   0.615  0.00  0.00    -0.200 OA
BRANCH   3   6
ATOM      6  C   UNL d   1      28.080 -12.457   2.336  0.00  0.00     0.088 A 
ATOM      7  C   UNL d   1      27.304 -11.284   2.137  0.00  0.00     0.061 A 
ATOM      8  C   UNL d   1      26.989 -10.460   3.231  0.00  0.00     0.104 A 
ATOM      9  C   UNL d   1      27.405 -10.803   4.515  0.00  0.00     0.037 A 
ATOM     10  C   UNL d   1      28.230 -11.902   4.688  0.00  0.00     0.011 A 
ATOM     11  C   UNL d   1      28.598 -12.730   3.615  0.00  0.00    -0.035 A 
BRANCH   8  12
ATOM     12  N   UNL d   1      26.275  -9.187   3.060  0.00  0.00    -0.116 N 
ATOM     13  O   UNL d   1      26.788  -8.171   3.556  0.00  0.00    -0.532 OA
ATOM     14  O   UNL d   1      25.219  -9.198   2.416  0.00  0.00    -0.532 OA
ENDBRANCH   8  12
BRANCH  11  15
ATOM     15  C   UNL d   1      29.508 -13.875   3.914  0.00  0.00     0.035 C 
ATOM     16  C   UNL d   1      29.123 -14.825   5.020  0.00  0.00     0.010 C 
ENDBRANCH  11  15
ENDBRANCH   3   6
ENDBRANCH   1   3
BRANCH   1  17
ATOM     17  C   UNL d   1      27.232 -15.863   0.580  0.00  0.00     0.045 C 
ATOM     18  C   UNL d   1      27.030 -17.171   0.974  0.00  0.00     0.033 C 
ATOM     19  C   UNL d   1      26.050 -17.930   0.311  0.00  0.00     0.041 C 
ATOM     20  C   UNL d   1      25.287 -17.397  -0.763  0.00  0.00     0.095 C 
ATOM     21  C   UNL d   1      25.578 -16.099  -1.220  0.00  0.00     0.070 C 
ATOM     22  C   UNL d   1      26.479 -15.376  -0.459  0.00  0.00     0.062 C 
BRANCH  20  23
ATOM     23  O   UNL d   1      24.300 -18.256  -1.178  0.00  0.00    -0.354 OA
ATOM     24  C   UNL d   1      22.967 -18.008  -0.759  0.00  0.00     0.210 C 
ENDBRANCH  20  23
BRANCH  21  25
ATOM     25  N   UNL d   1      25.025 -15.472  -2.361  0.00  0.00    -0.325 N 
ATOM     26  C   UNL d   1      25.530 -14.983  -3.528  0.00  0.00     0.218 C 
ATOM     27  C   UNL d   1      26.970 -15.049  -3.951  0.00  0.00     0.117 C 
ATOM     28  O   UNL d   1      24.713 -14.449  -4.291  0.00  0.00    -0.274 OA
ATOM     29  H   UNL d   1      24.031 -15.356  -2.417  0.00  0.00     0.169 HD
ENDBRANCH  21  25
ENDBRANCH   1  17
TORSDOF 7
ENDMDL
MODEL 2
REMARK VINA RESULT:    -8.093      4.730      7.727
REMARK INTER + INTRA:         -11.399
REMARK INTER:                 -10.181
REMARK INTRA:                  -1.218
REMARK CONF_INDEPENDENT:        2.088
REMARK UNBOUND:                -1.218
REMARK  7 active torsions:
REMARK  status: ('A' for Active; 'I' for Inactive)
REMARK    1  A    between atoms: C_2  and  C_3 
REMARK    2  A    between atoms: C_6  and  N_7 
REMARK    3  A    between atoms: C_11  and  S_12 
REMARK    4  A    between atoms: S_12  and  N_15 
REMARK    5  A    between atoms: N_15  and  C_16 
REMARK    6  A    between atoms: C_19  and  O_20 
REMARK    7  A    between atoms: C_22  and  N_23 
REMARK       I    between atoms: N_23  and  C_24 
ROOT
ATOM      1  N   UNL d   1      26.820 -15.587  -3.141  0.00  0.00    -0.281 N 
ATOM      2  H   UNL d   1      27.253 -16.494  -3.148  0.00  0.00     0.179 HD
ENDROOT
BRANCH   1   3
ATOM      3  S   UNL d   1      25.526 -15.208  -2.103  0.00  0.00     0.263 S 
ATOM      4  O   UNL d   1      24.469 -14.700  -2.968  0.00  0.00    -0.200 OA
ATOM      5  O   UNL d   1      25.994 -14.436  -0.983  0.00  0.00    -0.200 OA
BRANCH   3   6
ATOM      6  C   UNL d   1      24.854 -16.688  -1.312  0.00  0.00     0.088 A 
ATOM      7  C   UNL d   1      23.504 -16.996  -1.632  0.00  0.00     0.061 A 
ATOM      8  C   UNL d   1      22.876 -18.098  -1.028  0.00  0.00     0.104 A 
ATOM      9  C   UNL d   1      23.578 -18.911  -0.142  0.00  0.00     0.037 A 
ATOM     10  C   UNL d   1      24.865 -18.556   0.227  0.00  0.00     0.011 A 
ATOM     11  C   UNL d   1      25.515 -17.441  -0.325  0.00  0.00    -0.035 A 
BRANCH   8  12
ATOM     12  N   UNL d   1      21.455 -18.397  -1.252  0.00  0.00    -0.116 N 
ATOM     13  O   UNL d   1      20.653 -17.453  -1.183  0.00  0.00    -0.532 OA
ATOM     14  O   UNL d   1      21.145 -19.565  -1.518  0.00  0.00    -0.532 OA
ENDBRANCH   8  12
BRANCH  11  15
ATOM     15  C   UNL d   1      26.894 -17.140   0.163  0.00  0.00     0.035 C 
ATOM     16  C   UNL d   1      28.041 -17.277  -0.807  0.00  0.00     0.010 C 
ENDBRANCH  11  15
ENDBRANCH   3   6
ENDBRANCH   1   3
BRANCH   1  17
ATOM     17  C   UNL d   1      27.283 -14.753  -4.201  0.00  0.00     0.045 C 
ATOM     18  C   UNL d   1      26.656 -13.569  -4.536  0.00  0.00     0.033 C 
ATOM     19  C   UNL d   1      27.082 -12.883  -5.687  0.00  0.00     0.041 C 
ATOM     20  C   UNL d   1      28.116 -13.387  -6.521  0.00  0.00     0.095 C 
ATOM     21  C   UNL d   1      28.672 -14.645  -6.224  0.00  0.00     0.070 C 
ATOM     22  C   UNL d   1      28.279 -15.213  -5.026  0.00  0.00     0.062 C 
BRANCH  20  23
ATOM     23  O   UNL d   1      28.465 -12.502  -7.511  0.00  0.00    -0.354 OA
ATOM     24  C   UNL d   1      29.800 -12.517  -7.991  0.00  0.00     0.210 C 
ENDBRANCH  20  23
BRANCH  21  25
ATOM     25  N   UNL d   1      29.596 -15.358  -7.022  0.00  0.00    -0.325 N 
ATOM     26  C   UNL d   1      30.418 -16.425  -6.818  0.00  0.00     0.218 C 
ATOM     27  C   UNL d   1      30.511 -17.226  -5.550  0.00  0.00     0.117 C 
ATOM     28  O   UNL d   1      31.136 -16.748  -7.774  0.00  0.00    -0.274 OA
ATOM     29  H   UNL d   1      29.703 -15.105  -7.986  0.00  0.00     0.169 HD
ENDBRANCH  21  25
ENDBRANCH   1  17
TORSDOF 7
ENDMDL
MODEL 3
REMARK VINA RESULT:    -8.059      4.568      7.264
REMARK INTER + INTRA:         -11.598
REMARK INTER:                 -10.147
REMARK INTRA:                  -1.452
REMARK CONF_INDEPENDENT:        2.088
REMARK UNBOUND:                -1.452
REMARK  7 active torsions:
REMARK  status: ('A' for Active; 'I' for Inactive)
REMARK    1  A    between atoms: C_2  and  C_3 
REMARK    2  A    between atoms: C_6  and  N_7 
REMARK    3  A    between atoms: C_11  and  S_12 
REMARK    4  A    between atoms: S_12  and  N_15 
REMARK    5  A    between atoms: N_15  and  C_16 
REMARK    6  A    between atoms: C_19  and  O_20 
REMARK    7  A    between atoms: C_22  and  N_23 
REMARK       I    between atoms: N_23  and  C_24 
ROOT
ATOM      1  N   UNL d   1      27.692 -15.124  -2.734  0.00  0.00    -0.281 N 
ATOM      2  H   UNL d   1      28.303 -14.953  -1.955  0.00  0.00     0.179 HD
ENDROOT
BRANCH   1   3
ATOM      3  S   UNL d   1      25.998 -15.060  -2.590  0.00  0.00     0.263 S 
ATOM      4  O   UNL d   1      25.484 -15.302  -3.931  0.00  0.00    -0.200 OA
ATOM      5  O   UNL d   1      25.603 -13.892  -1.851  0.00  0.00    -0.200 OA
BRANCH   3   6
ATOM      6  C   UNL d   1      25.368 -16.410  -1.565  0.00  0.00     0.088 A 
ATOM      7  C   UNL d   1      24.030 -16.807  -1.828  0.00  0.00     0.061 A 
ATOM      8  C   UNL d   1      23.433 -17.814  -1.050  0.00  0.00     0.104 A 
ATOM      9  C   UNL d   1      24.156 -18.448  -0.043  0.00  0.00     0.037 A 
ATOM     10  C   UNL d   1      25.430 -17.998   0.261  0.00  0.00     0.011 A 
ATOM     11  C   UNL d   1      26.048 -16.969  -0.468  0.00  0.00    -0.035 A 
BRANCH   8  12
ATOM     12  N   UNL d   1      22.023 -18.189  -1.219  0.00  0.00    -0.116 N 
ATOM     13  O   UNL d   1      21.781 -19.325  -1.658  0.00  0.00    -0.532 OA
ATOM     14  O   UNL d   1      21.161 -17.363  -0.895  0.00  0.00    -0.532 OA
ENDBRANCH   8  12
BRANCH  11  15
ATOM     15  C   UNL d   1      27.415 -16.550  -0.039  0.00  0.00     0.035 C 
ATOM     16  C   UNL d   1      28.592 -17.379  -0.490  0.00  0.00     0.010 C 
ENDBRANCH  11  15
ENDBRANCH   3   6
ENDBRANCH   1   3
BRANCH   1  17
ATOM     17  C   UNL d   1      28.393 -15.595  -3.883  0.00  0.00     0.045 C 
ATOM     18  C   UNL d   1      29.342 -16.596  -3.809  0.00  0.00     0.033 C 
ATOM     19  C   UNL d   1      30.095 -16.897  -4.958  0.00  0.00     0.041 C 
ATOM     20  C   UNL d   1      29.922 -16.185  -6.176  0.00  0.00     0.095 C 
ATOM     21  C   UNL d   1      29.027 -15.101  -6.205  0.00  0.00     0.070 C 
ATOM     22  C   UNL d   1      28.249 -14.928  -5.074  0.00  0.00     0.062 C 
BRANCH  20  23
ATOM     23  O   UNL d   1      30.657 -16.723  -7.203  0.00  0.00    -0.354 OA
ATOM     24  C   UNL d   1      31.148 -18.047  -7.061  0.00  0.00     0.210 C 
ENDBRANCH  20  23
BRANCH  21  25
ATOM     25  N   UNL d   1      28.842 -14.199  -7.278  0.00  0.00    -0.325 N 
ATOM     26  C   UNL d   1      28.333 -12.940  -7.398  0.00  0.00     0.218 C 
ATOM     27  C   UNL d   1      27.831 -12.090  -6.267  0.00  0.00     0.117 C 
ATOM     28  O   UNL d   1      28.297 -12.477  -8.547  0.00  0.00    -0.274 OA
ATOM     29  H   UNL d   1      29.168 -14.456  -8.190  0.00  0.00     0.169 HD
ENDBRANCH  21  25
ENDBRANCH   1  17
TORSDOF 7
ENDMDL
MODEL 4
REMARK VINA RESULT:    -7.804      4.571      7.555
REMARK INTER + INTRA:         -11.211
REMARK INTER:                  -9.892
REMARK INTRA:                  -1.320
REMARK CONF_INDEPENDENT:        2.088
REMARK UNBOUND:                -1.320
REMARK  7 active torsions:
REMARK  status: ('A' for Active; 'I' for Inactive)
REMARK    1  A    between atoms: C_2  and  C_3 
REMARK    2  A    between atoms: C_6  and  N_7 
REMARK    3  A    between atoms: C_11  and  S_12 
REMARK    4  A    between atoms: S_12  and  N_15 
REMARK    5  A    between atoms: N_15  and  C_16 
REMARK    6  A    between atoms: C_19  and  O_20 
REMARK    7  A    between atoms: C_22  and  N_23 
REMARK       I    between atoms: N_23  and  C_24 
ROOT
ATOM      1  N   UNL d   1      26.450 -15.414  -3.389  0.00  0.00    -0.281 N 
ATOM      2  H   UNL d   1      26.799 -16.350  -3.498  0.00  0.00     0.179 HD
ENDROOT
BRANCH   1   3
ATOM      3  S   UNL d   1      25.336 -14.999  -2.171  0.00  0.00     0.263 S 
ATOM      4  O   UNL d   1      24.157 -14.508  -2.874  0.00  0.00    -0.200 OA
ATOM      5  O   UNL d   1      25.974 -14.200  -1.161  0.00  0.00    -0.200 OA
BRANCH   3   6
ATOM      6  C   UNL d   1      24.793 -16.453  -1.245  0.00  0.00     0.088 A 
ATOM      7  C   UNL d   1      23.452 -16.862  -1.475  0.00  0.00     0.061 A 
ATOM      8  C   UNL d   1      22.921 -17.952  -0.763  0.00  0.00     0.104 A 
ATOM      9  C   UNL d   1      23.711 -18.654   0.143  0.00  0.00     0.037 A 
ATOM     10  C   UNL d   1      24.988 -18.197   0.423  0.00  0.00     0.011 A 
ATOM     11  C   UNL d   1      25.543 -17.090  -0.239  0.00  0.00    -0.035 A 
BRANCH   8  12
ATOM     12  N   UNL d   1      21.513 -18.350  -0.895  0.00  0.00    -0.116 N 
ATOM     13  O   UNL d   1      21.266 -19.563  -0.976  0.00  0.00    -0.532 OA
ATOM     14  O   UNL d   1      20.657 -17.457  -0.895  0.00  0.00    -0.532 OA
ENDBRANCH   8  12
BRANCH  11  15
ATOM     15  C   UNL d   1      26.921 -16.673   0.157  0.00  0.00     0.035 C 
ATOM     16  C   UNL d   1      28.071 -17.060  -0.739  0.00  0.00     0.010 C 
ENDBRANCH  11  15
ENDBRANCH   3   6
ENDBRANCH   1   3
BRANCH   1  17
ATOM     17  C   UNL d   1      26.844 -14.556  -4.458  0.00  0.00     0.045 C 
ATOM     18  C   UNL d   1      27.999 -14.767  -5.185  0.00  0.00     0.033 C 
ATOM     19  C   UNL d   1      28.394 -13.794  -6.119  0.00  0.00     0.041 C 
ATOM     20  C   UNL d   1      27.653 -12.596  -6.313  0.00  0.00     0.095 C 
ATOM     21  C   UNL d   1      26.539 -12.349  -5.491  0.00  0.00     0.070 C 
ATOM     22  C   UNL d   1      26.150 -13.391  -4.669  0.00  0.00     0.062 C 
BRANCH  20  23
ATOM     23  O   UNL d   1      28.136 -11.849  -7.359  0.00  0.00    -0.354 OA
ATOM     24  C   UNL d   1      28.488 -12.517  -8.561  0.00  0.00     0.210 C 
ENDBRANCH  20  23
BRANCH  21  25
ATOM     25  N   UNL d   1      25.783 -11.155  -5.447  0.00  0.00    -0.325 N 
ATOM     26  C   UNL d   1      26.086  -9.826  -5.424  0.00  0.00     0.218 C 
ATOM     27  C   UNL d   1      27.469  -9.245  -5.500  0.00  0.00     0.117 C 
ATOM     28  O   UNL d   1      25.123  -9.052  -5.338  0.00  0.00    -0.274 OA
ATOM     29  H   UNL d   1      24.783 -11.212  -5.471  0.00  0.00     0.169 HD
ENDBRANCH  21  25
ENDBRANCH   1  17
TORSDOF 7
ENDMDL
MODEL 5
REMARK VINA RESULT:    -7.654      4.672      6.574
REMARK INTER + INTRA:         -11.627
REMARK INTER:                  -9.743
REMARK INTRA:                  -1.885
REMARK CONF_INDEPENDENT:        2.088
REMARK UNBOUND:                -1.885
REMARK  7 active torsions:
REMARK  status: ('A' for Active; 'I' for Inactive)
REMARK    1  A    between atoms: C_2  and  C_3 
REMARK    2  A    between atoms: C_6  and  N_7 
REMARK    3  A    between atoms: C_11  and  S_12 
REMARK    4  A    between atoms: S_12  and  N_15 
REMARK    5  A    between atoms: N_15  and  C_16 
REMARK    6  A    between atoms: C_19  and  O_20 
REMARK    7  A    between atoms: C_22  and  N_23 
REMARK       I    between atoms: N_23  and  C_24 
ROOT
ATOM      1  N   UNL d   1      28.900 -17.382  -0.154  0.00  0.00    -0.281 N 
ATOM      2  H   UNL d   1      29.223 -18.024   0.547  0.00  0.00     0.179 HD
ENDROOT
BRANCH   1   3
ATOM      3  S   UNL d   1      29.950 -16.303  -0.947  0.00  0.00     0.263 S 
ATOM      4  O   UNL d   1      31.280 -16.609  -0.437  0.00  0.00    -0.200 OA
ATOM      5  O   UNL d   1      29.430 -14.963  -0.886  0.00  0.00    -0.200 OA
BRANCH   3   6
ATOM      6  C   UNL d   1      30.013 -16.623  -2.725  0.00  0.00     0.088 A 
ATOM      7  C   UNL d   1      29.202 -15.780  -3.530  0.00  0.00     0.061 A 
ATOM      8  C   UNL d   1      29.144 -15.983  -4.919  0.00  0.00     0.104 A 
ATOM      9  C   UNL d   1      29.903 -16.986  -5.517  0.00  0.00     0.037 A 
ATOM     10  C   UNL d   1      30.625 -17.856  -4.717  0.00  0.00     0.011 A 
ATOM     11  C   UNL d   1      30.679 -17.709  -3.321  0.00  0.00    -0.035 A 
BRANCH   8  12
ATOM     12  N   UNL d   1      28.245 -15.201  -5.779  0.00  0.00    -0.116 N 
ATOM     13  O   UNL d   1      28.755 -14.324  -6.494  0.00  0.00    -0.532 OA
ATOM     14  O   UNL d   1      27.039 -15.476  -5.757  0.00  0.00    -0.532 OA
ENDBRANCH   8  12
BRANCH  11  15
ATOM     15  C   UNL d   1      31.472 -18.717  -2.556  0.00  0.00     0.035 C 
ATOM     16  C   UNL d   1      31.533 -20.129  -3.083  0.00  0.00     0.010 C 
ENDBRANCH  11  15
ENDBRANCH   3   6
ENDBRANCH   1   3
BRANCH   1  17
ATOM     17  C   UNL d   1      27.478 -17.359  -0.261  0.00  0.00     0.045 C 
ATOM     18  C   UNL d   1      26.669 -18.177   0.503  0.00  0.00     0.033 C 
ATOM     19  C   UNL d   1      25.290 -18.203   0.231  0.00  0.00     0.041 C 
ATOM     20  C   UNL d   1      24.717 -17.433  -0.818  0.00  0.00     0.095 C 
ATOM     21  C   UNL d   1      25.569 -16.687  -1.652  0.00  0.00     0.070 C 
ATOM     22  C   UNL d   1      26.896 -16.627  -1.265  0.00  0.00     0.062 C 
BRANCH  20  23
ATOM     23  O   UNL d   1      23.346 -17.502  -0.826  0.00  0.00    -0.354 OA
ATOM     24  C   UNL d   1      22.731 -18.756  -0.573  0.00  0.00     0.210 C 
ENDBRANCH  20  23
BRANCH  21  25
ATOM     25  N   UNL d   1      25.190 -15.989  -2.822  0.00  0.00    -0.325 N 
ATOM     26  C   UNL d   1      25.273 -14.694  -3.237  0.00  0.00     0.218 C 
ATOM     27  C   UNL d   1      25.912 -13.571  -2.471  0.00  0.00     0.117 C 
ATOM     28  O   UNL d   1      24.778 -14.447  -4.345  0.00  0.00    -0.274 OA
ATOM     29  H   UNL d   1      24.794 -16.502  -3.587  0.00  0.00     0.169 HD
ENDBRANCH  21  25
ENDBRANCH   1  17
TORSDOF 7
ENDMDL
MODEL 6
REMARK VINA RESULT:    -7.640      1.541      3.255
REMARK INTER + INTRA:         -11.090
REMARK INTER:                  -9.728
REMARK INTRA:                  -1.362
REMARK CONF_INDEPENDENT:        2.088
REMARK UNBOUND:                -1.362
REMARK  7 active torsions:
REMARK  status: ('A' for Active; 'I' for Inactive)
REMARK    1  A    between atoms: C_2  and  C_3 
REMARK    2  A    between atoms: C_6  and  N_7 
REMARK    3  A    between atoms: C_11  and  S_12 
REMARK    4  A    between atoms: S_12  and  N_15 
REMARK    5  A    between atoms: N_15  and  C_16 
REMARK    6  A    between atoms: C_19  and  O_20 
REMARK    7  A    between atoms: C_22  and  N_23 
REMARK       I    between atoms: N_23  and  C_24 
ROOT
ATOM      1  N   UNL d   1      27.547 -12.453  -0.127  0.00  0.00    -0.281 N 
ATOM      2  H   UNL d   1      28.184 -11.712  -0.360  0.00  0.00     0.179 HD
ENDROOT
BRANCH   1   3
ATOM      3  S   UNL d   1      27.354 -13.015   1.468  0.00  0.00     0.263 S 
ATOM      4  O   UNL d   1      28.590 -13.718   1.785  0.00  0.00    -0.200 OA
ATOM      5  O   UNL d   1      26.080 -13.664   1.619  0.00  0.00    -0.200 OA
BRANCH   3   6
ATOM      6  C   UNL d   1      27.245 -11.647   2.645  0.00  0.00     0.088 A 
ATOM      7  C   UNL d   1      26.639 -10.460   2.153  0.00  0.00     0.061 A 
ATOM      8  C   UNL d   1      26.554  -9.325   2.977  0.00  0.00     0.104 A 
ATOM      9  C   UNL d   1      27.030  -9.366   4.285  0.00  0.00     0.037 A 
ATOM     10  C   UNL d   1      27.693 -10.498   4.728  0.00  0.00     0.011 A 
ATOM     11  C   UNL d   1      27.832 -11.640   3.923  0.00  0.00    -0.035 A 
BRANCH   8  12
ATOM     12  N   UNL d   1      26.026  -8.047   2.480  0.00  0.00    -0.116 N 
ATOM     13  O   UNL d   1      25.279  -8.081   1.490  0.00  0.00    -0.532 OA
ATOM     14  O   UNL d   1      26.339  -7.016   3.089  0.00  0.00    -0.532 OA
ENDBRANCH   8  12
BRANCH  11  15
ATOM     15  C   UNL d   1      28.584 -12.796   4.497  0.00  0.00     0.035 C 
ATOM     16  C   UNL d   1      27.800 -13.905   5.151  0.00  0.00     0.010 C 
ENDBRANCH  11  15
ENDBRANCH   3   6
ENDBRANCH   1   3
BRANCH   1  17
ATOM     17  C   UNL d   1      26.989 -13.076  -1.282  0.00  0.00     0.045 C 
ATOM     18  C   UNL d   1      26.824 -12.402  -2.476  0.00  0.00     0.033 C 
ATOM     19  C   UNL d   1      26.129 -13.039  -3.518  0.00  0.00     0.041 C 
ATOM     20  C   UNL d   1      25.574 -14.339  -3.366  0.00  0.00     0.095 C 
ATOM     21  C   UNL d   1      25.660 -14.968  -2.111  0.00  0.00     0.070 C 
ATOM     22  C   UNL d   1      26.443 -14.330  -1.166  0.00  0.00     0.062 C 
BRANCH  20  23
ATOM     23  O   UNL d   1      25.056 -14.825  -4.540  0.00  0.00    -0.354 OA
ATOM     24  C   UNL d   1      25.905 -15.575  -5.395  0.00  0.00     0.210 C 
ENDBRANCH  20  23
BRANCH  21  25
ATOM     25  N   UNL d   1      25.041 -16.185  -1.743  0.00  0.00    -0.325 N 
ATOM     26  C   UNL d   1      25.310 -17.163  -0.834  0.00  0.00     0.218 C 
ATOM     27  C   UNL d   1      26.445 -17.151   0.150  0.00  0.00     0.117 C 
ATOM     28  O   UNL d   1      24.537 -18.131  -0.833  0.00  0.00    -0.274 OA
ATOM     29  H   UNL d   1      24.178 -16.443  -2.183  0.00  0.00     0.169 HD
ENDBRANCH  21  25
ENDBRANCH   1  17
TORSDOF 7
ENDMDL
MODEL 7
REMARK VINA RESULT:    -7.518      4.296      7.580
REMARK INTER + INTRA:         -11.013
REMARK INTER:                  -9.606
REMARK INTRA:                  -1.407
REMARK CONF_INDEPENDENT:        2.088
REMARK UNBOUND:                -1.407
REMARK  7 active torsions:
REMARK  status: ('A' for Active; 'I' for Inactive)
REMARK    1  A    between atoms: C_2  and  C_3 
REMARK    2  A    between atoms: C_6  and  N_7 
REMARK    3  A    between atoms: C_11  and  S_12 
REMARK    4  A    between atoms: S_12  and  N_15 
REMARK    5  A    between atoms: N_15  and  C_16 
REMARK    6  A    between atoms: C_19  and  O_20 
REMARK    7  A    between atoms: C_22  and  N_23 
REMARK       I    between atoms: N_23  and  C_24 
ROOT
ATOM      1  N   UNL d   1      27.535 -15.198  -2.625  0.00  0.00    -0.281 N 
ATOM      2  H   UNL d   1      28.028 -15.031  -1.766  0.00  0.00     0.179 HD
ENDROOT
BRANCH   1   3
ATOM      3  S   UNL d   1      25.840 -15.334  -2.685  0.00  0.00     0.263 S 
ATOM      4  O   UNL d   1      25.534 -15.786  -4.035  0.00  0.00    -0.200 OA
ATOM      5  O   UNL d   1      25.224 -14.151  -2.148  0.00  0.00    -0.200 OA
BRANCH   3   6
ATOM      6  C   UNL d   1      25.239 -16.631  -1.579  0.00  0.00     0.088 A 
ATOM      7  C   UNL d   1      23.858 -16.943  -1.691  0.00  0.00     0.061 A 
ATOM      8  C   UNL d   1      23.285 -17.903  -0.839  0.00  0.00     0.104 A 
ATOM      9  C   UNL d   1      24.071 -18.575   0.094  0.00  0.00     0.037 A 
ATOM     10  C   UNL d   1      25.396 -18.206   0.254  0.00  0.00     0.011 A 
ATOM     11  C   UNL d   1      25.996 -17.225  -0.552  0.00  0.00    -0.035 A 
BRANCH   8  12
ATOM     12  N   UNL d   1      21.844 -18.187  -0.851  0.00  0.00    -0.116 N 
ATOM     13  O   UNL d   1      21.069 -17.218  -0.897  0.00  0.00    -0.532 OA
ATOM     14  O   UNL d   1      21.487 -19.371  -0.838  0.00  0.00    -0.532 OA
ENDBRANCH   8  12
BRANCH  11  15
ATOM     15  C   UNL d   1      27.425 -16.893  -0.278  0.00  0.00     0.035 C 
ATOM     16  C   UNL d   1      27.728 -15.818   0.737  0.00  0.00     0.010 C 
ENDBRANCH  11  15
ENDBRANCH   3   6
ENDBRANCH   1   3
BRANCH   1  17
ATOM     17  C   UNL d   1      28.413 -15.483  -3.712  0.00  0.00     0.045 C 
ATOM     18  C   UNL d   1      28.339 -14.810  -4.915  0.00  0.00     0.033 C 
ATOM     19  C   UNL d   1      29.137 -15.253  -5.985  0.00  0.00     0.041 C 
ATOM     20  C   UNL d   1      29.991 -16.383  -5.866  0.00  0.00     0.095 C 
ATOM     21  C   UNL d   1      29.975 -17.119  -4.668  0.00  0.00     0.070 C 
ATOM     22  C   UNL d   1      29.248 -16.569  -3.628  0.00  0.00     0.062 C 
BRANCH  20  23
ATOM     23  O   UNL d   1      30.775 -16.563  -6.978  0.00  0.00    -0.354 OA
ATOM     24  C   UNL d   1      31.501 -15.451  -7.481  0.00  0.00     0.210 C 
ENDBRANCH  20  23
BRANCH  21  25
ATOM     25  N   UNL d   1      30.643 -18.343  -4.431  0.00  0.00    -0.325 N 
ATOM     26  C   UNL d   1      30.851 -19.480  -5.154  0.00  0.00     0.218 C 
ATOM     27  C   UNL d   1      30.405 -19.707  -6.571  0.00  0.00     0.117 C 
ATOM     28  O   UNL d   1      31.468 -20.385  -4.576  0.00  0.00    -0.274 OA
ATOM     29  H   UNL d   1      31.135 -18.469  -3.567  0.00  0.00     0.169 HD
ENDBRANCH  21  25
ENDBRANCH   1  17
TORSDOF 7
ENDMDL
MODEL 8
REMARK VINA RESULT:    -7.360      1.731      2.579
REMARK INTER + INTRA:         -11.156
REMARK INTER:                  -9.448
REMARK INTRA:                  -1.708
REMARK CONF_INDEPENDENT:        2.088
REMARK UNBOUND:                -1.708
REMARK  7 active torsions:
REMARK  status: ('A' for Active; 'I' for Inactive)
REMARK    1  A    between atoms: C_2  and  C_3 
REMARK    2  A    between atoms: C_6  and  N_7 
REMARK    3  A    between atoms: C_11  and  S_12 
REMARK    4  A    between atoms: S_12  and  N_15 
REMARK    5  A    between atoms: N_15  and  C_16 
REMARK    6  A    between atoms: C_19  and  O_20 
REMARK    7  A    between atoms: C_22  and  N_23 
REMARK       I    between atoms: N_23  and  C_24 
ROOT
ATOM      1  N   UNL d   1      28.290 -15.111   1.381  0.00  0.00    -0.281 N 
ATOM      2  H   UNL d   1      29.195 -15.527   1.247  0.00  0.00     0.179 HD
ENDROOT
BRANCH   1   3
ATOM      3  S   UNL d   1      28.051 -13.774   2.406  0.00  0.00     0.263 S 
ATOM      4  O   UNL d   1      29.298 -13.621   3.143  0.00  0.00    -0.200 OA
ATOM      5  O   UNL d   1      26.797 -13.895   3.100  0.00  0.00    -0.200 OA
BRANCH   3   6
ATOM      6  C   UNL d   1      27.839 -12.246   1.465  0.00  0.00     0.088 A 
ATOM      7  C   UNL d   1      27.117 -11.214   2.123  0.00  0.00     0.061 A 
ATOM      8  C   UNL d   1      26.856 -10.007   1.453  0.00  0.00     0.104 A 
ATOM      9  C   UNL d   1      27.329  -9.801   0.160  0.00  0.00     0.037 A 
ATOM     10  C   UNL d   1      27.958 -10.841  -0.504  0.00  0.00     0.011 A 
ATOM     11  C   UNL d   1      28.205 -12.076   0.117  0.00  0.00    -0.035 A 
BRANCH   8  12
ATOM     12  N   UNL d   1      26.031  -8.951   2.056  0.00  0.00    -0.116 N 
ATOM     13  O   UNL d   1      26.280  -8.627   3.228  0.00  0.00    -0.532 OA
ATOM     14  O   UNL d   1      25.152  -8.433   1.356  0.00  0.00    -0.532 OA
ENDBRANCH   8  12
BRANCH  11  15
ATOM     15  C   UNL d   1      28.872 -13.133  -0.700  0.00  0.00     0.035 C 
ATOM     16  C   UNL d   1      28.431 -13.316  -2.131  0.00  0.00     0.010 C 
ENDBRANCH  11  15
ENDBRANCH   3   6
ENDBRANCH   1   3
BRANCH   1  17
ATOM     17  C   UNL d   1      27.245 -15.871   0.778  0.00  0.00     0.045 C 
ATOM     18  C   UNL d   1      27.111 -17.231   0.980  0.00  0.00     0.033 C 
ATOM     19  C   UNL d   1      26.149 -17.931   0.232  0.00  0.00     0.041 C 
ATOM     20  C   UNL d   1      25.336 -17.284  -0.738  0.00  0.00     0.095 C 
ATOM     21  C   UNL d   1      25.557 -15.922  -1.006  0.00  0.00     0.070 C 
ATOM     22  C   UNL d   1      26.444 -15.275  -0.164  0.00  0.00     0.062 C 
BRANCH  20  23
ATOM     23  O   UNL d   1      24.378 -18.120  -1.256  0.00  0.00    -0.354 OA
ATOM     24  C   UNL d   1      23.066 -18.060  -0.718  0.00  0.00     0.210 C 
ENDBRANCH  20  23
BRANCH  21  25
ATOM     25  N   UNL d   1      24.948 -15.162  -2.032  0.00  0.00    -0.325 N 
ATOM     26  C   UNL d   1      25.297 -14.808  -3.300  0.00  0.00     0.218 C 
ATOM     27  C   UNL d   1      26.547 -15.237  -4.014  0.00  0.00     0.117 C 
ATOM     28  O   UNL d   1      24.497 -14.075  -3.898  0.00  0.00    -0.274 OA
ATOM     29  H   UNL d   1      24.028 -14.794  -1.882  0.00  0.00     0.169 HD
ENDBRANCH  21  25
ENDBRANCH   1  17
TORSDOF 7
ENDMDL
MODEL 9
REMARK VINA RESULT:    -7.143      4.082      5.631
REMARK INTER + INTRA:         -11.244
REMARK INTER:                  -9.231
REMARK INTRA:                  -2.013
REMARK CONF_INDEPENDENT:        2.088
REMARK UNBOUND:                -2.013
REMARK  7 active torsions:
REMARK  status: ('A' for Active; 'I' for Inactive)
REMARK    1  A    between atoms: C_2  and  C_3 
REMARK    2  A    between atoms: C_6  and  N_7 
REMARK    3  A    between atoms: C_11  and  S_12 
REMARK    4  A    between atoms: S_12  and  N_15 
REMARK    5  A    between atoms: N_15  and  C_16 
REMARK    6  A    between atoms: C_19  and  O_20 
REMARK    7  A    between atoms: C_22  and  N_23 
REMARK       I    between atoms: N_23  and  C_24 
ROOT
ATOM      1  N   UNL d   1      28.808 -16.915   0.099  0.00  0.00    -0.281 N 
ATOM      2  H   UNL d   1      29.064 -16.900   1.071  0.00  0.00     0.179 HD
ENDROOT
BRANCH   1   3
ATOM      3  S   UNL d   1      29.931 -16.599  -1.140  0.00  0.00     0.263 S 
ATOM      4  O   UNL d   1      29.979 -17.815  -1.941  0.00  0.00    -0.200 OA
ATOM      5  O   UNL d   1      31.133 -16.032  -0.592  0.00  0.00    -0.200 OA
BRANCH   3   6
ATOM      6  C   UNL d   1      29.346 -15.296  -2.248  0.00  0.00     0.088 A 
ATOM      7  C   UNL d   1      28.750 -15.741  -3.458  0.00  0.00     0.061 A 
ATOM      8  C   UNL d   1      28.311 -14.803  -4.408  0.00  0.00     0.104 A 
ATOM      9  C   UNL d   1      28.426 -13.438  -4.156  0.00  0.00     0.037 A 
ATOM     10  C   UNL d   1      29.083 -13.014  -3.014  0.00  0.00     0.011 A 
ATOM     11  C   UNL d   1      29.570 -13.920  -2.058  0.00  0.00    -0.035 A 
BRANCH   8  12
ATOM     12  N   UNL d   1      27.779 -15.216  -5.714  0.00  0.00    -0.116 N 
ATOM     13  O   UNL d   1      28.557 -15.200  -6.681  0.00  0.00    -0.532 OA
ATOM     14  O   UNL d   1      26.596 -15.575  -5.770  0.00  0.00    -0.532 OA
ENDBRANCH   8  12
BRANCH  11  15
ATOM     15  C   UNL d   1      30.280 -13.352  -0.874  0.00  0.00     0.035 C 
ATOM     16  C   UNL d   1      29.454 -12.761   0.241  0.00  0.00     0.010 C 
ENDBRANCH  11  15
ENDBRANCH   3   6
ENDBRANCH   1   3
BRANCH   1  17
ATOM     17  C   UNL d   1      27.400 -17.043  -0.092  0.00  0.00     0.045 C 
ATOM     18  C   UNL d   1      26.642 -17.964   0.604  0.00  0.00     0.033 C 
ATOM     19  C   UNL d   1      25.292 -18.132   0.249  0.00  0.00     0.041 C 
ATOM     20  C   UNL d   1      24.700 -17.400  -0.816  0.00  0.00     0.095 C 
ATOM     21  C   UNL d   1      25.512 -16.544  -1.581  0.00  0.00     0.070 C 
ATOM     22  C   UNL d   1      26.800 -16.351  -1.114  0.00  0.00     0.062 C 
BRANCH  20  23
ATOM     23  O   UNL d   1      23.348 -17.616  -0.908  0.00  0.00    -0.354 OA
ATOM     24  C   UNL d   1      22.870 -18.950  -0.824  0.00  0.00     0.210 C 
ENDBRANCH  20  23
BRANCH  21  25
ATOM     25  N   UNL d   1      25.127 -15.859  -2.757  0.00  0.00    -0.325 N 
ATOM     26  C   UNL d   1      25.150 -14.558  -3.163  0.00  0.00     0.218 C 
ATOM     27  C   UNL d   1      25.706 -13.408  -2.373  0.00  0.00     0.117 C 
ATOM     28  O   UNL d   1      24.672 -14.330  -4.282  0.00  0.00    -0.274 OA
ATOM     29  H   UNL d   1      24.780 -16.387  -3.535  0.00  0.00     0.169 HD
ENDBRANCH  21  25
ENDBRANCH   1  17
TORSDOF 7
ENDMDL
