MODEL 1
REMARK VINA RESULT:   -11.852      0.000      0.000
REMARK INTER + INTRA:         -13.424
REMARK INTER:                 -12.747
REMARK INTRA:                  -0.677
REMARK CONF_INDEPENDENT:        0.895
REMARK UNBOUND:                -0.677
REMARK  3 active torsions:
REMARK  status: ('A' for Active; 'I' for Inactive)
REMARK    1  A    between atoms: C_6  and  C_5 
REMARK    2  A    between atoms: C_6  and  N_8 
REMARK       I    between atoms: N_8  and  C_9 
REMARK    3  A    between atoms: C_9  and  C_11 
ROOT
ATOM      1  N   UNL d   1      24.430 -16.315  -2.706  0.00  0.00    -0.348 N 
ATOM      2  C   UNL d   1      23.744 -16.458  -1.512  0.00  0.00     0.253 C 
ATOM      3  O   UNL d   1      23.382 -15.513  -0.815  0.00  0.00    -0.268 OA
ATOM      4  H   UNL d   1      24.672 -17.134  -3.246  0.00  0.00     0.163 HD
ENDROOT
BRANCH   2   5
ATOM      5  C   UNL d   1      23.417 -17.840  -1.077  0.00  0.00     0.046 A 
ATOM      6  C   UNL d   1      24.416 -18.727  -0.636  0.00  0.00     0.018 A 
ATOM      7  C   UNL d   1      24.084 -20.006  -0.169  0.00  0.00     0.003 A 
ATOM      8  C   UNL d   1      22.759 -20.449  -0.131  0.00  0.00     0.032 A 
ATOM      9  C   UNL d   1      21.780 -19.552  -0.569  0.00  0.00     0.062 A 
ATOM     10  N   UNL d   1      20.418 -19.674  -0.654  0.00  0.00    -0.278 N 
ATOM     11  C   UNL d   1      22.072 -18.268  -1.027  0.00  0.00     0.027 A 
ATOM     12  N   UNL d   1      19.800 -18.580  -1.125  0.00  0.00    -0.186 NA
ATOM     13  H   UNL d   1      19.852 -20.479  -0.410  0.00  0.00     0.189 HD
ATOM     14  C   UNL d   1      20.804 -17.723  -1.339  0.00  0.00     0.153 A 
ENDBRANCH   2   5
BRANCH   1  15
ATOM     15  C   UNL d   1      24.773 -15.003  -3.254  0.00  0.00     0.121 C 
ATOM     16  C   UNL d   1      23.581 -14.038  -3.243  0.00  0.00     0.038 C 
BRANCH  15  17
ATOM     17  C   UNL d   1      25.933 -14.352  -2.532  0.00  0.00     0.005 A 
ATOM     18  C   UNL d   1      27.210 -14.870  -2.411  0.00  0.00     0.018 A 
ATOM     19  C   UNL d   1      28.092 -13.997  -1.720  0.00  0.00     0.015 A 
ATOM     20  C   UNL d   1      27.466 -12.837  -1.317  0.00  0.00    -0.021 A 
ATOM     21  C   UNL d   1      28.049 -11.698  -0.555  0.00  0.00     0.056 C 
ATOM     22  S   UNL d   1      25.827 -12.801  -1.805  0.00  0.00    -0.098 SA
ENDBRANCH  15  17
ENDBRANCH   1  15
TORSDOF 3
ENDMDL
