MODEL 1
REMARK VINA RESULT:    -8.160      0.000      0.000
REMARK INTER + INTRA:         -10.257
REMARK INTER:                  -9.353
REMARK INTRA:                  -0.904
REMARK CONF_INDEPENDENT:        1.193
REMARK UNBOUND:                -0.904
REMARK  4 active torsions:
REMARK  status: ('A' for Active; 'I' for Inactive)
REMARK    1  A    between atoms: C_7  and  N_8 
REMARK       I    between atoms: N_8  and  C_9 
REMARK    2  A    between atoms: C_11  and  C_9 
REMARK    3  A    between atoms: C_11  and  N_13 
REMARK       I    between atoms: N_13  and  C_14 
REMARK    4  A    between atoms: C_14  and  C_16 
ROOT
ATOM      1  C   UNL d   1      27.206 -15.552   0.576  0.00  0.00     0.173 C 
ATOM      2  C   UNL d   1      28.670 -15.883   0.119  0.00  0.00     0.042 C 
ENDROOT
BRANCH   1   3
ATOM      3  N   UNL d   1      26.414 -15.222  -0.647  0.00  0.00    -0.344 N 
ATOM      4  C   UNL d   1      25.720 -16.049  -1.506  0.00  0.00     0.254 C 
ATOM      5  O   UNL d   1      25.928 -16.011  -2.731  0.00  0.00    -0.268 OA
ATOM      6  H   UNL d   1      26.745 -14.393  -1.133  0.00  0.00     0.163 HD
BRANCH   4   7
ATOM      7  C   UNL d   1      24.574 -16.848  -1.007  0.00  0.00     0.053 C 
ATOM      8  C   UNL d   1      23.273 -16.328  -0.886  0.00  0.00     0.019 C 
ATOM      9  C   UNL d   1      22.191 -17.151  -0.522  0.00  0.00     0.001 C 
ATOM     10  C   UNL d   1      22.405 -18.492  -0.275  0.00  0.00     0.002 C 
ATOM     11  C   UNL d   1      23.714 -18.926  -0.145  0.00  0.00     0.025 C 
ATOM     12  C   UNL d   1      24.791 -18.086  -0.424  0.00  0.00     0.049 C 
ATOM     13 CL   UNL d   1      26.332 -18.533   0.217  0.00  0.00    -0.083 Cl
ENDBRANCH   4   7
ENDBRANCH   1   3
BRANCH   1  14
ATOM     14  C   UNL d   1      27.405 -14.452   1.662  0.00  0.00     0.244 C 
ATOM     15  N   UNL d   1      28.458 -14.556   2.562  0.00  0.00    -0.325 N 
ATOM     16  H   UNL d   1      29.160 -15.256   2.354  0.00  0.00     0.169 HD
ATOM     17  O   UNL d   1      26.621 -13.505   1.627  0.00  0.00    -0.271 OA
BRANCH  15  18
ATOM     18  C   UNL d   1      28.576 -13.917   3.867  0.00  0.00     0.040 A 
ATOM     19  C   UNL d   1      28.710 -14.770   4.996  0.00  0.00     0.030 A 
ATOM     20  C   UNL d   1      28.530 -14.298   6.320  0.00  0.00     0.002 A 
ATOM     21  C   UNL d   1      28.221 -12.966   6.559  0.00  0.00     0.001 A 
ATOM     22  C   UNL d   1      28.103 -12.110   5.479  0.00  0.00     0.009 A 
ATOM     23  C   UNL d   1      28.279 -12.555   4.146  0.00  0.00    -0.035 A 
ATOM     24  C   UNL d   1      27.921 -11.509   3.135  0.00  0.00     0.050 C 
ENDBRANCH  15  18
ENDBRANCH   1  14
TORSDOF 4
ENDMDL
MODEL 2
REMARK VINA RESULT:    -7.989      4.520      7.731
REMARK INTER + INTRA:         -10.139
REMARK INTER:                  -9.182
REMARK INTRA:                  -0.957
REMARK CONF_INDEPENDENT:        1.193
REMARK UNBOUND:                -0.957
REMARK  4 active torsions:
REMARK  status: ('A' for Active; 'I' for Inactive)
REMARK    1  A    between atoms: C_7  and  N_8 
REMARK       I    between atoms: N_8  and  C_9 
REMARK    2  A    between atoms: C_11  and  C_9 
REMARK    3  A    between atoms: C_11  and  N_13 
REMARK       I    between atoms: N_13  and  C_14 
REMARK    4  A    between atoms: C_14  and  C_16 
ROOT
ATOM      1  C   UNL d   1      25.543 -15.282  -3.694  0.00  0.00     0.173 C 
ATOM      2  C   UNL d   1      24.577 -14.076  -3.420  0.00  0.00     0.042 C 
ENDROOT
BRANCH   1   3
ATOM      3  N   UNL d   1      26.187 -15.649  -2.397  0.00  0.00    -0.344 N 
ATOM      4  C   UNL d   1      25.649 -15.726  -1.128  0.00  0.00     0.254 C 
ATOM      5  O   UNL d   1      26.173 -15.119  -0.178  0.00  0.00    -0.268 OA
ATOM      6  H   UNL d   1      27.176 -15.419  -2.356  0.00  0.00     0.163 HD
BRANCH   4   7
ATOM      7  C   UNL d   1      24.564 -16.695  -0.837  0.00  0.00     0.053 C 
ATOM      8  C   UNL d   1      23.200 -16.357  -0.894  0.00  0.00     0.019 C 
ATOM      9  C   UNL d   1      22.201 -17.334  -0.728  0.00  0.00     0.001 C 
ATOM     10  C   UNL d   1      22.559 -18.647  -0.502  0.00  0.00     0.002 C 
ATOM     11  C   UNL d   1      23.883 -18.914  -0.193  0.00  0.00     0.025 C 
ATOM     12  C   UNL d   1      24.863 -17.926  -0.275  0.00  0.00     0.049 C 
ATOM     13 CL   UNL d   1      26.342 -18.204   0.573  0.00  0.00    -0.083 Cl
ENDBRANCH   4   7
ENDBRANCH   1   3
BRANCH   1  14
ATOM     14  C   UNL d   1      26.440 -14.769  -4.860  0.00  0.00     0.244 C 
ATOM     15  N   UNL d   1      26.966 -13.485  -4.811  0.00  0.00    -0.325 N 
ATOM     16  H   UNL d   1      26.887 -13.000  -3.925  0.00  0.00     0.169 HD
ATOM     17  O   UNL d   1      26.675 -15.575  -5.760  0.00  0.00    -0.271 OA
BRANCH  15  18
ATOM     18  C   UNL d   1      27.442 -12.677  -5.927  0.00  0.00     0.040 A 
ATOM     19  C   UNL d   1      26.709 -11.499  -6.233  0.00  0.00     0.030 A 
ATOM     20  C   UNL d   1      26.881 -10.804  -7.457  0.00  0.00     0.002 A 
ATOM     21  C   UNL d   1      27.789 -11.255  -8.404  0.00  0.00     0.001 A 
ATOM     22  C   UNL d   1      28.529 -12.390  -8.124  0.00  0.00     0.009 A 
ATOM     23  C   UNL d   1      28.379 -13.102  -6.909  0.00  0.00    -0.035 A 
ATOM     24  C   UNL d   1      29.136 -14.394  -6.900  0.00  0.00     0.050 C 
ENDBRANCH  15  18
ENDBRANCH   1  14
TORSDOF 4
ENDMDL
MODEL 3
REMARK VINA RESULT:    -7.983      0.569      1.545
REMARK INTER + INTRA:         -10.239
REMARK INTER:                  -9.176
REMARK INTRA:                  -1.063
REMARK CONF_INDEPENDENT:        1.193
REMARK UNBOUND:                -1.063
REMARK  4 active torsions:
REMARK  status: ('A' for Active; 'I' for Inactive)
REMARK    1  A    between atoms: C_7  and  N_8 
REMARK       I    between atoms: N_8  and  C_9 
REMARK    2  A    between atoms: C_11  and  C_9 
REMARK    3  A    between atoms: C_11  and  N_13 
REMARK       I    between atoms: N_13  and  C_14 
REMARK    4  A    between atoms: C_14  and  C_16 
ROOT
ATOM      1  C   UNL d   1      27.032 -15.296   0.586  0.00  0.00     0.173 C 
ATOM      2  C   UNL d   1      28.499 -15.720   0.229  0.00  0.00     0.042 C 
ENDROOT
BRANCH   1   3
ATOM      3  N   UNL d   1      26.291 -15.100  -0.697  0.00  0.00    -0.344 N 
ATOM      4  C   UNL d   1      25.682 -16.025  -1.520  0.00  0.00     0.254 C 
ATOM      5  O   UNL d   1      25.953 -16.071  -2.733  0.00  0.00    -0.268 OA
ATOM      6  H   UNL d   1      26.610 -14.297  -1.230  0.00  0.00     0.163 HD
BRANCH   4   7
ATOM      7  C   UNL d   1      24.547 -16.838  -1.016  0.00  0.00     0.053 C 
ATOM      8  C   UNL d   1      23.240 -16.336  -0.895  0.00  0.00     0.019 C 
ATOM      9  C   UNL d   1      22.170 -17.173  -0.526  0.00  0.00     0.001 C 
ATOM     10  C   UNL d   1      22.403 -18.509  -0.274  0.00  0.00     0.002 C 
ATOM     11  C   UNL d   1      23.718 -18.925  -0.145  0.00  0.00     0.025 C 
ATOM     12  C   UNL d   1      24.783 -18.071  -0.428  0.00  0.00     0.049 C 
ATOM     13 CL   UNL d   1      26.331 -18.493   0.212  0.00  0.00    -0.083 Cl
ENDBRANCH   4   7
ENDBRANCH   1   3
BRANCH   1  14
ATOM     14  C   UNL d   1      27.228 -14.075   1.535  0.00  0.00     0.244 C 
ATOM     15  N   UNL d   1      27.932 -14.231   2.721  0.00  0.00    -0.325 N 
ATOM     16  H   UNL d   1      28.445 -15.098   2.829  0.00  0.00     0.169 HD
ATOM     17  O   UNL d   1      26.772 -13.002   1.141  0.00  0.00    -0.271 OA
BRANCH  15  18
ATOM     18  C   UNL d   1      27.869 -13.387   3.908  0.00  0.00     0.040 A 
ATOM     19  C   UNL d   1      27.771 -11.985   3.701  0.00  0.00     0.030 A 
ATOM     20  C   UNL d   1      28.006 -11.053   4.744  0.00  0.00     0.002 A 
ATOM     21  C   UNL d   1      28.336 -11.489   6.020  0.00  0.00     0.001 A 
ATOM     22  C   UNL d   1      28.420 -12.850   6.253  0.00  0.00     0.009 A 
ATOM     23  C   UNL d   1      28.189 -13.802   5.230  0.00  0.00    -0.035 A 
ATOM     24  C   UNL d   1      28.518 -15.199   5.656  0.00  0.00     0.050 C 
ENDBRANCH  15  18
ENDBRANCH   1  14
TORSDOF 4
ENDMDL
MODEL 4
REMARK VINA RESULT:    -7.902      4.413      7.354
REMARK INTER + INTRA:         -10.093
REMARK INTER:                  -9.096
REMARK INTRA:                  -0.998
REMARK CONF_INDEPENDENT:        1.193
REMARK UNBOUND:                -0.998
REMARK  4 active torsions:
REMARK  status: ('A' for Active; 'I' for Inactive)
REMARK    1  A    between atoms: C_7  and  N_8 
REMARK       I    between atoms: N_8  and  C_9 
REMARK    2  A    between atoms: C_11  and  C_9 
REMARK    3  A    between atoms: C_11  and  N_13 
REMARK       I    between atoms: N_13  and  C_14 
REMARK    4  A    between atoms: C_14  and  C_16 
ROOT
ATOM      1  C   UNL d   1      25.675 -15.034  -3.472  0.00  0.00     0.173 C 
ATOM      2  C   UNL d   1      25.566 -13.469  -3.513  0.00  0.00     0.042 C 
ENDROOT
BRANCH   1   3
ATOM      3  N   UNL d   1      26.197 -15.416  -2.125  0.00  0.00    -0.344 N 
ATOM      4  C   UNL d   1      25.530 -15.580  -0.928  0.00  0.00     0.254 C 
ATOM      5  O   UNL d   1      25.906 -14.983   0.095  0.00  0.00    -0.268 OA
ATOM      6  H   UNL d   1      27.158 -15.128  -1.966  0.00  0.00     0.163 HD
BRANCH   4   7
ATOM      7  C   UNL d   1      24.486 -16.626  -0.795  0.00  0.00     0.053 C 
ATOM      8  C   UNL d   1      23.110 -16.348  -0.874  0.00  0.00     0.019 C 
ATOM      9  C   UNL d   1      22.157 -17.383  -0.862  0.00  0.00     0.001 C 
ATOM     10  C   UNL d   1      22.573 -18.696  -0.768  0.00  0.00     0.002 C 
ATOM     11  C   UNL d   1      23.897 -18.933  -0.433  0.00  0.00     0.025 C 
ATOM     12  C   UNL d   1      24.827 -17.897  -0.361  0.00  0.00     0.049 C 
ATOM     13 CL   UNL d   1      26.284 -18.200   0.515  0.00  0.00    -0.083 Cl
ENDBRANCH   4   7
ENDBRANCH   1   3
BRANCH   1  14
ATOM     14  C   UNL d   1      26.529 -15.370  -4.732  0.00  0.00     0.244 C 
ATOM     15  N   UNL d   1      27.910 -15.461  -4.623  0.00  0.00    -0.325 N 
ATOM     16  H   UNL d   1      28.287 -15.482  -3.683  0.00  0.00     0.169 HD
ATOM     17  O   UNL d   1      25.905 -15.587  -5.770  0.00  0.00    -0.271 OA
BRANCH  15  18
ATOM     18  C   UNL d   1      28.895 -15.337  -5.690  0.00  0.00     0.040 A 
ATOM     19  C   UNL d   1      29.926 -16.314  -5.737  0.00  0.00     0.030 A 
ATOM     20  C   UNL d   1      31.095 -16.136  -6.520  0.00  0.00     0.002 A 
ATOM     21  C   UNL d   1      31.266 -14.989  -7.282  0.00  0.00     0.001 A 
ATOM     22  C   UNL d   1      30.270 -14.030  -7.269  0.00  0.00     0.009 A 
ATOM     23  C   UNL d   1      29.092 -14.183  -6.497  0.00  0.00    -0.035 A 
ATOM     24  C   UNL d   1      28.245 -12.948  -6.486  0.00  0.00     0.050 C 
ENDBRANCH  15  18
ENDBRANCH   1  14
TORSDOF 4
ENDMDL
MODEL 5
REMARK VINA RESULT:    -6.845      4.926      7.758
REMARK INTER + INTRA:          -9.701
REMARK INTER:                  -8.038
REMARK INTRA:                  -1.663
REMARK CONF_INDEPENDENT:        1.193
REMARK UNBOUND:                -1.663
REMARK  4 active torsions:
REMARK  status: ('A' for Active; 'I' for Inactive)
REMARK    1  A    between atoms: C_7  and  N_8 
REMARK       I    between atoms: N_8  and  C_9 
REMARK    2  A    between atoms: C_11  and  C_9 
REMARK    3  A    between atoms: C_11  and  N_13 
REMARK       I    between atoms: N_13  and  C_14 
REMARK    4  A    between atoms: C_14  and  C_16 
ROOT
ATOM      1  C   UNL d   1      26.652 -13.260  -5.273  0.00  0.00     0.173 C 
ATOM      2  C   UNL d   1      27.777 -12.276  -4.795  0.00  0.00     0.042 C 
ENDROOT
BRANCH   1   3
ATOM      3  N   UNL d   1      25.487 -13.097  -4.351  0.00  0.00    -0.344 N 
ATOM      4  C   UNL d   1      24.743 -14.049  -3.685  0.00  0.00     0.254 C 
ATOM      5  O   UNL d   1      23.504 -14.072  -3.786  0.00  0.00    -0.268 OA
ATOM      6  H   UNL d   1      24.927 -12.274  -4.548  0.00  0.00     0.163 HD
BRANCH   4   7
ATOM      7  C   UNL d   1      25.388 -14.928  -2.678  0.00  0.00     0.053 C 
ATOM      8  C   UNL d   1      24.869 -16.183  -2.313  0.00  0.00     0.019 C 
ATOM      9  C   UNL d   1      25.573 -17.036  -1.444  0.00  0.00     0.001 C 
ATOM     10  C   UNL d   1      26.793 -16.640  -0.935  0.00  0.00     0.002 C 
ATOM     11  C   UNL d   1      27.161 -15.313  -1.095  0.00  0.00     0.025 C 
ATOM     12  C   UNL d   1      26.417 -14.442  -1.888  0.00  0.00     0.049 C 
ATOM     13 CL   UNL d   1      26.655 -12.748  -1.644  0.00  0.00    -0.083 Cl
ENDBRANCH   4   7
ENDBRANCH   1   3
BRANCH   1  14
ATOM     14  C   UNL d   1      27.377 -14.638  -5.331  0.00  0.00     0.244 C 
ATOM     15  N   UNL d   1      28.666 -14.760  -4.827  0.00  0.00    -0.325 N 
ATOM     16  H   UNL d   1      29.009 -13.981  -4.276  0.00  0.00     0.169 HD
ATOM     17  O   UNL d   1      26.728 -15.575  -5.793  0.00  0.00    -0.271 OA
BRANCH  15  18
ATOM     18  C   UNL d   1      29.653 -15.781  -5.152  0.00  0.00     0.040 A 
ATOM     19  C   UNL d   1      30.023 -15.913  -6.518  0.00  0.00     0.030 A 
ATOM     20  C   UNL d   1      30.727 -17.045  -7.000  0.00  0.00     0.002 A 
ATOM     21  C   UNL d   1      31.089 -18.071  -6.139  0.00  0.00     0.001 A 
ATOM     22  C   UNL d   1      30.757 -17.960  -4.800  0.00  0.00     0.009 A 
ATOM     23  C   UNL d   1      30.056 -16.839  -4.292  0.00  0.00    -0.035 A 
ATOM     24  C   UNL d   1      29.641 -17.016  -2.864  0.00  0.00     0.050 C 
ENDBRANCH  15  18
ENDBRANCH   1  14
TORSDOF 4
ENDMDL
MODEL 6
REMARK VINA RESULT:    -6.835      4.697      6.996
REMARK INTER + INTRA:          -9.219
REMARK INTER:                  -8.028
REMARK INTRA:                  -1.191
REMARK CONF_INDEPENDENT:        1.193
REMARK UNBOUND:                -1.191
REMARK  4 active torsions:
REMARK  status: ('A' for Active; 'I' for Inactive)
REMARK    1  A    between atoms: C_7  and  N_8 
REMARK       I    between atoms: N_8  and  C_9 
REMARK    2  A    between atoms: C_11  and  C_9 
REMARK    3  A    between atoms: C_11  and  N_13 
REMARK       I    between atoms: N_13  and  C_14 
REMARK    4  A    between atoms: C_14  and  C_16 
ROOT
ATOM      1  C   UNL d   1      26.562 -13.993  -4.232  0.00  0.00     0.173 C 
ATOM      2  C   UNL d   1      25.625 -12.945  -4.928  0.00  0.00     0.042 C 
ENDROOT
BRANCH   1   3
ATOM      3  N   UNL d   1      27.219 -14.797  -5.307  0.00  0.00    -0.344 N 
ATOM      4  C   UNL d   1      28.550 -15.108  -5.495  0.00  0.00     0.254 C 
ATOM      5  O   UNL d   1      29.110 -14.874  -6.580  0.00  0.00    -0.268 OA
ATOM      6  H   UNL d   1      26.727 -14.765  -6.195  0.00  0.00     0.163 HD
BRANCH   4   7
ATOM      7  C   UNL d   1      29.278 -15.910  -4.481  0.00  0.00     0.053 C 
ATOM      8  C   UNL d   1      29.525 -15.452  -3.175  0.00  0.00     0.019 C 
ATOM      9  C   UNL d   1      30.112 -16.290  -2.209  0.00  0.00     0.001 C 
ATOM     10  C   UNL d   1      30.458 -17.583  -2.544  0.00  0.00     0.002 C 
ATOM     11  C   UNL d   1      30.449 -17.929  -3.885  0.00  0.00     0.025 C 
ATOM     12  C   UNL d   1      29.944 -17.066  -4.857  0.00  0.00     0.049 C 
ATOM     13 CL   UNL d   1      30.408 -17.357  -6.495  0.00  0.00    -0.083 Cl
ENDBRANCH   4   7
ENDBRANCH   1   3
BRANCH   1  14
ATOM     14  C   UNL d   1      25.614 -14.715  -3.227  0.00  0.00     0.244 C 
ATOM     15  N   UNL d   1      26.147 -15.564  -2.266  0.00  0.00    -0.325 N 
ATOM     16  H   UNL d   1      27.153 -15.533  -2.147  0.00  0.00     0.169 HD
ATOM     17  O   UNL d   1      24.417 -14.446  -3.319  0.00  0.00    -0.271 OA
BRANCH  15  18
ATOM     18  C   UNL d   1      25.463 -16.629  -1.544  0.00  0.00     0.040 A 
ATOM     19  C   UNL d   1      24.047 -16.678  -1.653  0.00  0.00     0.030 A 
ATOM     20  C   UNL d   1      23.253 -17.459  -0.775  0.00  0.00     0.002 A 
ATOM     21  C   UNL d   1      23.843 -18.215   0.227  0.00  0.00     0.001 A 
ATOM     22  C   UNL d   1      25.222 -18.199   0.344  0.00  0.00     0.009 A 
ATOM     23  C   UNL d   1      26.039 -17.430  -0.521  0.00  0.00    -0.035 A 
ATOM     24  C   UNL d   1      27.474 -17.414  -0.096  0.00  0.00     0.050 C 
ENDBRANCH  15  18
ENDBRANCH   1  14
TORSDOF 4
ENDMDL
MODEL 7
REMARK VINA RESULT:    -6.827      1.626      1.863
REMARK INTER + INTRA:          -9.282
REMARK INTER:                  -8.020
REMARK INTRA:                  -1.261
REMARK CONF_INDEPENDENT:        1.193
REMARK UNBOUND:                -1.261
REMARK  4 active torsions:
REMARK  status: ('A' for Active; 'I' for Inactive)
REMARK    1  A    between atoms: C_7  and  N_8 
REMARK       I    between atoms: N_8  and  C_9 
REMARK    2  A    between atoms: C_11  and  C_9 
REMARK    3  A    between atoms: C_11  and  N_13 
REMARK       I    between atoms: N_13  and  C_14 
REMARK    4  A    between atoms: C_14  and  C_16 
ROOT
ATOM      1  C   UNL d   1      27.083 -13.593  -1.145  0.00  0.00     0.173 C 
ATOM      2  C   UNL d   1      27.551 -12.124  -1.437  0.00  0.00     0.042 C 
ENDROOT
BRANCH   1   3
ATOM      3  N   UNL d   1      25.910 -13.877  -2.026  0.00  0.00    -0.344 N 
ATOM      4  C   UNL d   1      25.464 -15.072  -2.552  0.00  0.00     0.254 C 
ATOM      5  O   UNL d   1      25.263 -15.193  -3.773  0.00  0.00    -0.268 OA
ATOM      6  H   UNL d   1      25.661 -13.101  -2.632  0.00  0.00     0.163 HD
BRANCH   4   7
ATOM      7  C   UNL d   1      25.022 -16.164  -1.649  0.00  0.00     0.053 C 
ATOM      8  C   UNL d   1      23.731 -16.224  -1.095  0.00  0.00     0.019 C 
ATOM      9  C   UNL d   1      23.314 -17.336  -0.341  0.00  0.00     0.001 C 
ATOM     10  C   UNL d   1      24.183 -18.388  -0.135  0.00  0.00     0.002 C 
ATOM     11  C   UNL d   1      25.517 -18.200  -0.462  0.00  0.00     0.025 C 
ATOM     12  C   UNL d   1      25.948 -17.058  -1.135  0.00  0.00     0.049 C 
ATOM     13 CL   UNL d   1      27.633 -16.685  -1.065  0.00  0.00    -0.083 Cl
ENDBRANCH   4   7
ENDBRANCH   1   3
BRANCH   1  14
ATOM     14  C   UNL d   1      26.883 -13.609   0.400  0.00  0.00     0.244 C 
ATOM     15  N   UNL d   1      27.758 -12.903   1.215  0.00  0.00    -0.325 N 
ATOM     16  H   UNL d   1      28.385 -12.257   0.749  0.00  0.00     0.169 HD
ATOM     17  O   UNL d   1      25.905 -14.229   0.816  0.00  0.00    -0.271 OA
BRANCH  15  18
ATOM     18  C   UNL d   1      28.019 -13.116   2.633  0.00  0.00     0.040 A 
ATOM     19  C   UNL d   1      28.197 -14.459   3.064  0.00  0.00     0.030 A 
ATOM     20  C   UNL d   1      28.153 -14.821   4.434  0.00  0.00     0.002 A 
ATOM     21  C   UNL d   1      27.938 -13.859   5.412  0.00  0.00     0.001 A 
ATOM     22  C   UNL d   1      27.780 -12.542   5.021  0.00  0.00     0.009 A 
ATOM     23  C   UNL d   1      27.822 -12.153   3.660  0.00  0.00    -0.035 A 
ATOM     24  C   UNL d   1      27.441 -10.719   3.457  0.00  0.00     0.050 C 
ENDBRANCH  15  18
ENDBRANCH   1  14
TORSDOF 4
ENDMDL
MODEL 8
REMARK VINA RESULT:    -6.810      5.401      8.013
REMARK INTER + INTRA:          -9.290
REMARK INTER:                  -8.003
REMARK INTRA:                  -1.287
REMARK CONF_INDEPENDENT:        1.193
REMARK UNBOUND:                -1.287
REMARK  4 active torsions:
REMARK  status: ('A' for Active; 'I' for Inactive)
REMARK    1  A    between atoms: C_7  and  N_8 
REMARK       I    between atoms: N_8  and  C_9 
REMARK    2  A    between atoms: C_11  and  C_9 
REMARK    3  A    between atoms: C_11  and  N_13 
REMARK       I    between atoms: N_13  and  C_14 
REMARK    4  A    between atoms: C_14  and  C_16 
ROOT
ATOM      1  C   UNL d   1      28.848 -14.454  -5.854  0.00  0.00     0.173 C 
ATOM      2  C   UNL d   1      28.216 -13.148  -6.451  0.00  0.00     0.042 C 
ENDROOT
BRANCH   1   3
ATOM      3  N   UNL d   1      29.455 -15.220  -6.984  0.00  0.00    -0.344 N 
ATOM      4  C   UNL d   1      30.575 -16.026  -7.010  0.00  0.00     0.254 C 
ATOM      5  O   UNL d   1      31.475 -15.837  -7.846  0.00  0.00    -0.268 OA
ATOM      6  H   UNL d   1      29.294 -14.797  -7.893  0.00  0.00     0.163 HD
BRANCH   4   7
ATOM      7  C   UNL d   1      30.627 -17.254  -6.179  0.00  0.00     0.053 C 
ATOM      8  C   UNL d   1      30.752 -17.226  -4.779  0.00  0.00     0.019 C 
ATOM      9  C   UNL d   1      30.679 -18.408  -4.018  0.00  0.00     0.001 C 
ATOM     10  C   UNL d   1      30.485 -19.618  -4.651  0.00  0.00     0.002 C 
ATOM     11  C   UNL d   1      30.623 -19.658  -6.029  0.00  0.00     0.025 C 
ATOM     12  C   UNL d   1      30.782 -18.494  -6.779  0.00  0.00     0.049 C 
ATOM     13 CL   UNL d   1      31.423 -18.659  -8.374  0.00  0.00    -0.083 Cl
ENDBRANCH   4   7
ENDBRANCH   1   3
BRANCH   1  14
ATOM     14  C   UNL d   1      27.671 -15.095  -5.058  0.00  0.00     0.244 C 
ATOM     15  N   UNL d   1      27.676 -15.053  -3.670  0.00  0.00    -0.325 N 
ATOM     16  H   UNL d   1      28.362 -14.443  -3.241  0.00  0.00     0.169 HD
ATOM     17  O   UNL d   1      26.758 -15.575  -5.729  0.00  0.00    -0.271 OA
BRANCH  15  18
ATOM     18  C   UNL d   1      26.948 -15.921  -2.753  0.00  0.00     0.040 A 
ATOM     19  C   UNL d   1      25.530 -15.832  -2.766  0.00  0.00     0.030 A 
ATOM     20  C   UNL d   1      24.732 -16.386  -1.733  0.00  0.00     0.002 A 
ATOM     21  C   UNL d   1      25.321 -17.048  -0.664  0.00  0.00     0.001 A 
ATOM     22  C   UNL d   1      26.699 -17.165  -0.636  0.00  0.00     0.009 A 
ATOM     23  C   UNL d   1      27.519 -16.623  -1.656  0.00  0.00    -0.035 A 
ATOM     24  C   UNL d   1      28.978 -16.701  -1.327  0.00  0.00     0.050 C 
ENDBRANCH  15  18
ENDBRANCH   1  14
TORSDOF 4
ENDMDL
MODEL 9
REMARK VINA RESULT:    -6.511      4.505      7.056
REMARK INTER + INTRA:          -9.165
REMARK INTER:                  -7.704
REMARK INTRA:                  -1.461
REMARK CONF_INDEPENDENT:        1.193
REMARK UNBOUND:                -1.461
REMARK  4 active torsions:
REMARK  status: ('A' for Active; 'I' for Inactive)
REMARK    1  A    between atoms: C_7  and  N_8 
REMARK       I    between atoms: N_8  and  C_9 
REMARK    2  A    between atoms: C_11  and  C_9 
REMARK    3  A    between atoms: C_11  and  N_13 
REMARK       I    between atoms: N_13  and  C_14 
REMARK    4  A    between atoms: C_14  and  C_16 
ROOT
ATOM      1  C   UNL d   1      28.601 -14.678  -2.641  0.00  0.00     0.173 C 
ATOM      2  C   UNL d   1      28.622 -13.118  -2.478  0.00  0.00     0.042 C 
ENDROOT
BRANCH   1   3
ATOM      3  N   UNL d   1      28.561 -14.980  -4.104  0.00  0.00    -0.344 N 
ATOM      4  C   UNL d   1      27.597 -14.684  -5.046  0.00  0.00     0.254 C 
ATOM      5  O   UNL d   1      27.120 -15.575  -5.769  0.00  0.00    -0.268 OA
ATOM      6  H   UNL d   1      29.065 -15.825  -4.357  0.00  0.00     0.163 HD
BRANCH   4   7
ATOM      7  C   UNL d   1      27.266 -13.270  -5.352  0.00  0.00     0.053 C 
ATOM      8  C   UNL d   1      28.221 -12.338  -5.794  0.00  0.00     0.019 C 
ATOM      9  C   UNL d   1      27.844 -11.041  -6.188  0.00  0.00     0.001 C 
ATOM     10  C   UNL d   1      26.516 -10.669  -6.137  0.00  0.00     0.002 C 
ATOM     11  C   UNL d   1      25.636 -11.499  -5.462  0.00  0.00     0.025 C 
ATOM     12  C   UNL d   1      26.030 -12.753  -4.995  0.00  0.00     0.049 C 
ATOM     13 CL   UNL d   1      25.053 -13.488  -3.776  0.00  0.00    -0.083 Cl
ENDBRANCH   4   7
ENDBRANCH   1   3
BRANCH   1  14
ATOM     14  C   UNL d   1      27.401 -15.120  -1.750  0.00  0.00     0.244 C 
ATOM     15  N   UNL d   1      27.080 -16.467  -1.646  0.00  0.00    -0.325 N 
ATOM     16  H   UNL d   1      27.760 -17.121  -2.015  0.00  0.00     0.169 HD
ATOM     17  O   UNL d   1      26.821 -14.225  -1.136  0.00  0.00    -0.271 OA
BRANCH  15  18
ATOM     18  C   UNL d   1      25.804 -17.047  -1.246  0.00  0.00     0.040 A 
ATOM     19  C   UNL d   1      24.628 -16.447  -1.771  0.00  0.00     0.030 A 
ATOM     20  C   UNL d   1      23.343 -16.714  -1.233  0.00  0.00     0.002 A 
ATOM     21  C   UNL d   1      23.193 -17.589  -0.166  0.00  0.00     0.001 A 
ATOM     22  C   UNL d   1      24.320 -18.200   0.352  0.00  0.00     0.009 A 
ATOM     23  C   UNL d   1      25.614 -17.953  -0.168  0.00  0.00    -0.035 A 
ATOM     24  C   UNL d   1      26.698 -18.571   0.662  0.00  0.00     0.050 C 
ENDBRANCH  15  18
ENDBRANCH   1  14
TORSDOF 4
ENDMDL
