MODEL 1
REMARK VINA RESULT:    -8.455      0.000      0.000
REMARK INTER + INTRA:         -14.019
REMARK INTER:                 -11.438
REMARK INTRA:                  -2.581
REMARK CONF_INDEPENDENT:        2.983
REMARK UNBOUND:                -2.581
REMARK  10 active torsions:
REMARK  status: ('A' for Active; 'I' for Inactive)
REMARK    1  A    between atoms: C_8  and  N_9 
REMARK       I    between atoms: N_9  and  C_10 
REMARK    2  A    between atoms: C_10  and  C_12 
REMARK       I    between atoms: C_12  and  N_14 
REMARK    3  A    between atoms: N_14  and  N_15 
REMARK    4  A    between atoms: C_16  and  C_17 
REMARK    5  A    between atoms: C_20  and  O_21 
REMARK    6  A    between atoms: O_21  and  C_22 
REMARK    7  A    between atoms: C_22  and  C_23 
REMARK       I    between atoms: C_23  and  N_25 
REMARK    8  A    between atoms: N_25  and  C_26 
REMARK    9  A    between atoms: C_26  and  C_27 
REMARK   10  A    between atoms: C_27  and  C_28 
ROOT
ATOM      1  C   UNL d   1      26.998 -15.256   0.154  0.00  0.00    -0.017 A 
ATOM      2  C   UNL d   1      26.277 -16.298  -0.433  0.00  0.00     0.015 A 
ATOM      3  C   UNL d   1      25.607 -16.074  -1.652  0.00  0.00     0.037 A 
ATOM      4  C   UNL d   1      25.617 -14.811  -2.265  0.00  0.00     0.069 A 
ATOM      5  C   UNL d   1      26.349 -13.786  -1.672  0.00  0.00     0.037 A 
ATOM      6  C   UNL d   1      27.030 -14.006  -0.469  0.00  0.00     0.015 A 
ENDROOT
BRANCH   1   7
ATOM      7  C   UNL d   1      27.762 -15.430   1.419  0.00  0.00     0.150 C 
ATOM      8  N   UNL d   1      27.582 -14.585   2.389  0.00  0.00    -0.183 NA
BRANCH   8   9
ATOM      9  N   UNL d   1      28.310 -14.742   3.531  0.00  0.00    -0.239 N 
ATOM     10  C   UNL d   1      27.966 -14.084   4.728  0.00  0.00     0.329 C 
ATOM     11  O   UNL d   1      27.032 -13.325   4.948  0.00  0.00    -0.261 OA
ATOM     12  H   UNL d   1      29.136 -15.347   3.553  0.00  0.00     0.192 HD
BRANCH  10  13
ATOM     13  C   UNL d   1      28.954 -14.440   5.845  0.00  0.00     0.315 C 
ATOM     14  N   UNL d   1      28.773 -13.909   7.134  0.00  0.00    -0.318 N 
ATOM     15  H   UNL d   1      27.950 -13.314   7.234  0.00  0.00     0.169 HD
ATOM     16  O   UNL d   1      29.826 -15.194   5.419  0.00  0.00    -0.262 OA
BRANCH  14  17
ATOM     17  C   UNL d   1      29.591 -14.080   8.322  0.00  0.00     0.041 A 
ATOM     18  C   UNL d   1      30.953 -14.450   8.168  0.00  0.00     0.032 A 
ATOM     19  C   UNL d   1      31.812 -14.650   9.280  0.00  0.00     0.026 A 
ATOM     20  C   UNL d   1      31.330 -14.499  10.572  0.00  0.00     0.034 A 
ATOM     21  C   UNL d   1      30.011 -14.140  10.753  0.00  0.00     0.032 A 
ATOM     22 CL   UNL d   1      32.332 -14.733  11.950  0.00  0.00    -0.084 Cl
ATOM     23  C   UNL d   1      29.151 -13.916   9.655  0.00  0.00    -0.034 A 
ATOM     24  C   UNL d   1      27.781 -13.487  10.053  0.00  0.00     0.050 C 
ENDBRANCH  14  17
ENDBRANCH  10  13
ENDBRANCH   8   9
ENDBRANCH   1   7
BRANCH   4  25
ATOM     25  O   UNL d   1      24.883 -14.694  -3.415  0.00  0.00    -0.342 OA
BRANCH  25  26
ATOM     26  C   UNL d   1      25.452 -13.969  -4.509  0.00  0.00     0.278 C 
BRANCH  26  27
ATOM     27  C   UNL d   1      26.755 -14.633  -4.985  0.00  0.00     0.241 C 
ATOM     28  O   UNL d   1      26.780 -15.575  -5.775  0.00  0.00    -0.271 OA
ATOM     29  N   UNL d   1      27.926 -14.098  -4.460  0.00  0.00    -0.359 N 
ATOM     30  H   UNL d   1      27.902 -13.351  -3.778  0.00  0.00     0.162 HD
BRANCH  29  31
ATOM     31  C   UNL d   1      29.197 -14.701  -4.830  0.00  0.00     0.127 C 
BRANCH  31  32
ATOM     32  C   UNL d   1      29.385 -16.139  -4.341  0.00  0.00     0.058 C 
BRANCH  32  33
ATOM     33  C   UNL d   1      30.123 -17.026  -5.322  0.00  0.00    -0.057 A 
ATOM     34  C   UNL d   1      30.511 -16.559  -6.588  0.00  0.00     0.007 A 
ATOM     35  C   UNL d   1      31.075 -17.421  -7.529  0.00  0.00     0.001 A 
ATOM     36  C   UNL d   1      31.311 -18.752  -7.200  0.00  0.00     0.000 A 
ATOM     37  C   UNL d   1      30.954 -19.227  -5.940  0.00  0.00     0.001 A 
ATOM     38  C   UNL d   1      30.352 -18.374  -5.011  0.00  0.00     0.007 A 
ENDBRANCH  32  33
ENDBRANCH  31  32
ENDBRANCH  29  31
ENDBRANCH  26  27
ENDBRANCH  25  26
ENDBRANCH   4  25
TORSDOF 10
ENDMDL
MODEL 2
REMARK VINA RESULT:    -7.800      5.871      7.586
REMARK INTER + INTRA:         -13.409
REMARK INTER:                 -10.783
REMARK INTRA:                  -2.626
REMARK CONF_INDEPENDENT:        2.983
REMARK UNBOUND:                -2.626
REMARK  10 active torsions:
REMARK  status: ('A' for Active; 'I' for Inactive)
REMARK    1  A    between atoms: C_8  and  N_9 
REMARK       I    between atoms: N_9  and  C_10 
REMARK    2  A    between atoms: C_10  and  C_12 
REMARK       I    between atoms: C_12  and  N_14 
REMARK    3  A    between atoms: N_14  and  N_15 
REMARK    4  A    between atoms: C_16  and  C_17 
REMARK    5  A    between atoms: C_20  and  O_21 
REMARK    6  A    between atoms: O_21  and  C_22 
REMARK    7  A    between atoms: C_22  and  C_23 
REMARK       I    between atoms: C_23  and  N_25 
REMARK    8  A    between atoms: N_25  and  C_26 
REMARK    9  A    between atoms: C_26  and  C_27 
REMARK   10  A    between atoms: C_27  and  C_28 
ROOT
ATOM      1  C   UNL d   1      31.620 -18.144  -0.570  0.00  0.00    -0.017 A 
ATOM      2  C   UNL d   1      31.611 -18.984  -1.686  0.00  0.00     0.015 A 
ATOM      3  C   UNL d   1      30.942 -18.575  -2.855  0.00  0.00     0.037 A 
ATOM      4  C   UNL d   1      30.248 -17.356  -2.905  0.00  0.00     0.069 A 
ATOM      5  C   UNL d   1      30.274 -16.524  -1.789  0.00  0.00     0.037 A 
ATOM      6  C   UNL d   1      30.952 -16.918  -0.628  0.00  0.00     0.015 A 
ENDROOT
BRANCH   1   7
ATOM      7  C   UNL d   1      32.339 -18.492   0.685  0.00  0.00     0.150 C 
ATOM      8  N   UNL d   1      32.978 -19.621   0.757  0.00  0.00    -0.183 NA
BRANCH   8   9
ATOM      9  N   UNL d   1      33.607 -19.938   1.924  0.00  0.00    -0.239 N 
ATOM     10  C   UNL d   1      33.079 -20.888   2.820  0.00  0.00     0.329 C 
ATOM     11  O   UNL d   1      32.055 -21.550   2.723  0.00  0.00    -0.261 OA
ATOM     12  H   UNL d   1      34.490 -19.490   2.187  0.00  0.00     0.192 HD
BRANCH  10  13
ATOM     13  C   UNL d   1      33.989 -21.042   4.044  0.00  0.00     0.315 C 
ATOM     14  N   UNL d   1      33.588 -21.863   5.114  0.00  0.00    -0.318 N 
ATOM     15  H   UNL d   1      32.689 -22.325   4.977  0.00  0.00     0.169 HD
ATOM     16  O   UNL d   1      35.013 -20.378   3.901  0.00  0.00    -0.262 OA
BRANCH  14  17
ATOM     17  C   UNL d   1      34.264 -22.128   6.372  0.00  0.00     0.041 A 
ATOM     18  C   UNL d   1      34.328 -21.097   7.346  0.00  0.00     0.032 A 
ATOM     19  C   UNL d   1      34.984 -21.275   8.592  0.00  0.00     0.026 A 
ATOM     20  C   UNL d   1      35.602 -22.480   8.891  0.00  0.00     0.034 A 
ATOM     21  C   UNL d   1      35.555 -23.500   7.965  0.00  0.00     0.032 A 
ATOM     22 CL   UNL d   1      36.409 -22.741  10.387  0.00  0.00    -0.084 Cl
ATOM     23  C   UNL d   1      34.888 -23.345   6.729  0.00  0.00    -0.034 A 
ATOM     24  C   UNL d   1      34.905 -24.573   5.888  0.00  0.00     0.050 C 
ENDBRANCH  14  17
ENDBRANCH  10  13
ENDBRANCH   8   9
ENDBRANCH   1   7
BRANCH   4  25
ATOM     25  O   UNL d   1      29.584 -17.088  -4.072  0.00  0.00    -0.342 OA
BRANCH  25  26
ATOM     26  C   UNL d   1      29.317 -15.720  -4.401  0.00  0.00     0.278 C 
BRANCH  26  27
ATOM     27  C   UNL d   1      27.817 -15.505  -4.660  0.00  0.00     0.241 C 
ATOM     28  O   UNL d   1      27.311 -15.573  -5.778  0.00  0.00    -0.271 OA
ATOM     29  N   UNL d   1      27.050 -15.221  -3.534  0.00  0.00    -0.359 N 
ATOM     30  H   UNL d   1      27.475 -15.123  -2.621  0.00  0.00     0.162 HD
BRANCH  29  31
ATOM     31  C   UNL d   1      25.629 -14.962  -3.705  0.00  0.00     0.127 C 
BRANCH  31  32
ATOM     32  C   UNL d   1      24.844 -14.838  -2.396  0.00  0.00     0.058 C 
BRANCH  32  33
ATOM     33  C   UNL d   1      25.090 -15.977  -1.429  0.00  0.00    -0.057 A 
ATOM     34  C   UNL d   1      26.309 -16.115  -0.748  0.00  0.00     0.007 A 
ATOM     35  C   UNL d   1      26.568 -17.236   0.041  0.00  0.00     0.001 A 
ATOM     36  C   UNL d   1      25.590 -18.212   0.206  0.00  0.00     0.000 A 
ATOM     37  C   UNL d   1      24.365 -18.081  -0.444  0.00  0.00     0.001 A 
ATOM     38  C   UNL d   1      24.120 -16.977  -1.266  0.00  0.00     0.007 A 
ENDBRANCH  32  33
ENDBRANCH  31  32
ENDBRANCH  29  31
ENDBRANCH  26  27
ENDBRANCH  25  26
ENDBRANCH   4  25
TORSDOF 10
ENDMDL
MODEL 3
REMARK VINA RESULT:    -7.724      2.336      4.315
REMARK INTER + INTRA:         -13.858
REMARK INTER:                 -10.707
REMARK INTRA:                  -3.151
REMARK CONF_INDEPENDENT:        2.983
REMARK UNBOUND:                -3.151
REMARK  10 active torsions:
REMARK  status: ('A' for Active; 'I' for Inactive)
REMARK    1  A    between atoms: C_8  and  N_9 
REMARK       I    between atoms: N_9  and  C_10 
REMARK    2  A    between atoms: C_10  and  C_12 
REMARK       I    between atoms: C_12  and  N_14 
REMARK    3  A    between atoms: N_14  and  N_15 
REMARK    4  A    between atoms: C_16  and  C_17 
REMARK    5  A    between atoms: C_20  and  O_21 
REMARK    6  A    between atoms: O_21  and  C_22 
REMARK    7  A    between atoms: C_22  and  C_23 
REMARK       I    between atoms: C_23  and  N_25 
REMARK    8  A    between atoms: N_25  and  C_26 
REMARK    9  A    between atoms: C_26  and  C_27 
REMARK   10  A    between atoms: C_27  and  C_28 
ROOT
ATOM      1  C   UNL d   1      27.074 -15.351   0.125  0.00  0.00    -0.017 A 
ATOM      2  C   UNL d   1      26.881 -14.076  -0.410  0.00  0.00     0.015 A 
ATOM      3  C   UNL d   1      26.194 -13.935  -1.633  0.00  0.00     0.037 A 
ATOM      4  C   UNL d   1      25.739 -15.056  -2.343  0.00  0.00     0.069 A 
ATOM      5  C   UNL d   1      25.930 -16.321  -1.791  0.00  0.00     0.037 A 
ATOM      6  C   UNL d   1      26.597 -16.467  -0.569  0.00  0.00     0.015 A 
ENDROOT
BRANCH   1   7
ATOM      7  C   UNL d   1      27.755 -15.574   1.429  0.00  0.00     0.150 C 
ATOM      8  N   UNL d   1      27.784 -14.612   2.302  0.00  0.00    -0.183 NA
BRANCH   8   9
ATOM      9  N   UNL d   1      28.435 -14.823   3.480  0.00  0.00    -0.239 N 
ATOM     10  C   UNL d   1      28.130 -14.085   4.641  0.00  0.00     0.329 C 
ATOM     11  O   UNL d   1      27.297 -13.203   4.795  0.00  0.00    -0.261 OA
ATOM     12  H   UNL d   1      29.172 -15.530   3.558  0.00  0.00     0.192 HD
BRANCH  10  13
ATOM     13  C   UNL d   1      29.015 -14.528   5.812  0.00  0.00     0.315 C 
ATOM     14  N   UNL d   1      28.933 -13.855   7.044  0.00  0.00    -0.318 N 
ATOM     15  H   UNL d   1      28.247 -13.100   7.067  0.00  0.00     0.169 HD
ATOM     16  O   UNL d   1      29.719 -15.480   5.479  0.00  0.00    -0.262 OA
BRANCH  14  17
ATOM     17  C   UNL d   1      29.688 -14.077   8.265  0.00  0.00     0.041 A 
ATOM     18  C   UNL d   1      31.060 -14.427   8.167  0.00  0.00     0.032 A 
ATOM     19  C   UNL d   1      31.860 -14.675   9.314  0.00  0.00     0.026 A 
ATOM     20  C   UNL d   1      31.306 -14.591  10.583  0.00  0.00     0.034 A 
ATOM     21  C   UNL d   1      29.976 -14.253  10.708  0.00  0.00     0.032 A 
ATOM     22 CL   UNL d   1      32.236 -14.884  12.000  0.00  0.00    -0.084 Cl
ATOM     23  C   UNL d   1      29.174 -13.982   9.577  0.00  0.00    -0.034 A 
ATOM     24  C   UNL d   1      27.780 -13.585   9.921  0.00  0.00     0.050 C 
ENDBRANCH  14  17
ENDBRANCH  10  13
ENDBRANCH   8   9
ENDBRANCH   1   7
BRANCH   4  25
ATOM     25  O   UNL d   1      25.138 -14.804  -3.547  0.00  0.00    -0.342 OA
BRANCH  25  26
ATOM     26  C   UNL d   1      25.630 -15.487  -4.705  0.00  0.00     0.278 C 
BRANCH  26  27
ATOM     27  C   UNL d   1      26.803 -14.717  -5.335  0.00  0.00     0.241 C 
ATOM     28  O   UNL d   1      27.540 -15.200  -6.192  0.00  0.00    -0.271 OA
ATOM     29  N   UNL d   1      26.986 -13.419  -4.869  0.00  0.00    -0.359 N 
ATOM     30  H   UNL d   1      26.404 -13.039  -4.133  0.00  0.00     0.162 HD
BRANCH  29  31
ATOM     31  C   UNL d   1      28.102 -12.643  -5.387  0.00  0.00     0.127 C 
BRANCH  31  32
ATOM     32  C   UNL d   1      27.696 -11.454  -6.263  0.00  0.00     0.058 C 
BRANCH  32  33
ATOM     33  C   UNL d   1      26.618 -10.585  -5.649  0.00  0.00    -0.057 A 
ATOM     34  C   UNL d   1      25.757  -9.810  -6.441  0.00  0.00     0.007 A 
ATOM     35  C   UNL d   1      24.855  -8.919  -5.859  0.00  0.00     0.001 A 
ATOM     36  C   UNL d   1      24.762  -8.827  -4.474  0.00  0.00     0.000 A 
ATOM     37  C   UNL d   1      25.592  -9.606  -3.672  0.00  0.00     0.001 A 
ATOM     38  C   UNL d   1      26.524 -10.470  -4.254  0.00  0.00     0.007 A 
ENDBRANCH  32  33
ENDBRANCH  31  32
ENDBRANCH  29  31
ENDBRANCH  26  27
ENDBRANCH  25  26
ENDBRANCH   4  25
TORSDOF 10
ENDMDL
MODEL 4
REMARK VINA RESULT:    -7.636      1.334      1.933
REMARK INTER + INTRA:         -13.589
REMARK INTER:                 -10.619
REMARK INTRA:                  -2.970
REMARK CONF_INDEPENDENT:        2.983
REMARK UNBOUND:                -2.970
REMARK  10 active torsions:
REMARK  status: ('A' for Active; 'I' for Inactive)
REMARK    1  A    between atoms: C_8  and  N_9 
REMARK       I    between atoms: N_9  and  C_10 
REMARK    2  A    between atoms: C_10  and  C_12 
REMARK       I    between atoms: C_12  and  N_14 
REMARK    3  A    between atoms: N_14  and  N_15 
REMARK    4  A    between atoms: C_16  and  C_17 
REMARK    5  A    between atoms: C_20  and  O_21 
REMARK    6  A    between atoms: O_21  and  C_22 
REMARK    7  A    between atoms: C_22  and  C_23 
REMARK       I    between atoms: C_23  and  N_25 
REMARK    8  A    between atoms: N_25  and  C_26 
REMARK    9  A    between atoms: C_26  and  C_27 
REMARK   10  A    between atoms: C_27  and  C_28 
ROOT
ATOM      1  C   UNL d   1      26.658 -14.926  -0.203  0.00  0.00    -0.017 A 
ATOM      2  C   UNL d   1      26.740 -13.808  -1.037  0.00  0.00     0.015 A 
ATOM      3  C   UNL d   1      26.332 -13.916  -2.381  0.00  0.00     0.037 A 
ATOM      4  C   UNL d   1      25.884 -15.138  -2.907  0.00  0.00     0.069 A 
ATOM      5  C   UNL d   1      25.797 -16.240  -2.061  0.00  0.00     0.037 A 
ATOM      6  C   UNL d   1      26.186 -16.135  -0.720  0.00  0.00     0.015 A 
ENDROOT
BRANCH   1   7
ATOM      7  C   UNL d   1      27.033 -14.876   1.236  0.00  0.00     0.150 C 
ATOM      8  N   UNL d   1      28.291 -14.840   1.562  0.00  0.00    -0.183 NA
BRANCH   8   9
ATOM      9  N   UNL d   1      28.618 -14.824   2.885  0.00  0.00    -0.239 N 
ATOM     10  C   UNL d   1      28.062 -13.886   3.777  0.00  0.00     0.329 C 
ATOM     11  O   UNL d   1      27.251 -12.998   3.552  0.00  0.00    -0.261 OA
ATOM     12  H   UNL d   1      29.284 -15.497   3.274  0.00  0.00     0.192 HD
BRANCH  10  13
ATOM     13  C   UNL d   1      28.607 -14.096   5.194  0.00  0.00     0.315 C 
ATOM     14  N   UNL d   1      28.311 -13.163   6.203  0.00  0.00    -0.318 N 
ATOM     15  H   UNL d   1      27.714 -12.392   5.902  0.00  0.00     0.169 HD
ATOM     16  O   UNL d   1      29.274 -15.127   5.246  0.00  0.00    -0.262 OA
BRANCH  14  17
ATOM     17  C   UNL d   1      28.740 -13.141   7.590  0.00  0.00     0.041 A 
ATOM     18  C   UNL d   1      28.917 -14.374   8.271  0.00  0.00     0.032 A 
ATOM     19  C   UNL d   1      29.320 -14.435   9.632  0.00  0.00     0.026 A 
ATOM     20  C   UNL d   1      29.544 -13.268  10.346  0.00  0.00     0.034 A 
ATOM     21  C   UNL d   1      29.382 -12.055   9.711  0.00  0.00     0.032 A 
ATOM     22 CL   UNL d   1      30.032 -13.292  11.996  0.00  0.00    -0.084 Cl
ATOM     23  C   UNL d   1      29.002 -11.980   8.352  0.00  0.00    -0.034 A 
ATOM     24  C   UNL d   1      28.929 -10.586   7.834  0.00  0.00     0.050 C 
ENDBRANCH  14  17
ENDBRANCH  10  13
ENDBRANCH   8   9
ENDBRANCH   1   7
BRANCH   4  25
ATOM     25  O   UNL d   1      25.570 -15.140  -4.240  0.00  0.00    -0.342 OA
BRANCH  25  26
ATOM     26  C   UNL d   1      25.927 -13.996  -5.022  0.00  0.00     0.278 C 
BRANCH  26  27
ATOM     27  C   UNL d   1      27.312 -14.185  -5.664  0.00  0.00     0.241 C 
ATOM     28  O   UNL d   1      27.785 -13.402  -6.485  0.00  0.00    -0.271 OA
ATOM     29  N   UNL d   1      28.012 -15.315  -5.255  0.00  0.00    -0.359 N 
ATOM     30  H   UNL d   1      27.604 -15.981  -4.611  0.00  0.00     0.162 HD
BRANCH  29  31
ATOM     31  C   UNL d   1      29.312 -15.585  -5.850  0.00  0.00     0.127 C 
BRANCH  31  32
ATOM     32  C   UNL d   1      30.145 -16.633  -5.108  0.00  0.00     0.058 C 
BRANCH  32  33
ATOM     33  C   UNL d   1      30.421 -17.879  -5.923  0.00  0.00    -0.057 A 
ATOM     34  C   UNL d   1      30.405 -19.157  -5.343  0.00  0.00     0.007 A 
ATOM     35  C   UNL d   1      30.785 -20.282  -6.075  0.00  0.00     0.001 A 
ATOM     36  C   UNL d   1      31.137 -20.155  -7.415  0.00  0.00     0.000 A 
ATOM     37  C   UNL d   1      31.136 -18.898  -8.014  0.00  0.00     0.001 A 
ATOM     38  C   UNL d   1      30.793 -17.765  -7.271  0.00  0.00     0.007 A 
ENDBRANCH  32  33
ENDBRANCH  31  32
ENDBRANCH  29  31
ENDBRANCH  26  27
ENDBRANCH  25  26
ENDBRANCH   4  25
TORSDOF 10
ENDMDL
MODEL 5
REMARK VINA RESULT:    -7.326      2.187      4.251
REMARK INTER + INTRA:         -13.916
REMARK INTER:                 -10.309
REMARK INTRA:                  -3.607
REMARK CONF_INDEPENDENT:        2.983
REMARK UNBOUND:                -3.607
REMARK  10 active torsions:
REMARK  status: ('A' for Active; 'I' for Inactive)
REMARK    1  A    between atoms: C_8  and  N_9 
REMARK       I    between atoms: N_9  and  C_10 
REMARK    2  A    between atoms: C_10  and  C_12 
REMARK       I    between atoms: C_12  and  N_14 
REMARK    3  A    between atoms: N_14  and  N_15 
REMARK    4  A    between atoms: C_16  and  C_17 
REMARK    5  A    between atoms: C_20  and  O_21 
REMARK    6  A    between atoms: O_21  and  C_22 
REMARK    7  A    between atoms: C_22  and  C_23 
REMARK       I    between atoms: C_23  and  N_25 
REMARK    8  A    between atoms: N_25  and  C_26 
REMARK    9  A    between atoms: C_26  and  C_27 
REMARK   10  A    between atoms: C_27  and  C_28 
ROOT
ATOM      1  C   UNL d   1      29.409 -15.600  -0.883  0.00  0.00    -0.017 A 
ATOM      2  C   UNL d   1      29.343 -16.792  -1.607  0.00  0.00     0.015 A 
ATOM      3  C   UNL d   1      29.289 -16.745  -3.014  0.00  0.00     0.037 A 
ATOM      4  C   UNL d   1      29.256 -15.520  -3.698  0.00  0.00     0.069 A 
ATOM      5  C   UNL d   1      29.333 -14.340  -2.963  0.00  0.00     0.037 A 
ATOM      6  C   UNL d   1      29.404 -14.380  -1.565  0.00  0.00     0.015 A 
ENDROOT
BRANCH   1   7
ATOM      7  C   UNL d   1      29.508 -15.574   0.601  0.00  0.00     0.150 C 
ATOM      8  N   UNL d   1      28.661 -14.860   1.281  0.00  0.00    -0.183 NA
BRANCH   8   9
ATOM      9  N   UNL d   1      28.783 -14.825   2.638  0.00  0.00    -0.239 N 
ATOM     10  C   UNL d   1      28.261 -13.764   3.404  0.00  0.00     0.329 C 
ATOM     11  O   UNL d   1      27.652 -12.772   3.029  0.00  0.00    -0.261 OA
ATOM     12  H   UNL d   1      29.262 -15.574   3.146  0.00  0.00     0.192 HD
BRANCH  10  13
ATOM     13  C   UNL d   1      28.544 -13.982   4.894  0.00  0.00     0.315 C 
ATOM     14  N   UNL d   1      28.522 -12.888   5.778  0.00  0.00    -0.318 N 
ATOM     15  H   UNL d   1      28.293 -11.996   5.339  0.00  0.00     0.169 HD
ATOM     16  O   UNL d   1      28.764 -15.171   5.118  0.00  0.00    -0.262 OA
BRANCH  14  17
ATOM     17  C   UNL d   1      28.788 -12.853   7.205  0.00  0.00     0.041 A 
ATOM     18  C   UNL d   1      28.905 -14.080   7.910  0.00  0.00     0.032 A 
ATOM     19  C   UNL d   1      29.150 -14.128   9.307  0.00  0.00     0.026 A 
ATOM     20  C   UNL d   1      29.271 -12.955  10.036  0.00  0.00     0.034 A 
ATOM     21  C   UNL d   1      29.163 -11.748   9.379  0.00  0.00     0.032 A 
ATOM     22 CL   UNL d   1      29.566 -12.964  11.731  0.00  0.00    -0.084 Cl
ATOM     23  C   UNL d   1      28.941 -11.685   7.985  0.00  0.00    -0.034 A 
ATOM     24  C   UNL d   1      28.905 -10.294   7.453  0.00  0.00     0.050 C 
ENDBRANCH  14  17
ENDBRANCH  10  13
ENDBRANCH   8   9
ENDBRANCH   1   7
BRANCH   4  25
ATOM     25  O   UNL d   1      29.143 -15.593  -5.061  0.00  0.00    -0.342 OA
BRANCH  25  26
ATOM     26  C   UNL d   1      28.603 -14.466  -5.757  0.00  0.00     0.278 C 
BRANCH  26  27
ATOM     27  C   UNL d   1      27.205 -14.114  -5.222  0.00  0.00     0.241 C 
ATOM     28  O   UNL d   1      26.650 -13.040  -5.447  0.00  0.00    -0.271 OA
ATOM     29  N   UNL d   1      26.593 -15.098  -4.453  0.00  0.00    -0.359 N 
ATOM     30  H   UNL d   1      27.069 -15.964  -4.234  0.00  0.00     0.162 HD
BRANCH  29  31
ATOM     31  C   UNL d   1      25.286 -14.822  -3.876  0.00  0.00     0.127 C 
BRANCH  31  32
ATOM     32  C   UNL d   1      25.303 -14.534  -2.373  0.00  0.00     0.058 C 
BRANCH  32  33
ATOM     33  C   UNL d   1      25.187 -15.777  -1.514  0.00  0.00    -0.057 A 
ATOM     34  C   UNL d   1      26.216 -16.170  -0.645  0.00  0.00     0.007 A 
ATOM     35  C   UNL d   1      26.151 -17.381   0.044  0.00  0.00     0.001 A 
ATOM     36  C   UNL d   1      25.029 -18.195  -0.084  0.00  0.00     0.000 A 
ATOM     37  C   UNL d   1      23.987 -17.809  -0.924  0.00  0.00     0.001 A 
ATOM     38  C   UNL d   1      24.070 -16.615  -1.645  0.00  0.00     0.007 A 
ENDBRANCH  32  33
ENDBRANCH  31  32
ENDBRANCH  29  31
ENDBRANCH  26  27
ENDBRANCH  25  26
ENDBRANCH   4  25
TORSDOF 10
ENDMDL
MODEL 6
REMARK VINA RESULT:    -7.322      5.313      6.817
REMARK INTER + INTRA:         -13.873
REMARK INTER:                 -10.305
REMARK INTRA:                  -3.568
REMARK CONF_INDEPENDENT:        2.983
REMARK UNBOUND:                -3.568
REMARK  10 active torsions:
REMARK  status: ('A' for Active; 'I' for Inactive)
REMARK    1  A    between atoms: C_8  and  N_9 
REMARK       I    between atoms: N_9  and  C_10 
REMARK    2  A    between atoms: C_10  and  C_12 
REMARK       I    between atoms: C_12  and  N_14 
REMARK    3  A    between atoms: N_14  and  N_15 
REMARK    4  A    between atoms: C_16  and  C_17 
REMARK    5  A    between atoms: C_20  and  O_21 
REMARK    6  A    between atoms: O_21  and  C_22 
REMARK    7  A    between atoms: C_22  and  C_23 
REMARK       I    between atoms: C_23  and  N_25 
REMARK    8  A    between atoms: N_25  and  C_26 
REMARK    9  A    between atoms: C_26  and  C_27 
REMARK   10  A    between atoms: C_27  and  C_28 
ROOT
ATOM      1  C   UNL d   1      30.176 -17.163  -2.019  0.00  0.00    -0.017 A 
ATOM      2  C   UNL d   1      30.154 -17.567  -3.356  0.00  0.00     0.015 A 
ATOM      3  C   UNL d   1      29.911 -16.612  -4.363  0.00  0.00     0.037 A 
ATOM      4  C   UNL d   1      29.647 -15.272  -4.044  0.00  0.00     0.069 A 
ATOM      5  C   UNL d   1      29.681 -14.882  -2.707  0.00  0.00     0.037 A 
ATOM      6  C   UNL d   1      29.939 -15.822  -1.702  0.00  0.00     0.015 A 
ENDROOT
BRANCH   1   7
ATOM      7  C   UNL d   1      30.465 -18.106  -0.906  0.00  0.00     0.150 C 
ATOM      8  N   UNL d   1      31.647 -18.109  -0.367  0.00  0.00    -0.183 NA
BRANCH   8   9
ATOM      9  N   UNL d   1      31.904 -18.999   0.633  0.00  0.00    -0.239 N 
ATOM     10  C   UNL d   1      32.845 -18.728   1.645  0.00  0.00     0.329 C 
ATOM     11  O   UNL d   1      33.539 -17.733   1.804  0.00  0.00    -0.261 OA
ATOM     12  H   UNL d   1      31.417 -19.899   0.678  0.00  0.00     0.192 HD
BRANCH  10  13
ATOM     13  C   UNL d   1      32.931 -19.898   2.631  0.00  0.00     0.315 C 
ATOM     14  N   UNL d   1      33.673 -19.760   3.818  0.00  0.00    -0.318 N 
ATOM     15  H   UNL d   1      34.101 -18.842   3.943  0.00  0.00     0.169 HD
ATOM     16  O   UNL d   1      32.291 -20.860   2.210  0.00  0.00    -0.262 OA
BRANCH  14  17
ATOM     17  C   UNL d   1      33.917 -20.733   4.869  0.00  0.00     0.041 A 
ATOM     18  C   UNL d   1      35.258 -21.055   5.204  0.00  0.00     0.032 A 
ATOM     19  C   UNL d   1      35.577 -22.007   6.209  0.00  0.00     0.026 A 
ATOM     20  C   UNL d   1      34.567 -22.667   6.892  0.00  0.00     0.034 A 
ATOM     21  C   UNL d   1      33.255 -22.373   6.588  0.00  0.00     0.032 A 
ATOM     22 CL   UNL d   1      34.905 -23.828   8.115  0.00  0.00    -0.084 Cl
ATOM     23  C   UNL d   1      32.922 -21.413   5.607  0.00  0.00    -0.034 A 
ATOM     24  C   UNL d   1      31.456 -21.200   5.459  0.00  0.00     0.050 C 
ENDBRANCH  14  17
ENDBRANCH  10  13
ENDBRANCH   8   9
ENDBRANCH   1   7
BRANCH   4  25
ATOM     25  O   UNL d   1      29.365 -14.445  -5.099  0.00  0.00    -0.342 OA
BRANCH  25  26
ATOM     26  C   UNL d   1      28.286 -14.801  -5.968  0.00  0.00     0.278 C 
BRANCH  26  27
ATOM     27  C   UNL d   1      26.973 -14.940  -5.179  0.00  0.00     0.241 C 
ATOM     28  O   UNL d   1      26.007 -15.579  -5.589  0.00  0.00    -0.271 OA
ATOM     29  N   UNL d   1      26.941 -14.288  -3.951  0.00  0.00    -0.359 N 
ATOM     30  H   UNL d   1      27.722 -13.728  -3.634  0.00  0.00     0.162 HD
BRANCH  29  31
ATOM     31  C   UNL d   1      25.718 -14.338  -3.165  0.00  0.00     0.127 C 
BRANCH  31  32
ATOM     32  C   UNL d   1      25.157 -15.746  -2.951  0.00  0.00     0.058 C 
BRANCH  32  33
ATOM     33  C   UNL d   1      25.623 -16.399  -1.666  0.00  0.00    -0.057 A 
ATOM     34  C   UNL d   1      26.753 -15.938  -0.973  0.00  0.00     0.007 A 
ATOM     35  C   UNL d   1      27.244 -16.625   0.137  0.00  0.00     0.001 A 
ATOM     36  C   UNL d   1      26.580 -17.755   0.606  0.00  0.00     0.000 A 
ATOM     37  C   UNL d   1      25.443 -18.213  -0.055  0.00  0.00     0.001 A 
ATOM     38  C   UNL d   1      24.974 -17.548  -1.191  0.00  0.00     0.007 A 
ENDBRANCH  32  33
ENDBRANCH  31  32
ENDBRANCH  29  31
ENDBRANCH  26  27
ENDBRANCH  25  26
ENDBRANCH   4  25
TORSDOF 10
ENDMDL
MODEL 7
REMARK VINA RESULT:    -7.041      1.070      1.768
REMARK INTER + INTRA:         -13.931
REMARK INTER:                 -10.024
REMARK INTRA:                  -3.907
REMARK CONF_INDEPENDENT:        2.983
REMARK UNBOUND:                -3.907
REMARK  10 active torsions:
REMARK  status: ('A' for Active; 'I' for Inactive)
REMARK    1  A    between atoms: C_8  and  N_9 
REMARK       I    between atoms: N_9  and  C_10 
REMARK    2  A    between atoms: C_10  and  C_12 
REMARK       I    between atoms: C_12  and  N_14 
REMARK    3  A    between atoms: N_14  and  N_15 
REMARK    4  A    between atoms: C_16  and  C_17 
REMARK    5  A    between atoms: C_20  and  O_21 
REMARK    6  A    between atoms: O_21  and  C_22 
REMARK    7  A    between atoms: C_22  and  C_23 
REMARK       I    between atoms: C_23  and  N_25 
REMARK    8  A    between atoms: N_25  and  C_26 
REMARK    9  A    between atoms: C_26  and  C_27 
REMARK   10  A    between atoms: C_27  and  C_28 
ROOT
ATOM      1  C   UNL d   1      27.192 -15.020  -0.025  0.00  0.00    -0.017 A 
ATOM      2  C   UNL d   1      27.055 -13.772  -0.638  0.00  0.00     0.015 A 
ATOM      3  C   UNL d   1      26.333 -13.669  -1.843  0.00  0.00     0.037 A 
ATOM      4  C   UNL d   1      25.784 -14.804  -2.460  0.00  0.00     0.069 A 
ATOM      5  C   UNL d   1      25.920 -16.039  -1.831  0.00  0.00     0.037 A 
ATOM      6  C   UNL d   1      26.623 -16.146  -0.625  0.00  0.00     0.015 A 
ENDROOT
BRANCH   1   7
ATOM      7  C   UNL d   1      27.907 -15.199   1.267  0.00  0.00     0.150 C 
ATOM      8  N   UNL d   1      27.457 -14.602   2.330  0.00  0.00    -0.183 NA
BRANCH   8   9
ATOM      9  N   UNL d   1      28.140 -14.755   3.499  0.00  0.00    -0.239 N 
ATOM     10  C   UNL d   1      28.055 -13.807   4.538  0.00  0.00     0.329 C 
ATOM     11  O   UNL d   1      27.408 -12.770   4.583  0.00  0.00    -0.261 OA
ATOM     12  H   UNL d   1      28.740 -15.569   3.660  0.00  0.00     0.192 HD
BRANCH  10  13
ATOM     13  C   UNL d   1      28.924 -14.230   5.728  0.00  0.00     0.315 C 
ATOM     14  N   UNL d   1      28.903 -13.472   6.913  0.00  0.00    -0.318 N 
ATOM     15  H   UNL d   1      28.269 -12.673   6.892  0.00  0.00     0.169 HD
ATOM     16  O   UNL d   1      29.559 -15.246   5.454  0.00  0.00    -0.262 OA
BRANCH  14  17
ATOM     17  C   UNL d   1      29.658 -13.663   8.140  0.00  0.00     0.041 A 
ATOM     18  C   UNL d   1      30.839 -14.450   8.101  0.00  0.00     0.032 A 
ATOM     19  C   UNL d   1      31.621 -14.695   9.261  0.00  0.00     0.026 A 
ATOM     20  C   UNL d   1      31.237 -14.171  10.486  0.00  0.00     0.034 A 
ATOM     21  C   UNL d   1      30.095 -13.402  10.553  0.00  0.00     0.032 A 
ATOM     22 CL   UNL d   1      32.153 -14.441  11.917  0.00  0.00    -0.084 Cl
ATOM     23  C   UNL d   1      29.319 -13.132   9.404  0.00  0.00    -0.034 A 
ATOM     24  C   UNL d   1      28.155 -12.243   9.672  0.00  0.00     0.050 C 
ENDBRANCH  14  17
ENDBRANCH  10  13
ENDBRANCH   8   9
ENDBRANCH   1   7
BRANCH   4  25
ATOM     25  O   UNL d   1      25.154 -14.593  -3.657  0.00  0.00    -0.342 OA
BRANCH  25  26
ATOM     26  C   UNL d   1      25.629 -15.303  -4.805  0.00  0.00     0.278 C 
BRANCH  26  27
ATOM     27  C   UNL d   1      26.924 -14.670  -5.340  0.00  0.00     0.241 C 
ATOM     28  O   UNL d   1      27.631 -15.204  -6.192  0.00  0.00    -0.271 OA
ATOM     29  N   UNL d   1      27.257 -13.435  -4.794  0.00  0.00    -0.359 N 
ATOM     30  H   UNL d   1      26.696 -13.017  -4.062  0.00  0.00     0.162 HD
BRANCH  29  31
ATOM     31  C   UNL d   1      28.492 -12.793  -5.219  0.00  0.00     0.127 C 
BRANCH  31  32
ATOM     32  C   UNL d   1      29.721 -13.165  -4.386  0.00  0.00     0.058 C 
BRANCH  32  33
ATOM     33  C   UNL d   1      29.900 -14.657  -4.196  0.00  0.00    -0.057 A 
ATOM     34  C   UNL d   1      30.487 -15.460  -5.186  0.00  0.00     0.007 A 
ATOM     35  C   UNL d   1      30.530 -16.848  -5.053  0.00  0.00     0.001 A 
ATOM     36  C   UNL d   1      30.034 -17.452  -3.902  0.00  0.00     0.000 A 
ATOM     37  C   UNL d   1      29.469 -16.669  -2.898  0.00  0.00     0.001 A 
ATOM     38  C   UNL d   1      29.389 -15.282  -3.049  0.00  0.00     0.007 A 
ENDBRANCH  32  33
ENDBRANCH  31  32
ENDBRANCH  29  31
ENDBRANCH  26  27
ENDBRANCH  25  26
ENDBRANCH   4  25
TORSDOF 10
ENDMDL
MODEL 8
REMARK VINA RESULT:    -6.926      1.352      2.207
REMARK INTER + INTRA:         -13.947
REMARK INTER:                  -9.909
REMARK INTRA:                  -4.039
REMARK CONF_INDEPENDENT:        2.983
REMARK UNBOUND:                -4.039
REMARK  10 active torsions:
REMARK  status: ('A' for Active; 'I' for Inactive)
REMARK    1  A    between atoms: C_8  and  N_9 
REMARK       I    between atoms: N_9  and  C_10 
REMARK    2  A    between atoms: C_10  and  C_12 
REMARK       I    between atoms: C_12  and  N_14 
REMARK    3  A    between atoms: N_14  and  N_15 
REMARK    4  A    between atoms: C_16  and  C_17 
REMARK    5  A    between atoms: C_20  and  O_21 
REMARK    6  A    between atoms: O_21  and  C_22 
REMARK    7  A    between atoms: C_22  and  C_23 
REMARK       I    between atoms: C_23  and  N_25 
REMARK    8  A    between atoms: N_25  and  C_26 
REMARK    9  A    between atoms: C_26  and  C_27 
REMARK   10  A    between atoms: C_27  and  C_28 
ROOT
ATOM      1  C   UNL d   1      27.039 -15.310   0.112  0.00  0.00    -0.017 A 
ATOM      2  C   UNL d   1      26.937 -14.068  -0.518  0.00  0.00     0.015 A 
ATOM      3  C   UNL d   1      26.188 -13.955  -1.706  0.00  0.00     0.037 A 
ATOM      4  C   UNL d   1      25.580 -15.077  -2.290  0.00  0.00     0.069 A 
ATOM      5  C   UNL d   1      25.682 -16.306  -1.645  0.00  0.00     0.037 A 
ATOM      6  C   UNL d   1      26.411 -16.422  -0.455  0.00  0.00     0.015 A 
ENDROOT
BRANCH   1   7
ATOM      7  C   UNL d   1      27.779 -15.498   1.389  0.00  0.00     0.150 C 
ATOM      8  N   UNL d   1      27.635 -14.624   2.340  0.00  0.00    -0.183 NA
BRANCH   8   9
ATOM      9  N   UNL d   1      28.342 -14.796   3.492  0.00  0.00    -0.239 N 
ATOM     10  C   UNL d   1      28.030 -14.085   4.668  0.00  0.00     0.329 C 
ATOM     11  O   UNL d   1      27.144 -13.263   4.858  0.00  0.00    -0.261 OA
ATOM     12  H   UNL d   1      29.128 -15.451   3.539  0.00  0.00     0.192 HD
BRANCH  10  13
ATOM     13  C   UNL d   1      28.984 -14.473   5.804  0.00  0.00     0.315 C 
ATOM     14  N   UNL d   1      28.829 -13.893   7.076  0.00  0.00    -0.318 N 
ATOM     15  H   UNL d   1      28.046 -13.243   7.150  0.00  0.00     0.169 HD
ATOM     16  O   UNL d   1      29.807 -15.295   5.408  0.00  0.00    -0.262 OA
BRANCH  14  17
ATOM     17  C   UNL d   1      29.625 -14.083   8.276  0.00  0.00     0.041 A 
ATOM     18  C   UNL d   1      30.990 -14.449   8.141  0.00  0.00     0.032 A 
ATOM     19  C   UNL d   1      31.828 -14.667   9.266  0.00  0.00     0.026 A 
ATOM     20  C   UNL d   1      31.321 -14.537  10.551  0.00  0.00     0.034 A 
ATOM     21  C   UNL d   1      29.999 -14.182  10.712  0.00  0.00     0.032 A 
ATOM     22 CL   UNL d   1      32.298 -14.793  11.943  0.00  0.00    -0.084 Cl
ATOM     23  C   UNL d   1      29.159 -13.940   9.602  0.00  0.00    -0.034 A 
ATOM     24  C   UNL d   1      27.783 -13.519   9.982  0.00  0.00     0.050 C 
ENDBRANCH  14  17
ENDBRANCH  10  13
ENDBRANCH   8   9
ENDBRANCH   1   7
BRANCH   4  25
ATOM     25  O   UNL d   1      24.928 -14.860  -3.475  0.00  0.00    -0.342 OA
BRANCH  25  26
ATOM     26  C   UNL d   1      25.067 -13.580  -4.099  0.00  0.00     0.278 C 
BRANCH  26  27
ATOM     27  C   UNL d   1      26.305 -13.549  -5.011  0.00  0.00     0.241 C 
ATOM     28  O   UNL d   1      26.654 -12.550  -5.636  0.00  0.00    -0.271 OA
ATOM     29  N   UNL d   1      27.019 -14.739  -5.091  0.00  0.00    -0.359 N 
ATOM     30  H   UNL d   1      26.706 -15.573  -4.609  0.00  0.00     0.162 HD
BRANCH  29  31
ATOM     31  C   UNL d   1      28.179 -14.801  -5.967  0.00  0.00     0.127 C 
BRANCH  31  32
ATOM     32  C   UNL d   1      29.260 -15.788  -5.521  0.00  0.00     0.058 C 
BRANCH  32  33
ATOM     33  C   UNL d   1      29.474 -15.822  -4.022  0.00  0.00    -0.057 A 
ATOM     34  C   UNL d   1      29.513 -14.646  -3.257  0.00  0.00     0.007 A 
ATOM     35  C   UNL d   1      29.837 -14.682  -1.901  0.00  0.00     0.001 A 
ATOM     36  C   UNL d   1      30.075 -15.902  -1.275  0.00  0.00     0.000 A 
ATOM     37  C   UNL d   1      30.018 -17.082  -2.013  0.00  0.00     0.001 A 
ATOM     38  C   UNL d   1      29.732 -17.042  -3.380  0.00  0.00     0.007 A 
ENDBRANCH  32  33
ENDBRANCH  31  32
ENDBRANCH  29  31
ENDBRANCH  26  27
ENDBRANCH  25  26
ENDBRANCH   4  25
TORSDOF 10
ENDMDL
MODEL 9
REMARK VINA RESULT:    -6.372      4.721     12.917
REMARK INTER + INTRA:         -13.445
REMARK INTER:                  -9.355
REMARK INTRA:                  -4.091
REMARK CONF_INDEPENDENT:        2.983
REMARK UNBOUND:                -4.091
REMARK  10 active torsions:
REMARK  status: ('A' for Active; 'I' for Inactive)
REMARK    1  A    between atoms: C_8  and  N_9 
REMARK       I    between atoms: N_9  and  C_10 
REMARK    2  A    between atoms: C_10  and  C_12 
REMARK       I    between atoms: C_12  and  N_14 
REMARK    3  A    between atoms: N_14  and  N_15 
REMARK    4  A    between atoms: C_16  and  C_17 
REMARK    5  A    between atoms: C_20  and  O_21 
REMARK    6  A    between atoms: O_21  and  C_22 
REMARK    7  A    between atoms: C_22  and  C_23 
REMARK       I    between atoms: C_23  and  N_25 
REMARK    8  A    between atoms: N_25  and  C_26 
REMARK    9  A    between atoms: C_26  and  C_27 
REMARK   10  A    between atoms: C_27  and  C_28 
ROOT
ATOM      1  C   UNL d   1      29.003 -13.353   7.386  0.00  0.00    -0.017 A 
ATOM      2  C   UNL d   1      29.943 -14.075   8.125  0.00  0.00     0.015 A 
ATOM      3  C   UNL d   1      30.008 -13.898   9.522  0.00  0.00     0.037 A 
ATOM      4  C   UNL d   1      29.175 -12.978  10.176  0.00  0.00     0.069 A 
ATOM      5  C   UNL d   1      28.236 -12.273   9.427  0.00  0.00     0.037 A 
ATOM      6  C   UNL d   1      28.155 -12.457   8.041  0.00  0.00     0.015 A 
ENDROOT
BRANCH   1   7
ATOM      7  C   UNL d   1      28.850 -13.517   5.915  0.00  0.00     0.150 C 
ATOM      8  N   UNL d   1      28.636 -14.702   5.427  0.00  0.00    -0.183 NA
BRANCH   8   9
ATOM      9  N   UNL d   1      28.526 -14.838   4.076  0.00  0.00    -0.239 N 
ATOM     10  C   UNL d   1      27.716 -13.980   3.306  0.00  0.00     0.329 C 
ATOM     11  O   UNL d   1      27.030 -13.036   3.672  0.00  0.00    -0.261 OA
ATOM     12  H   UNL d   1      29.032 -15.574   3.575  0.00  0.00     0.192 HD
BRANCH  10  13
ATOM     13  C   UNL d   1      27.779 -14.363   1.823  0.00  0.00     0.315 C 
ATOM     14  N   UNL d   1      26.664 -14.139   0.995  0.00  0.00    -0.318 N 
ATOM     15  H   UNL d   1      25.870 -13.704   1.466  0.00  0.00     0.169 HD
ATOM     16  O   UNL d   1      28.877 -14.845   1.552  0.00  0.00    -0.262 OA
BRANCH  14  17
ATOM     17  C   UNL d   1      26.487 -14.449  -0.413  0.00  0.00     0.041 A 
ATOM     18  C   UNL d   1      26.640 -13.408  -1.367  0.00  0.00     0.032 A 
ATOM     19  C   UNL d   1      26.469 -13.629  -2.759  0.00  0.00     0.026 A 
ATOM     20  C   UNL d   1      26.129 -14.888  -3.230  0.00  0.00     0.034 A 
ATOM     21  C   UNL d   1      25.975 -15.918  -2.327  0.00  0.00     0.032 A 
ATOM     22 CL   UNL d   1      25.910 -15.203  -4.907  0.00  0.00    -0.084 Cl
ATOM     23  C   UNL d   1      26.163 -15.719  -0.941  0.00  0.00    -0.034 A 
ATOM     24  C   UNL d   1      26.002 -16.961  -0.136  0.00  0.00     0.050 C 
ENDBRANCH  14  17
ENDBRANCH  10  13
ENDBRANCH   8   9
ENDBRANCH   1   7
BRANCH   4  25
ATOM     25  O   UNL d   1      29.366 -12.847  11.525  0.00  0.00    -0.342 OA
BRANCH  25  26
ATOM     26  C   UNL d   1      30.709 -12.811  12.018  0.00  0.00     0.278 C 
BRANCH  26  27
ATOM     27  C   UNL d   1      31.276 -11.383  11.955  0.00  0.00     0.241 C 
ATOM     28  O   UNL d   1      32.453 -11.116  12.188  0.00  0.00    -0.271 OA
ATOM     29  N   UNL d   1      30.363 -10.391  11.613  0.00  0.00    -0.359 N 
ATOM     30  H   UNL d   1      29.385 -10.607  11.462  0.00  0.00     0.162 HD
BRANCH  29  31
ATOM     31  C   UNL d   1      30.815  -9.009  11.573  0.00  0.00     0.127 C 
BRANCH  31  32
ATOM     32  C   UNL d   1      30.407  -8.243  10.313  0.00  0.00     0.058 C 
BRANCH  32  33
ATOM     33  C   UNL d   1      30.600  -9.029   9.033  0.00  0.00    -0.057 A 
ATOM     34  C   UNL d   1      29.649  -9.001   8.000  0.00  0.00     0.007 A 
ATOM     35  C   UNL d   1      29.778  -9.827   6.884  0.00  0.00     0.001 A 
ATOM     36  C   UNL d   1      30.887 -10.657   6.755  0.00  0.00     0.000 A 
ATOM     37  C   UNL d   1      31.853 -10.681   7.759  0.00  0.00     0.001 A 
ATOM     38  C   UNL d   1      31.705  -9.883   8.897  0.00  0.00     0.007 A 
ENDBRANCH  32  33
ENDBRANCH  31  32
ENDBRANCH  29  31
ENDBRANCH  26  27
ENDBRANCH  25  26
ENDBRANCH   4  25
TORSDOF 10
ENDMDL
