MODEL 1
REMARK VINA RESULT:    -9.648      0.000      0.000
REMARK INTER + INTRA:         -17.748
REMARK INTER:                 -14.421
REMARK INTRA:                  -3.328
REMARK CONF_INDEPENDENT:        4.773
REMARK UNBOUND:                -3.328
REMARK  16 active torsions:
REMARK  status: ('A' for Active; 'I' for Inactive)
REMARK    1  A    between atoms: C_2  and  C_3 
REMARK       I    between atoms: C_2  and  N_17 
REMARK    2  A    between atoms: C_3  and  C_4 
REMARK    3  A    between atoms: C_4  and  C_5 
REMARK    4  A    between atoms: C_5  and  O_7 
REMARK    5  A    between atoms: O_7  and  C_8 
REMARK    6  A    between atoms: C_8  and  C_9 
REMARK    7  A    between atoms: C_9  and  C_10 
REMARK    8  A    between atoms: C_10  and  C_11 
REMARK    9  A    between atoms: N_17  and  C_18 
REMARK   10  A    between atoms: C_18  and  N_20 
REMARK   11  A    between atoms: N_20  and  C_21 
REMARK   12  A    between atoms: C_26  and  O_27 
REMARK   13  A    between atoms: O_27  and  C_28 
REMARK   14  A    between atoms: C_28  and  C_29 
REMARK   15  A    between atoms: C_29  and  C_30 
REMARK   16  A    between atoms: C_30  and  C_31 
ROOT
ATOM      1  C   UNL d   1      25.673 -14.557  -2.787  0.00  0.00     0.178 C 
ATOM      2  S   UNL d   1      24.030 -14.345  -3.106  0.00  0.00    -0.040 SA
ENDROOT
BRANCH   1   3
ATOM      3  N   UNL d   1      26.628 -13.503  -2.669  0.00  0.00    -0.304 N 
ATOM      4  C   UNL d   1      27.139 -12.547  -3.573  0.00  0.00     0.224 C 
ATOM      5  O   UNL d   1      27.890 -11.667  -3.148  0.00  0.00    -0.273 OA
ATOM      6  H   UNL d   1      27.073 -13.394  -1.764  0.00  0.00     0.171 HD
BRANCH   4   7
ATOM      7  C   UNL d   1      26.877 -12.741  -5.072  0.00  0.00     0.113 C 
BRANCH   7   8
ATOM      8  C   UNL d   1      27.819 -13.684  -5.829  0.00  0.00     0.120 C 
BRANCH   8   9
ATOM      9  C   UNL d   1      27.372 -15.125  -5.549  0.00  0.00     0.259 C 
ATOM     10  O   UNL d   1      26.186 -15.497  -5.562  0.00  0.00    -0.265 OA
BRANCH   9  11
ATOM     11  O   UNL d   1      28.398 -15.950  -5.215  0.00  0.00    -0.321 OA
BRANCH  11  12
ATOM     12  C   UNL d   1      29.545 -15.256  -4.672  0.00  0.00     0.179 C 
BRANCH  12  13
ATOM     13  C   UNL d   1      30.816 -15.852  -5.261  0.00  0.00     0.031 C 
BRANCH  13  14
ATOM     14  C   UNL d   1      30.559 -16.512  -6.620  0.00  0.00     0.041 C 
BRANCH  14  15
ATOM     15  C   UNL d   1      30.684 -18.013  -6.527  0.00  0.00    -0.058 A 
ATOM     16  C   UNL d   1      30.407 -18.684  -5.328  0.00  0.00     0.007 A 
ATOM     17  C   UNL d   1      30.672 -20.049  -5.207  0.00  0.00     0.001 A 
ATOM     18  C   UNL d   1      31.125 -20.772  -6.309  0.00  0.00     0.000 A 
ATOM     19  C   UNL d   1      31.360 -20.122  -7.519  0.00  0.00     0.001 A 
ATOM     20  C   UNL d   1      31.150 -18.748  -7.625  0.00  0.00     0.007 A 
ENDBRANCH  14  15
ENDBRANCH  13  14
ENDBRANCH  12  13
ENDBRANCH  11  12
ENDBRANCH   9  11
ENDBRANCH   8   9
ENDBRANCH   7   8
ENDBRANCH   4   7
ENDBRANCH   1   3
BRANCH   1  21
ATOM     21  N   UNL d   1      26.297 -15.828  -2.826  0.00  0.00    -0.331 N 
ATOM     22  H   UNL d   1      26.944 -16.045  -3.575  0.00  0.00     0.168 HD
BRANCH  21  23
ATOM     23  C   UNL d   1      26.375 -16.671  -1.667  0.00  0.00     0.068 A 
ATOM     24  C   UNL d   1      27.620 -16.764  -1.013  0.00  0.00     0.032 A 
ATOM     25  C   UNL d   1      27.757 -17.502   0.169  0.00  0.00     0.002 A 
ATOM     26  C   UNL d   1      26.646 -18.115   0.740  0.00  0.00     0.003 A 
ATOM     27  C   UNL d   1      25.414 -18.052   0.088  0.00  0.00     0.039 A 
ATOM     28  C   UNL d   1      25.261 -17.369  -1.131  0.00  0.00     0.095 A 
BRANCH  28  29
ATOM     29  O   UNL d   1      23.993 -17.527  -1.661  0.00  0.00    -0.349 OA
BRANCH  29  30
ATOM     30  C   UNL d   1      22.900 -17.158  -0.841  0.00  0.00     0.176 C 
BRANCH  30  31
ATOM     31  C   UNL d   1      22.255 -18.288  -0.079  0.00  0.00     0.031 C 
BRANCH  31  32
ATOM     32  C   UNL d   1      21.027 -18.797  -0.838  0.00  0.00     0.041 C 
BRANCH  32  33
ATOM     33  C   UNL d   1      20.109 -19.547   0.060  0.00  0.00    -0.058 A 
ATOM     34  C   UNL d   1      19.040 -20.180  -0.520  0.00  0.00     0.007 A 
ATOM     35  C   UNL d   1      18.113 -20.814   0.288  0.00  0.00     0.001 A 
ATOM     36  C   UNL d   1      18.263 -20.855   1.679  0.00  0.00     0.000 A 
ATOM     37  C   UNL d   1      19.357 -20.262   2.273  0.00  0.00     0.001 A 
ATOM     38  C   UNL d   1      20.283 -19.668   1.438  0.00  0.00     0.007 A 
ENDBRANCH  32  33
ENDBRANCH  31  32
ENDBRANCH  30  31
ENDBRANCH  29  30
ENDBRANCH  28  29
ENDBRANCH  21  23
ENDBRANCH   1  21
TORSDOF 16
ENDMDL
MODEL 2
REMARK VINA RESULT:    -8.996      2.486      8.905
REMARK INTER + INTRA:         -16.791
REMARK INTER:                 -13.769
REMARK INTRA:                  -3.021
REMARK CONF_INDEPENDENT:        4.773
REMARK UNBOUND:                -3.021
REMARK  16 active torsions:
REMARK  status: ('A' for Active; 'I' for Inactive)
REMARK    1  A    between atoms: C_2  and  C_3 
REMARK       I    between atoms: C_2  and  N_17 
REMARK    2  A    between atoms: C_3  and  C_4 
REMARK    3  A    between atoms: C_4  and  C_5 
REMARK    4  A    between atoms: C_5  and  O_7 
REMARK    5  A    between atoms: O_7  and  C_8 
REMARK    6  A    between atoms: C_8  and  C_9 
REMARK    7  A    between atoms: C_9  and  C_10 
REMARK    8  A    between atoms: C_10  and  C_11 
REMARK    9  A    between atoms: N_17  and  C_18 
REMARK   10  A    between atoms: C_18  and  N_20 
REMARK   11  A    between atoms: N_20  and  C_21 
REMARK   12  A    between atoms: C_26  and  O_27 
REMARK   13  A    between atoms: O_27  and  C_28 
REMARK   14  A    between atoms: C_28  and  C_29 
REMARK   15  A    between atoms: C_29  and  C_30 
REMARK   16  A    between atoms: C_30  and  C_31 
ROOT
ATOM      1  C   UNL d   1      26.345 -11.863  -3.894  0.00  0.00     0.178 C 
ATOM      2  S   UNL d   1      26.386 -10.384  -3.085  0.00  0.00    -0.040 SA
ENDROOT
BRANCH   1   3
ATOM      3  N   UNL d   1      25.161 -12.597  -4.204  0.00  0.00    -0.304 N 
ATOM      4  C   UNL d   1      24.538 -13.725  -3.630  0.00  0.00     0.224 C 
ATOM      5  O   UNL d   1      23.434 -14.076  -4.053  0.00  0.00    -0.273 OA
ATOM      6  H   UNL d   1      24.634 -12.285  -5.012  0.00  0.00     0.171 HD
BRANCH   4   7
ATOM      7  C   UNL d   1      25.331 -14.570  -2.625  0.00  0.00     0.113 C 
BRANCH   7   8
ATOM      8  C   UNL d   1      25.189 -16.093  -2.728  0.00  0.00     0.120 C 
BRANCH   8   9
ATOM      9  C   UNL d   1      24.306 -16.566  -1.565  0.00  0.00     0.259 C 
ATOM     10  O   UNL d   1      23.281 -15.972  -1.187  0.00  0.00    -0.265 OA
BRANCH   9  11
ATOM     11  O   UNL d   1      24.791 -17.668  -0.938  0.00  0.00    -0.321 OA
BRANCH  11  12
ATOM     12  C   UNL d   1      23.882 -18.227   0.038  0.00  0.00     0.179 C 
BRANCH  12  13
ATOM     13  C   UNL d   1      22.918 -19.175  -0.660  0.00  0.00     0.031 C 
BRANCH  13  14
ATOM     14  C   UNL d   1      21.549 -18.526  -0.893  0.00  0.00     0.041 C 
BRANCH  14  15
ATOM     15  C   UNL d   1      20.483 -19.192  -0.059  0.00  0.00    -0.058 A 
ATOM     16  C   UNL d   1      20.633 -19.322   1.329  0.00  0.00     0.007 A 
ATOM     17  C   UNL d   1      19.718 -20.071   2.069  0.00  0.00     0.001 A 
ATOM     18  C   UNL d   1      18.597 -20.617   1.446  0.00  0.00     0.000 A 
ATOM     19  C   UNL d   1      18.415 -20.454   0.074  0.00  0.00     0.001 A 
ATOM     20  C   UNL d   1      19.358 -19.754  -0.676  0.00  0.00     0.007 A 
ENDBRANCH  14  15
ENDBRANCH  13  14
ENDBRANCH  12  13
ENDBRANCH  11  12
ENDBRANCH   9  11
ENDBRANCH   8   9
ENDBRANCH   7   8
ENDBRANCH   4   7
ENDBRANCH   1   3
BRANCH   1  21
ATOM     21  N   UNL d   1      27.514 -12.623  -4.149  0.00  0.00    -0.331 N 
ATOM     22  H   UNL d   1      27.851 -13.271  -3.447  0.00  0.00     0.168 HD
BRANCH  21  23
ATOM     23  C   UNL d   1      28.016 -12.823  -5.478  0.00  0.00     0.068 A 
ATOM     24  C   UNL d   1      28.302 -11.677  -6.245  0.00  0.00     0.032 A 
ATOM     25  C   UNL d   1      28.871 -11.788  -7.520  0.00  0.00     0.002 A 
ATOM     26  C   UNL d   1      29.206 -13.040  -8.026  0.00  0.00     0.003 A 
ATOM     27  C   UNL d   1      28.903 -14.185  -7.286  0.00  0.00     0.039 A 
ATOM     28  C   UNL d   1      28.277 -14.104  -6.030  0.00  0.00     0.095 A 
BRANCH  28  29
ATOM     29  O   UNL d   1      27.965 -15.354  -5.524  0.00  0.00    -0.349 OA
BRANCH  29  30
ATOM     30  C   UNL d   1      28.906 -15.951  -4.651  0.00  0.00     0.176 C 
BRANCH  30  31
ATOM     31  C   UNL d   1      29.642 -14.994  -3.747  0.00  0.00     0.031 C 
BRANCH  31  32
ATOM     32  C   UNL d   1      30.139 -15.731  -2.501  0.00  0.00     0.041 C 
BRANCH  32  33
ATOM     33  C   UNL d   1      29.092 -15.776  -1.446  0.00  0.00    -0.058 A 
ATOM     34  C   UNL d   1      28.530 -16.995  -1.169  0.00  0.00     0.007 A 
ATOM     35  C   UNL d   1      27.492 -17.068  -0.258  0.00  0.00     0.001 A 
ATOM     36  C   UNL d   1      27.029 -15.930   0.414  0.00  0.00     0.000 A 
ATOM     37  C   UNL d   1      27.614 -14.704   0.181  0.00  0.00     0.001 A 
ATOM     38  C   UNL d   1      28.672 -14.671  -0.707  0.00  0.00     0.007 A 
ENDBRANCH  32  33
ENDBRANCH  31  32
ENDBRANCH  30  31
ENDBRANCH  29  30
ENDBRANCH  28  29
ENDBRANCH  21  23
ENDBRANCH   1  21
TORSDOF 16
ENDMDL
MODEL 3
REMARK VINA RESULT:    -8.767      2.317      4.358
REMARK INTER + INTRA:         -16.763
REMARK INTER:                 -13.539
REMARK INTRA:                  -3.223
REMARK CONF_INDEPENDENT:        4.773
REMARK UNBOUND:                -3.223
REMARK  16 active torsions:
REMARK  status: ('A' for Active; 'I' for Inactive)
REMARK    1  A    between atoms: C_2  and  C_3 
REMARK       I    between atoms: C_2  and  N_17 
REMARK    2  A    between atoms: C_3  and  C_4 
REMARK    3  A    between atoms: C_4  and  C_5 
REMARK    4  A    between atoms: C_5  and  O_7 
REMARK    5  A    between atoms: O_7  and  C_8 
REMARK    6  A    between atoms: C_8  and  C_9 
REMARK    7  A    between atoms: C_9  and  C_10 
REMARK    8  A    between atoms: C_10  and  C_11 
REMARK    9  A    between atoms: N_17  and  C_18 
REMARK   10  A    between atoms: C_18  and  N_20 
REMARK   11  A    between atoms: N_20  and  C_21 
REMARK   12  A    between atoms: C_26  and  O_27 
REMARK   13  A    between atoms: O_27  and  C_28 
REMARK   14  A    between atoms: C_28  and  C_29 
REMARK   15  A    between atoms: C_29  and  C_30 
REMARK   16  A    between atoms: C_30  and  C_31 
ROOT
ATOM      1  C   UNL d   1      25.602 -14.451  -2.729  0.00  0.00     0.178 C 
ATOM      2  S   UNL d   1      24.433 -13.720  -3.702  0.00  0.00    -0.040 SA
ENDROOT
BRANCH   1   3
ATOM      3  N   UNL d   1      26.505 -13.755  -1.870  0.00  0.00    -0.304 N 
ATOM      4  C   UNL d   1      27.782 -13.186  -2.058  0.00  0.00     0.224 C 
ATOM      5  O   UNL d   1      28.285 -12.534  -1.140  0.00  0.00    -0.273 OA
ATOM      6  H   UNL d   1      26.214 -13.640  -0.905  0.00  0.00     0.171 HD
BRANCH   4   7
ATOM      7  C   UNL d   1      28.566 -13.543  -3.327  0.00  0.00     0.113 C 
BRANCH   7   8
ATOM      8  C   UNL d   1      28.710 -15.031  -3.664  0.00  0.00     0.120 C 
BRANCH   8   9
ATOM      9  C   UNL d   1      28.215 -15.242  -5.101  0.00  0.00     0.259 C 
ATOM     10  O   UNL d   1      27.016 -15.219  -5.431  0.00  0.00    -0.265 OA
BRANCH   9  11
ATOM     11  O   UNL d   1      29.213 -15.526  -5.976  0.00  0.00    -0.321 OA
BRANCH  11  12
ATOM     12  C   UNL d   1      29.198 -14.698  -7.161  0.00  0.00     0.179 C 
BRANCH  12  13
ATOM     13  C   UNL d   1      29.369 -13.240  -6.757  0.00  0.00     0.031 C 
BRANCH  13  14
ATOM     14  C   UNL d   1      28.438 -12.316  -7.549  0.00  0.00     0.041 C 
BRANCH  14  15
ATOM     15  C   UNL d   1      27.493 -11.581  -6.631  0.00  0.00    -0.058 A 
ATOM     16  C   UNL d   1      26.292 -11.044  -7.115  0.00  0.00     0.007 A 
ATOM     17  C   UNL d   1      25.501 -10.238  -6.297  0.00  0.00     0.001 A 
ATOM     18  C   UNL d   1      25.852 -10.040  -4.963  0.00  0.00     0.000 A 
ATOM     19  C   UNL d   1      27.021 -10.607  -4.459  0.00  0.00     0.001 A 
ATOM     20  C   UNL d   1      27.842 -11.366  -5.292  0.00  0.00     0.007 A 
ENDBRANCH  14  15
ENDBRANCH  13  14
ENDBRANCH  12  13
ENDBRANCH  11  12
ENDBRANCH   9  11
ENDBRANCH   8   9
ENDBRANCH   7   8
ENDBRANCH   4   7
ENDBRANCH   1   3
BRANCH   1  21
ATOM     21  N   UNL d   1      25.939 -15.821  -2.845  0.00  0.00    -0.331 N 
ATOM     22  H   UNL d   1      26.388 -16.156  -3.690  0.00  0.00     0.168 HD
BRANCH  21  23
ATOM     23  C   UNL d   1      26.047 -16.678  -1.699  0.00  0.00     0.068 A 
ATOM     24  C   UNL d   1      27.284 -16.712  -1.026  0.00  0.00     0.032 A 
ATOM     25  C   UNL d   1      27.444 -17.459   0.147  0.00  0.00     0.002 A 
ATOM     26  C   UNL d   1      26.360 -18.143   0.690  0.00  0.00     0.003 A 
ATOM     27  C   UNL d   1      25.136 -18.138   0.019  0.00  0.00     0.039 A 
ATOM     28  C   UNL d   1      24.965 -17.445  -1.192  0.00  0.00     0.095 A 
BRANCH  28  29
ATOM     29  O   UNL d   1      23.716 -17.665  -1.745  0.00  0.00    -0.349 OA
BRANCH  29  30
ATOM     30  C   UNL d   1      22.999 -18.798  -1.291  0.00  0.00     0.176 C 
BRANCH  30  31
ATOM     31  C   UNL d   1      21.895 -18.509  -0.306  0.00  0.00     0.031 C 
BRANCH  31  32
ATOM     32  C   UNL d   1      20.551 -18.967  -0.879  0.00  0.00     0.041 C 
BRANCH  32  33
ATOM     33  C   UNL d   1      19.749 -19.696   0.140  0.00  0.00    -0.058 A 
ATOM     34  C   UNL d   1      20.127 -19.564   1.451  0.00  0.00     0.007 A 
ATOM     35  C   UNL d   1      19.463 -20.294   2.421  0.00  0.00     0.001 A 
ATOM     36  C   UNL d   1      18.392 -21.136   2.096  0.00  0.00     0.000 A 
ATOM     37  C   UNL d   1      17.972 -21.245   0.789  0.00  0.00     0.001 A 
ATOM     38  C   UNL d   1      18.631 -20.476  -0.151  0.00  0.00     0.007 A 
ENDBRANCH  32  33
ENDBRANCH  31  32
ENDBRANCH  30  31
ENDBRANCH  29  30
ENDBRANCH  28  29
ENDBRANCH  21  23
ENDBRANCH   1  21
TORSDOF 16
ENDMDL
MODEL 4
REMARK VINA RESULT:    -8.721      2.255      2.843
REMARK INTER + INTRA:         -17.422
REMARK INTER:                 -13.494
REMARK INTRA:                  -3.928
REMARK CONF_INDEPENDENT:        4.773
REMARK UNBOUND:                -3.928
REMARK  16 active torsions:
REMARK  status: ('A' for Active; 'I' for Inactive)
REMARK    1  A    between atoms: C_2  and  C_3 
REMARK       I    between atoms: C_2  and  N_17 
REMARK    2  A    between atoms: C_3  and  C_4 
REMARK    3  A    between atoms: C_4  and  C_5 
REMARK    4  A    between atoms: C_5  and  O_7 
REMARK    5  A    between atoms: O_7  and  C_8 
REMARK    6  A    between atoms: C_8  and  C_9 
REMARK    7  A    between atoms: C_9  and  C_10 
REMARK    8  A    between atoms: C_10  and  C_11 
REMARK    9  A    between atoms: N_17  and  C_18 
REMARK   10  A    between atoms: C_18  and  N_20 
REMARK   11  A    between atoms: N_20  and  C_21 
REMARK   12  A    between atoms: C_26  and  O_27 
REMARK   13  A    between atoms: O_27  and  C_28 
REMARK   14  A    between atoms: C_28  and  C_29 
REMARK   15  A    between atoms: C_29  and  C_30 
REMARK   16  A    between atoms: C_30  and  C_31 
ROOT
ATOM      1  C   UNL d   1      26.801 -13.570  -0.511  0.00  0.00     0.178 C 
ATOM      2  S   UNL d   1      26.569 -13.009   1.062  0.00  0.00    -0.040 SA
ENDROOT
BRANCH   1   3
ATOM      3  N   UNL d   1      27.672 -12.976  -1.474  0.00  0.00    -0.304 N 
ATOM      4  C   UNL d   1      27.460 -12.340  -2.715  0.00  0.00     0.224 C 
ATOM      5  O   UNL d   1      28.417 -11.812  -3.285  0.00  0.00    -0.273 OA
ATOM      6  H   UNL d   1      28.665 -13.015  -1.270  0.00  0.00     0.171 HD
BRANCH   4   7
ATOM      7  C   UNL d   1      26.087 -12.478  -3.386  0.00  0.00     0.113 C 
BRANCH   7   8
ATOM      8  C   UNL d   1      26.063 -13.019  -4.820  0.00  0.00     0.120 C 
BRANCH   8   9
ATOM      9  C   UNL d   1      25.905 -14.544  -4.749  0.00  0.00     0.259 C 
ATOM     10  O   UNL d   1      25.164 -15.126  -3.938  0.00  0.00    -0.265 OA
BRANCH   9  11
ATOM     11  O   UNL d   1      26.709 -15.207  -5.618  0.00  0.00    -0.321 OA
BRANCH  11  12
ATOM     12  C   UNL d   1      28.046 -14.661  -5.702  0.00  0.00     0.179 C 
BRANCH  12  13
ATOM     13  C   UNL d   1      28.975 -15.469  -4.808  0.00  0.00     0.031 C 
BRANCH  13  14
ATOM     14  C   UNL d   1      28.413 -15.620  -3.390  0.00  0.00     0.041 C 
BRANCH  14  15
ATOM     15  C   UNL d   1      29.475 -16.104  -2.434  0.00  0.00    -0.058 A 
ATOM     16  C   UNL d   1      30.066 -15.229  -1.513  0.00  0.00     0.007 A 
ATOM     17  C   UNL d   1      31.150 -15.645  -0.741  0.00  0.00     0.001 A 
ATOM     18  C   UNL d   1      31.592 -16.966  -0.813  0.00  0.00     0.000 A 
ATOM     19  C   UNL d   1      30.981 -17.857  -1.692  0.00  0.00     0.001 A 
ATOM     20  C   UNL d   1      29.934 -17.426  -2.507  0.00  0.00     0.007 A 
ENDBRANCH  14  15
ENDBRANCH  13  14
ENDBRANCH  12  13
ENDBRANCH  11  12
ENDBRANCH   9  11
ENDBRANCH   8   9
ENDBRANCH   7   8
ENDBRANCH   4   7
ENDBRANCH   1   3
BRANCH   1  21
ATOM     21  N   UNL d   1      25.977 -14.565  -1.092  0.00  0.00    -0.331 N 
ATOM     22  H   UNL d   1      25.502 -14.373  -1.966  0.00  0.00     0.168 HD
BRANCH  21  23
ATOM     23  C   UNL d   1      26.089 -15.950  -0.733  0.00  0.00     0.068 A 
ATOM     24  C   UNL d   1      27.280 -16.365  -0.105  0.00  0.00     0.032 A 
ATOM     25  C   UNL d   1      27.433 -17.681   0.348  0.00  0.00     0.002 A 
ATOM     26  C   UNL d   1      26.383 -18.586   0.225  0.00  0.00     0.003 A 
ATOM     27  C   UNL d   1      25.208 -18.194  -0.419  0.00  0.00     0.039 A 
ATOM     28  C   UNL d   1      25.051 -16.897  -0.937  0.00  0.00     0.095 A 
BRANCH  28  29
ATOM     29  O   UNL d   1      23.864 -16.755  -1.633  0.00  0.00    -0.349 OA
BRANCH  29  30
ATOM     30  C   UNL d   1      22.683 -16.592  -0.870  0.00  0.00     0.176 C 
BRANCH  30  31
ATOM     31  C   UNL d   1      22.256 -17.802  -0.079  0.00  0.00     0.031 C 
BRANCH  31  32
ATOM     32  C   UNL d   1      21.209 -18.596  -0.862  0.00  0.00     0.041 C 
BRANCH  32  33
ATOM     33  C   UNL d   1      20.333 -19.381   0.047  0.00  0.00    -0.058 A 
ATOM     34  C   UNL d   1      19.295 -20.073  -0.521  0.00  0.00     0.007 A 
ATOM     35  C   UNL d   1      18.405 -20.745   0.298  0.00  0.00     0.001 A 
ATOM     36  C   UNL d   1      18.562 -20.764   1.689  0.00  0.00     0.000 A 
ATOM     37  C   UNL d   1      19.627 -20.111   2.272  0.00  0.00     0.001 A 
ATOM     38  C   UNL d   1      20.518 -19.480   1.426  0.00  0.00     0.007 A 
ENDBRANCH  32  33
ENDBRANCH  31  32
ENDBRANCH  30  31
ENDBRANCH  29  30
ENDBRANCH  28  29
ENDBRANCH  21  23
ENDBRANCH   1  21
TORSDOF 16
ENDMDL
MODEL 5
REMARK VINA RESULT:    -8.535      3.229      8.956
REMARK INTER + INTRA:         -16.409
REMARK INTER:                 -13.308
REMARK INTRA:                  -3.101
REMARK CONF_INDEPENDENT:        4.773
REMARK UNBOUND:                -3.101
REMARK  16 active torsions:
REMARK  status: ('A' for Active; 'I' for Inactive)
REMARK    1  A    between atoms: C_2  and  C_3 
REMARK       I    between atoms: C_2  and  N_17 
REMARK    2  A    between atoms: C_3  and  C_4 
REMARK    3  A    between atoms: C_4  and  C_5 
REMARK    4  A    between atoms: C_5  and  O_7 
REMARK    5  A    between atoms: O_7  and  C_8 
REMARK    6  A    between atoms: C_8  and  C_9 
REMARK    7  A    between atoms: C_9  and  C_10 
REMARK    8  A    between atoms: C_10  and  C_11 
REMARK    9  A    between atoms: N_17  and  C_18 
REMARK   10  A    between atoms: C_18  and  N_20 
REMARK   11  A    between atoms: N_20  and  C_21 
REMARK   12  A    between atoms: C_26  and  O_27 
REMARK   13  A    between atoms: O_27  and  C_28 
REMARK   14  A    between atoms: C_28  and  C_29 
REMARK   15  A    between atoms: C_29  and  C_30 
REMARK   16  A    between atoms: C_30  and  C_31 
ROOT
ATOM      1  C   UNL d   1      27.899 -15.631  -3.529  0.00  0.00     0.178 C 
ATOM      2  S   UNL d   1      29.298 -15.140  -4.334  0.00  0.00    -0.040 SA
ENDROOT
BRANCH   1   3
ATOM      3  N   UNL d   1      26.580 -15.173  -3.825  0.00  0.00    -0.304 N 
ATOM      4  C   UNL d   1      25.431 -14.943  -3.040  0.00  0.00     0.224 C 
ATOM      5  O   UNL d   1      24.443 -14.427  -3.566  0.00  0.00    -0.273 OA
ATOM      6  H   UNL d   1      26.378 -14.977  -4.800  0.00  0.00     0.171 HD
BRANCH   4   7
ATOM      7  C   UNL d   1      25.395 -15.499  -1.611  0.00  0.00     0.113 C 
BRANCH   7   8
ATOM      8  C   UNL d   1      24.423 -16.651  -1.334  0.00  0.00     0.120 C 
BRANCH   8   9
ATOM      9  C   UNL d   1      25.160 -17.702  -0.492  0.00  0.00     0.259 C 
ATOM     10  O   UNL d   1      26.393 -17.860  -0.506  0.00  0.00    -0.265 OA
BRANCH   9  11
ATOM     11  O   UNL d   1      24.324 -18.496   0.225  0.00  0.00    -0.321 OA
BRANCH  11  12
ATOM     12  C   UNL d   1      22.933 -18.116   0.123  0.00  0.00     0.179 C 
BRANCH  12  13
ATOM     13  C   UNL d   1      22.255 -18.976  -0.934  0.00  0.00     0.031 C 
BRANCH  13  14
ATOM     14  C   UNL d   1      20.772 -18.622  -1.091  0.00  0.00     0.041 C 
BRANCH  14  15
ATOM     15  C   UNL d   1      19.927 -19.369  -0.089  0.00  0.00    -0.058 A 
ATOM     16  C   UNL d   1      20.309 -19.447   1.257  0.00  0.00     0.007 A 
ATOM     17  C   UNL d   1      19.606 -20.263   2.143  0.00  0.00     0.001 A 
ATOM     18  C   UNL d   1      18.460 -20.933   1.716  0.00  0.00     0.000 A 
ATOM     19  C   UNL d   1      18.045 -20.826   0.390  0.00  0.00     0.001 A 
ATOM     20  C   UNL d   1      18.781 -20.055  -0.511  0.00  0.00     0.007 A 
ENDBRANCH  14  15
ENDBRANCH  13  14
ENDBRANCH  12  13
ENDBRANCH  11  12
ENDBRANCH   9  11
ENDBRANCH   8   9
ENDBRANCH   7   8
ENDBRANCH   4   7
ENDBRANCH   1   3
BRANCH   1  21
ATOM     21  N   UNL d   1      27.936 -16.384  -2.330  0.00  0.00    -0.331 N 
ATOM     22  H   UNL d   1      27.482 -17.289  -2.294  0.00  0.00     0.168 HD
BRANCH  21  23
ATOM     23  C   UNL d   1      28.905 -16.129  -1.302  0.00  0.00     0.068 A 
ATOM     24  C   UNL d   1      29.724 -17.202  -0.900  0.00  0.00     0.032 A 
ATOM     25  C   UNL d   1      30.746 -17.013   0.039  0.00  0.00     0.002 A 
ATOM     26  C   UNL d   1      30.994 -15.744   0.552  0.00  0.00     0.003 A 
ATOM     27  C   UNL d   1      30.172 -14.678   0.181  0.00  0.00     0.039 A 
ATOM     28  C   UNL d   1      29.102 -14.853  -0.713  0.00  0.00     0.095 A 
BRANCH  28  29
ATOM     29  O   UNL d   1      28.349 -13.700  -0.854  0.00  0.00    -0.349 OA
BRANCH  29  30
ATOM     30  C   UNL d   1      27.954 -13.038   0.333  0.00  0.00     0.176 C 
BRANCH  30  31
ATOM     31  C   UNL d   1      26.962 -13.786   1.188  0.00  0.00     0.031 C 
BRANCH  31  32
ATOM     32  C   UNL d   1      26.842 -13.115   2.558  0.00  0.00     0.041 C 
BRANCH  32  33
ATOM     33  C   UNL d   1      27.861 -13.638   3.507  0.00  0.00    -0.058 A 
ATOM     34  C   UNL d   1      27.419 -14.440   4.526  0.00  0.00     0.007 A 
ATOM     35  C   UNL d   1      28.320 -14.875   5.482  0.00  0.00     0.001 A 
ATOM     36  C   UNL d   1      29.679 -14.544   5.409  0.00  0.00     0.000 A 
ATOM     37  C   UNL d   1      30.147 -13.776   4.364  0.00  0.00     0.001 A 
ATOM     38  C   UNL d   1      29.229 -13.388   3.407  0.00  0.00     0.007 A 
ENDBRANCH  32  33
ENDBRANCH  31  32
ENDBRANCH  30  31
ENDBRANCH  29  30
ENDBRANCH  28  29
ENDBRANCH  21  23
ENDBRANCH   1  21
TORSDOF 16
ENDMDL
MODEL 6
REMARK VINA RESULT:    -8.489      1.854      9.577
REMARK INTER + INTRA:         -17.103
REMARK INTER:                 -13.262
REMARK INTRA:                  -3.842
REMARK CONF_INDEPENDENT:        4.773
REMARK UNBOUND:                -3.842
REMARK  16 active torsions:
REMARK  status: ('A' for Active; 'I' for Inactive)
REMARK    1  A    between atoms: C_2  and  C_3 
REMARK       I    between atoms: C_2  and  N_17 
REMARK    2  A    between atoms: C_3  and  C_4 
REMARK    3  A    between atoms: C_4  and  C_5 
REMARK    4  A    between atoms: C_5  and  O_7 
REMARK    5  A    between atoms: O_7  and  C_8 
REMARK    6  A    between atoms: C_8  and  C_9 
REMARK    7  A    between atoms: C_9  and  C_10 
REMARK    8  A    between atoms: C_10  and  C_11 
REMARK    9  A    between atoms: N_17  and  C_18 
REMARK   10  A    between atoms: C_18  and  N_20 
REMARK   11  A    between atoms: N_20  and  C_21 
REMARK   12  A    between atoms: C_26  and  O_27 
REMARK   13  A    between atoms: O_27  and  C_28 
REMARK   14  A    between atoms: C_28  and  C_29 
REMARK   15  A    between atoms: C_29  and  C_30 
REMARK   16  A    between atoms: C_30  and  C_31 
ROOT
ATOM      1  C   UNL d   1      28.072 -14.782  -2.988  0.00  0.00     0.178 C 
ATOM      2  S   UNL d   1      28.590 -13.616  -1.885  0.00  0.00    -0.040 SA
ENDROOT
BRANCH   1   3
ATOM      3  N   UNL d   1      26.910 -14.675  -3.809  0.00  0.00    -0.304 N 
ATOM      4  C   UNL d   1      25.530 -14.569  -3.533  0.00  0.00     0.224 C 
ATOM      5  O   UNL d   1      24.749 -14.373  -4.467  0.00  0.00    -0.273 OA
ATOM      6  H   UNL d   1      27.061 -14.694  -4.812  0.00  0.00     0.171 HD
BRANCH   4   7
ATOM      7  C   UNL d   1      25.040 -14.871  -2.111  0.00  0.00     0.113 C 
BRANCH   7   8
ATOM      8  C   UNL d   1      24.413 -16.248  -1.867  0.00  0.00     0.120 C 
BRANCH   8   9
ATOM      9  C   UNL d   1      25.374 -17.058  -0.986  0.00  0.00     0.259 C 
ATOM     10  O   UNL d   1      26.609 -16.915  -0.997  0.00  0.00    -0.265 OA
BRANCH   9  11
ATOM     11  O   UNL d   1      24.749 -18.001  -0.237  0.00  0.00    -0.321 OA
BRANCH  11  12
ATOM     12  C   UNL d   1      23.619 -18.612  -0.901  0.00  0.00     0.179 C 
BRANCH  12  13
ATOM     13  C   UNL d   1      22.364 -18.380  -0.071  0.00  0.00     0.031 C 
BRANCH  13  14
ATOM     14  C   UNL d   1      21.094 -18.765  -0.837  0.00  0.00     0.041 C 
BRANCH  14  15
ATOM     15  C   UNL d   1      20.167 -19.586   0.025  0.00  0.00    -0.058 A 
ATOM     16  C   UNL d   1      19.027 -20.192  -0.519  0.00  0.00     0.007 A 
ATOM     17  C   UNL d   1      18.098 -20.819   0.312  0.00  0.00     0.001 A 
ATOM     18  C   UNL d   1      18.347 -20.929   1.679  0.00  0.00     0.000 A 
ATOM     19  C   UNL d   1      19.502 -20.370   2.223  0.00  0.00     0.001 A 
ATOM     20  C   UNL d   1      20.403 -19.693   1.402  0.00  0.00     0.007 A 
ENDBRANCH  14  15
ENDBRANCH  13  14
ENDBRANCH  12  13
ENDBRANCH  11  12
ENDBRANCH   9  11
ENDBRANCH   8   9
ENDBRANCH   7   8
ENDBRANCH   4   7
ENDBRANCH   1   3
BRANCH   1  21
ATOM     21  N   UNL d   1      28.633 -16.082  -3.039  0.00  0.00    -0.331 N 
ATOM     22  H   UNL d   1      28.219 -16.826  -2.490  0.00  0.00     0.168 HD
BRANCH  21  23
ATOM     23  C   UNL d   1      29.492 -16.498  -4.111  0.00  0.00     0.068 A 
ATOM     24  C   UNL d   1      30.557 -17.363  -3.792  0.00  0.00     0.032 A 
ATOM     25  C   UNL d   1      31.389 -17.877  -4.794  0.00  0.00     0.002 A 
ATOM     26  C   UNL d   1      31.140 -17.576  -6.129  0.00  0.00     0.003 A 
ATOM     27  C   UNL d   1      30.103 -16.700  -6.455  0.00  0.00     0.039 A 
ATOM     28  C   UNL d   1      29.291 -16.122  -5.464  0.00  0.00     0.095 A 
BRANCH  28  29
ATOM     29  O   UNL d   1      28.404 -15.199  -5.992  0.00  0.00    -0.349 OA
BRANCH  29  30
ATOM     30  C   UNL d   1      28.956 -14.033  -6.575  0.00  0.00     0.176 C 
BRANCH  30  31
ATOM     31  C   UNL d   1      28.533 -12.733  -5.939  0.00  0.00     0.031 C 
BRANCH  31  32
ATOM     32  C   UNL d   1      27.020 -12.551  -6.080  0.00  0.00     0.041 C 
BRANCH  32  33
ATOM     33  C   UNL d   1      26.539 -11.388  -5.288  0.00  0.00    -0.058 A 
ATOM     34  C   UNL d   1      26.654 -11.464  -3.925  0.00  0.00     0.007 A 
ATOM     35  C   UNL d   1      26.139 -10.443  -3.146  0.00  0.00     0.001 A 
ATOM     36  C   UNL d   1      25.537  -9.318  -3.723  0.00  0.00     0.000 A 
ATOM     37  C   UNL d   1      25.454  -9.205  -5.094  0.00  0.00     0.001 A 
ATOM     38  C   UNL d   1      26.010 -10.224  -5.844  0.00  0.00     0.007 A 
ENDBRANCH  32  33
ENDBRANCH  31  32
ENDBRANCH  30  31
ENDBRANCH  29  30
ENDBRANCH  28  29
ENDBRANCH  21  23
ENDBRANCH   1  21
TORSDOF 16
ENDMDL
MODEL 7
REMARK VINA RESULT:    -8.193      2.230      9.953
REMARK INTER + INTRA:         -16.297
REMARK INTER:                 -12.965
REMARK INTRA:                  -3.331
REMARK CONF_INDEPENDENT:        4.773
REMARK UNBOUND:                -3.331
REMARK  16 active torsions:
REMARK  status: ('A' for Active; 'I' for Inactive)
REMARK    1  A    between atoms: C_2  and  C_3 
REMARK       I    between atoms: C_2  and  N_17 
REMARK    2  A    between atoms: C_3  and  C_4 
REMARK    3  A    between atoms: C_4  and  C_5 
REMARK    4  A    between atoms: C_5  and  O_7 
REMARK    5  A    between atoms: O_7  and  C_8 
REMARK    6  A    between atoms: C_8  and  C_9 
REMARK    7  A    between atoms: C_9  and  C_10 
REMARK    8  A    between atoms: C_10  and  C_11 
REMARK    9  A    between atoms: N_17  and  C_18 
REMARK   10  A    between atoms: C_18  and  N_20 
REMARK   11  A    between atoms: N_20  and  C_21 
REMARK   12  A    between atoms: C_26  and  O_27 
REMARK   13  A    between atoms: O_27  and  C_28 
REMARK   14  A    between atoms: C_28  and  C_29 
REMARK   15  A    between atoms: C_29  and  C_30 
REMARK   16  A    between atoms: C_30  and  C_31 
ROOT
ATOM      1  C   UNL d   1      26.029 -12.279  -4.165  0.00  0.00     0.178 C 
ATOM      2  S   UNL d   1      26.648 -11.829  -2.662  0.00  0.00    -0.040 SA
ENDROOT
BRANCH   1   3
ATOM      3  N   UNL d   1      26.047 -13.604  -4.696  0.00  0.00    -0.304 N 
ATOM      4  C   UNL d   1      25.550 -14.842  -4.237  0.00  0.00     0.224 C 
ATOM      5  O   UNL d   1      25.617 -15.823  -4.981  0.00  0.00    -0.273 OA
ATOM      6  H   UNL d   1      26.526 -13.730  -5.581  0.00  0.00     0.171 HD
BRANCH   4   7
ATOM      7  C   UNL d   1      25.104 -14.959  -2.774  0.00  0.00     0.113 C 
BRANCH   7   8
ATOM      8  C   UNL d   1      25.635 -16.154  -1.975  0.00  0.00     0.120 C 
BRANCH   8   9
ATOM      9  C   UNL d   1      24.467 -16.747  -1.177  0.00  0.00     0.259 C 
ATOM     10  O   UNL d   1      23.580 -16.064  -0.636  0.00  0.00    -0.265 OA
BRANCH   9  11
ATOM     11  O   UNL d   1      24.531 -18.098  -1.057  0.00  0.00    -0.321 OA
BRANCH  11  12
ATOM     12  C   UNL d   1      23.311 -18.772  -1.444  0.00  0.00     0.179 C 
BRANCH  12  13
ATOM     13  C   UNL d   1      22.315 -18.705  -0.295  0.00  0.00     0.031 C 
BRANCH  13  14
ATOM     14  C   UNL d   1      20.872 -18.594  -0.798  0.00  0.00     0.041 C 
BRANCH  14  15
ATOM     15  C   UNL d   1      19.934 -19.409   0.058  0.00  0.00    -0.058 A 
ATOM     16  C   UNL d   1      20.173 -19.573   1.429  0.00  0.00     0.007 A 
ATOM     17  C   UNL d   1      19.390 -20.450   2.181  0.00  0.00     0.001 A 
ATOM     18  C   UNL d   1      18.305 -21.096   1.591  0.00  0.00     0.000 A 
ATOM     19  C   UNL d   1      18.031 -20.903   0.239  0.00  0.00     0.001 A 
ATOM     20  C   UNL d   1      18.848 -20.071  -0.527  0.00  0.00     0.007 A 
ENDBRANCH  14  15
ENDBRANCH  13  14
ENDBRANCH  12  13
ENDBRANCH  11  12
ENDBRANCH   9  11
ENDBRANCH   8   9
ENDBRANCH   7   8
ENDBRANCH   4   7
ENDBRANCH   1   3
BRANCH   1  21
ATOM     21  N   UNL d   1      25.628 -11.330  -5.137  0.00  0.00    -0.331 N 
ATOM     22  H   UNL d   1      24.770 -10.808  -5.001  0.00  0.00     0.168 HD
BRANCH  21  23
ATOM     23  C   UNL d   1      26.550 -10.782  -6.091  0.00  0.00     0.068 A 
ATOM     24  C   UNL d   1      26.435  -9.411  -6.392  0.00  0.00     0.032 A 
ATOM     25  C   UNL d   1      27.348  -8.785  -7.250  0.00  0.00     0.002 A 
ATOM     26  C   UNL d   1      28.413  -9.507  -7.779  0.00  0.00     0.003 A 
ATOM     27  C   UNL d   1      28.523 -10.872  -7.509  0.00  0.00     0.039 A 
ATOM     28  C   UNL d   1      27.586 -11.538  -6.699  0.00  0.00     0.095 A 
BRANCH  28  29
ATOM     29  O   UNL d   1      27.814 -12.902  -6.655  0.00  0.00    -0.349 OA
BRANCH  29  30
ATOM     30  C   UNL d   1      28.723 -13.436  -7.599  0.00  0.00     0.176 C 
BRANCH  30  31
ATOM     31  C   UNL d   1      29.934 -14.116  -7.013  0.00  0.00     0.031 C 
BRANCH  31  32
ATOM     32  C   UNL d   1      29.578 -15.543  -6.589  0.00  0.00     0.041 C 
BRANCH  32  33
ATOM     33  C   UNL d   1      29.497 -15.665  -5.110  0.00  0.00    -0.058 A 
ATOM     34  C   UNL d   1      29.730 -16.901  -4.566  0.00  0.00     0.007 A 
ATOM     35  C   UNL d   1      29.578 -17.077  -3.202  0.00  0.00     0.001 A 
ATOM     36  C   UNL d   1      29.229 -16.012  -2.362  0.00  0.00     0.000 A 
ATOM     37  C   UNL d   1      29.036 -14.753  -2.888  0.00  0.00     0.001 A 
ATOM     38  C   UNL d   1      29.231 -14.602  -4.247  0.00  0.00     0.007 A 
ENDBRANCH  32  33
ENDBRANCH  31  32
ENDBRANCH  30  31
ENDBRANCH  29  30
ENDBRANCH  28  29
ENDBRANCH  21  23
ENDBRANCH   1  21
TORSDOF 16
ENDMDL
MODEL 8
REMARK VINA RESULT:    -7.049      2.518      4.144
REMARK INTER + INTRA:         -16.505
REMARK INTER:                 -11.822
REMARK INTRA:                  -4.683
REMARK CONF_INDEPENDENT:        4.773
REMARK UNBOUND:                -4.683
REMARK  16 active torsions:
REMARK  status: ('A' for Active; 'I' for Inactive)
REMARK    1  A    between atoms: C_2  and  C_3 
REMARK       I    between atoms: C_2  and  N_17 
REMARK    2  A    between atoms: C_3  and  C_4 
REMARK    3  A    between atoms: C_4  and  C_5 
REMARK    4  A    between atoms: C_5  and  O_7 
REMARK    5  A    between atoms: O_7  and  C_8 
REMARK    6  A    between atoms: C_8  and  C_9 
REMARK    7  A    between atoms: C_9  and  C_10 
REMARK    8  A    between atoms: C_10  and  C_11 
REMARK    9  A    between atoms: N_17  and  C_18 
REMARK   10  A    between atoms: C_18  and  N_20 
REMARK   11  A    between atoms: N_20  and  C_21 
REMARK   12  A    between atoms: C_26  and  O_27 
REMARK   13  A    between atoms: O_27  and  C_28 
REMARK   14  A    between atoms: C_28  and  C_29 
REMARK   15  A    between atoms: C_29  and  C_30 
REMARK   16  A    between atoms: C_30  and  C_31 
ROOT
ATOM      1  C   UNL d   1      26.720 -12.822  -1.954  0.00  0.00     0.178 C 
ATOM      2  S   UNL d   1      27.165 -11.197  -1.878  0.00  0.00    -0.040 SA
ENDROOT
BRANCH   1   3
ATOM      3  N   UNL d   1      25.530 -13.319  -2.567  0.00  0.00    -0.304 N 
ATOM      4  C   UNL d   1      25.132 -13.508  -3.907  0.00  0.00     0.224 C 
ATOM      5  O   UNL d   1      24.062 -14.075  -4.136  0.00  0.00    -0.273 OA
ATOM      6  H   UNL d   1      24.778 -13.586  -1.941  0.00  0.00     0.171 HD
BRANCH   4   7
ATOM      7  C   UNL d   1      25.960 -12.851  -5.019  0.00  0.00     0.113 C 
BRANCH   7   8
ATOM      8  C   UNL d   1      27.246 -13.568  -5.447  0.00  0.00     0.120 C 
BRANCH   8   9
ATOM      9  C   UNL d   1      27.204 -14.994  -4.882  0.00  0.00     0.259 C 
ATOM     10  O   UNL d   1      26.557 -15.924  -5.394  0.00  0.00    -0.265 OA
BRANCH   9  11
ATOM     11  O   UNL d   1      27.894 -15.130  -3.720  0.00  0.00    -0.321 OA
BRANCH  11  12
ATOM     12  C   UNL d   1      29.236 -14.596  -3.777  0.00  0.00     0.179 C 
BRANCH  12  13
ATOM     13  C   UNL d   1      30.211 -15.633  -3.237  0.00  0.00     0.031 C 
BRANCH  13  14
ATOM     14  C   UNL d   1      29.725 -17.063  -3.498  0.00  0.00     0.041 C 
BRANCH  14  15
ATOM     15  C   UNL d   1      30.232 -17.574  -4.825  0.00  0.00    -0.058 A 
ATOM     16  C   UNL d   1      30.470 -16.696  -5.890  0.00  0.00     0.007 A 
ATOM     17  C   UNL d   1      30.791 -17.192  -7.154  0.00  0.00     0.001 A 
ATOM     18  C   UNL d   1      30.970 -18.562  -7.341  0.00  0.00     0.000 A 
ATOM     19  C   UNL d   1      30.782 -19.440  -6.276  0.00  0.00     0.001 A 
ATOM     20  C   UNL d   1      30.404 -18.950  -5.026  0.00  0.00     0.007 A 
ENDBRANCH  14  15
ENDBRANCH  13  14
ENDBRANCH  12  13
ENDBRANCH  11  12
ENDBRANCH   9  11
ENDBRANCH   8   9
ENDBRANCH   7   8
ENDBRANCH   4   7
ENDBRANCH   1   3
BRANCH   1  21
ATOM     21  N   UNL d   1      27.390 -13.829  -1.217  0.00  0.00    -0.331 N 
ATOM     22  H   UNL d   1      28.033 -14.452  -1.691  0.00  0.00     0.168 HD
BRANCH  21  23
ATOM     23  C   UNL d   1      27.519 -13.766   0.211  0.00  0.00     0.068 A 
ATOM     24  C   UNL d   1      26.649 -12.903   0.906  0.00  0.00     0.032 A 
ATOM     25  C   UNL d   1      26.657 -12.847   2.305  0.00  0.00     0.002 A 
ATOM     26  C   UNL d   1      27.498 -13.686   3.030  0.00  0.00     0.003 A 
ATOM     27  C   UNL d   1      28.383 -14.527   2.353  0.00  0.00     0.039 A 
ATOM     28  C   UNL d   1      28.437 -14.559   0.948  0.00  0.00     0.095 A 
BRANCH  28  29
ATOM     29  O   UNL d   1      29.458 -15.371   0.486  0.00  0.00    -0.349 OA
BRANCH  29  30
ATOM     30  C   UNL d   1      29.083 -16.574  -0.160  0.00  0.00     0.176 C 
BRANCH  30  31
ATOM     31  C   UNL d   1      27.688 -17.060   0.142  0.00  0.00     0.031 C 
BRANCH  31  32
ATOM     32  C   UNL d   1      26.849 -17.065  -1.137  0.00  0.00     0.041 C 
BRANCH  32  33
ATOM     33  C   UNL d   1      25.398 -17.175  -0.832  0.00  0.00    -0.058 A 
ATOM     34  C   UNL d   1      24.963 -18.338  -0.250  0.00  0.00     0.007 A 
ATOM     35  C   UNL d   1      23.609 -18.517  -0.030  0.00  0.00     0.001 A 
ATOM     36  C   UNL d   1      22.679 -17.522  -0.354  0.00  0.00     0.000 A 
ATOM     37  C   UNL d   1      23.104 -16.329  -0.897  0.00  0.00     0.001 A 
ATOM     38  C   UNL d   1      24.465 -16.167  -1.071  0.00  0.00     0.007 A 
ENDBRANCH  32  33
ENDBRANCH  31  32
ENDBRANCH  30  31
ENDBRANCH  29  30
ENDBRANCH  28  29
ENDBRANCH  21  23
ENDBRANCH   1  21
TORSDOF 16
ENDMDL
