MODEL 1
REMARK VINA RESULT:    -7.567      0.000      0.000
REMARK INTER + INTRA:         -11.237
REMARK INTER:                  -9.059
REMARK INTRA:                  -2.178
REMARK CONF_INDEPENDENT:        1.492
REMARK UNBOUND:                -2.178
REMARK  5 active torsions:
REMARK  status: ('A' for Active; 'I' for Inactive)
REMARK    1  A    between atoms: C_2  and  C_19 
REMARK    2  A    between atoms: C_3  and  C_4 
REMARK       I    between atoms: C_4  and  N_6 
REMARK    3  A    between atoms: N_6  and  N_7 
REMARK       I    between atoms: N_7  and  C_8 
REMARK    4  A    between atoms: C_8  and  C_10 
REMARK    5  A    between atoms: C_14  and  N_15 
ROOT
ATOM      1  C   UNL d   1      26.660 -14.871  -5.079  0.00  0.00     0.260 C 
ATOM      2  O   UNL d   1      26.111 -15.853  -5.582  0.00  0.00    -0.267 OA
ATOM      3  N   UNL d   1      26.536 -14.685  -3.720  0.00  0.00    -0.264 N 
ATOM      4  H   UNL d   1      27.025 -13.992  -3.158  0.00  0.00     0.190 HD
ENDROOT
BRANCH   3   5
ATOM      5  N   UNL d   1      25.727 -15.641  -3.027  0.00  0.00    -0.263 N 
ATOM      6  C   UNL d   1      25.540 -15.527  -1.669  0.00  0.00     0.270 C 
ATOM      7  O   UNL d   1      26.060 -14.623  -1.007  0.00  0.00    -0.266 OA
ATOM      8  H   UNL d   1      25.269 -16.330  -3.626  0.00  0.00     0.190 HD
BRANCH   6   9
ATOM      9  C   UNL d   1      24.691 -16.546  -0.974  0.00  0.00     0.036 A 
ATOM     10  C   UNL d   1      25.326 -17.443  -0.095  0.00  0.00     0.017 A 
ATOM     11  C   UNL d   1      24.659 -18.574   0.390  0.00  0.00     0.003 A 
ATOM     12  C   UNL d   1      23.323 -18.793   0.057  0.00  0.00     0.036 A 
ATOM     13  C   UNL d   1      22.673 -17.882  -0.788  0.00  0.00     0.103 A 
ATOM     14  C   UNL d   1      23.345 -16.752  -1.302  0.00  0.00     0.053 A 
BRANCH  13  15
ATOM     15  N   UNL d   1      21.292 -18.163  -1.208  0.00  0.00    -0.116 N 
ATOM     16  O   UNL d   1      20.499 -17.212  -1.272  0.00  0.00    -0.532 OA
ATOM     17  O   UNL d   1      21.001 -19.339  -1.465  0.00  0.00    -0.532 OA
ENDBRANCH  13  15
ENDBRANCH   6   9
ENDBRANCH   3   5
BRANCH   1  18
ATOM     18  C   UNL d   1      27.466 -13.854  -5.861  0.00  0.00     0.083 C 
ATOM     19  C   UNL d   1      28.786 -13.949  -6.182  0.00  0.00    -0.043 C 
ATOM     20  C   UNL d   1      29.548 -12.844  -6.886  0.00  0.00     0.049 C 
BRANCH  19  21
ATOM     21  C   UNL d   1      29.597 -15.153  -5.859  0.00  0.00     0.009 C 
ATOM     22  C   UNL d   1      30.097 -15.930  -6.915  0.00  0.00     0.015 C 
ATOM     23  C   UNL d   1      30.596 -17.211  -6.691  0.00  0.00     0.001 C 
ATOM     24  C   UNL d   1      30.795 -17.660  -5.392  0.00  0.00     0.003 C 
ATOM     25  C   UNL d   1      30.431 -16.848  -4.319  0.00  0.00     0.043 C 
ATOM     26  C   UNL d   1      29.817 -15.615  -4.554  0.00  0.00     0.127 C 
ATOM     27  F   UNL d   1      29.416 -14.901  -3.491  0.00  0.00    -0.205 F 
ENDBRANCH  19  21
ENDBRANCH   1  18
TORSDOF 5
ENDMDL
MODEL 2
REMARK VINA RESULT:    -7.066      1.556      2.068
REMARK INTER + INTRA:         -10.587
REMARK INTER:                  -8.557
REMARK INTRA:                  -2.030
REMARK CONF_INDEPENDENT:        1.492
REMARK UNBOUND:                -2.030
REMARK  5 active torsions:
REMARK  status: ('A' for Active; 'I' for Inactive)
REMARK    1  A    between atoms: C_2  and  C_19 
REMARK    2  A    between atoms: C_3  and  C_4 
REMARK       I    between atoms: C_4  and  N_6 
REMARK    3  A    between atoms: N_6  and  N_7 
REMARK       I    between atoms: N_7  and  C_8 
REMARK    4  A    between atoms: C_8  and  C_10 
REMARK    5  A    between atoms: C_14  and  N_15 
ROOT
ATOM      1  C   UNL d   1      25.439 -13.221  -4.309  0.00  0.00     0.260 C 
ATOM      2  O   UNL d   1      24.418 -13.729  -4.775  0.00  0.00    -0.267 OA
ATOM      3  N   UNL d   1      25.896 -13.683  -3.095  0.00  0.00    -0.264 N 
ATOM      4  H   UNL d   1      26.779 -13.441  -2.649  0.00  0.00     0.190 HD
ENDROOT
BRANCH   3   5
ATOM      5  N   UNL d   1      25.096 -14.689  -2.465  0.00  0.00    -0.263 N 
ATOM      6  C   UNL d   1      25.630 -15.461  -1.459  0.00  0.00     0.270 C 
ATOM      7  O   UNL d   1      26.797 -15.328  -1.076  0.00  0.00    -0.266 OA
ATOM      8  H   UNL d   1      24.122 -14.718  -2.771  0.00  0.00     0.190 HD
BRANCH   6   9
ATOM      9  C   UNL d   1      24.768 -16.508  -0.824  0.00  0.00     0.036 A 
ATOM     10  C   UNL d   1      25.380 -17.424   0.051  0.00  0.00     0.017 A 
ATOM     11  C   UNL d   1      24.708 -18.575   0.480  0.00  0.00     0.003 A 
ATOM     12  C   UNL d   1      23.387 -18.796   0.093  0.00  0.00     0.036 A 
ATOM     13  C   UNL d   1      22.758 -17.867  -0.748  0.00  0.00     0.103 A 
ATOM     14  C   UNL d   1      23.436 -16.717  -1.206  0.00  0.00     0.053 A 
BRANCH  13  15
ATOM     15  N   UNL d   1      21.395 -18.148  -1.225  0.00  0.00    -0.116 N 
ATOM     16  O   UNL d   1      20.590 -17.206  -1.270  0.00  0.00    -0.532 OA
ATOM     17  O   UNL d   1      21.131 -19.314  -1.545  0.00  0.00    -0.532 OA
ENDBRANCH  13  15
ENDBRANCH   6   9
ENDBRANCH   3   5
BRANCH   1  18
ATOM     18  C   UNL d   1      26.227 -12.119  -4.988  0.00  0.00     0.083 C 
ATOM     19  C   UNL d   1      27.452 -12.249  -5.569  0.00  0.00    -0.043 C 
ATOM     20  C   UNL d   1      28.221 -11.077  -6.146  0.00  0.00     0.049 C 
BRANCH  19  21
ATOM     21  C   UNL d   1      28.144 -13.560  -5.680  0.00  0.00     0.009 C 
ATOM     22  C   UNL d   1      28.376 -14.298  -4.509  0.00  0.00     0.015 C 
ATOM     23  C   UNL d   1      29.269 -15.368  -4.500  0.00  0.00     0.001 C 
ATOM     24  C   UNL d   1      29.785 -15.850  -5.695  0.00  0.00     0.003 C 
ATOM     25  C   UNL d   1      29.459 -15.216  -6.892  0.00  0.00     0.043 C 
ATOM     26  C   UNL d   1      28.662 -14.068  -6.879  0.00  0.00     0.127 C 
ATOM     27  F   UNL d   1      28.436 -13.447  -8.048  0.00  0.00    -0.205 F 
ENDBRANCH  19  21
ENDBRANCH   1  18
TORSDOF 5
ENDMDL
MODEL 3
REMARK VINA RESULT:    -7.052      5.077      7.305
REMARK INTER + INTRA:         -10.760
REMARK INTER:                  -8.544
REMARK INTRA:                  -2.216
REMARK CONF_INDEPENDENT:        1.492
REMARK UNBOUND:                -2.216
REMARK  5 active torsions:
REMARK  status: ('A' for Active; 'I' for Inactive)
REMARK    1  A    between atoms: C_2  and  C_19 
REMARK    2  A    between atoms: C_3  and  C_4 
REMARK       I    between atoms: C_4  and  N_6 
REMARK    3  A    between atoms: N_6  and  N_7 
REMARK       I    between atoms: N_7  and  C_8 
REMARK    4  A    between atoms: C_8  and  C_10 
REMARK    5  A    between atoms: C_14  and  N_15 
ROOT
ATOM      1  C   UNL d   1      26.328 -12.448  -2.803  0.00  0.00     0.260 C 
ATOM      2  O   UNL d   1      26.010 -11.257  -2.810  0.00  0.00    -0.267 OA
ATOM      3  N   UNL d   1      26.850 -12.971  -1.642  0.00  0.00    -0.264 N 
ATOM      4  H   UNL d   1      27.047 -13.952  -1.456  0.00  0.00     0.190 HD
ENDROOT
BRANCH   3   5
ATOM      5  N   UNL d   1      27.019 -12.051  -0.558  0.00  0.00    -0.263 N 
ATOM      6  C   UNL d   1      27.204 -12.522   0.721  0.00  0.00     0.270 C 
ATOM      7  O   UNL d   1      27.219 -13.729   0.982  0.00  0.00    -0.266 OA
ATOM      8  H   UNL d   1      27.062 -11.068  -0.832  0.00  0.00     0.190 HD
BRANCH   6   9
ATOM      9  C   UNL d   1      27.372 -11.532   1.832  0.00  0.00     0.036 A 
ATOM     10  C   UNL d   1      27.838 -12.007   3.072  0.00  0.00     0.017 A 
ATOM     11  C   UNL d   1      27.780 -11.208   4.220  0.00  0.00     0.003 A 
ATOM     12  C   UNL d   1      27.315  -9.897   4.135  0.00  0.00     0.036 A 
ATOM     13  C   UNL d   1      26.885  -9.405   2.894  0.00  0.00     0.103 A 
ATOM     14  C   UNL d   1      26.916 -10.211   1.736  0.00  0.00     0.053 A 
BRANCH  13  15
ATOM     15  N   UNL d   1      26.313  -8.052   2.826  0.00  0.00    -0.116 N 
ATOM     16  O   UNL d   1      25.530  -7.798   1.899  0.00  0.00    -0.532 OA
ATOM     17  O   UNL d   1      26.657  -7.241   3.696  0.00  0.00    -0.532 OA
ENDBRANCH  13  15
ENDBRANCH   6   9
ENDBRANCH   3   5
BRANCH   1  18
ATOM     18  C   UNL d   1      26.179 -13.374  -3.992  0.00  0.00     0.083 C 
ATOM     19  C   UNL d   1      25.950 -14.716  -3.942  0.00  0.00    -0.043 C 
ATOM     20  C   UNL d   1      25.909 -15.595  -5.175  0.00  0.00     0.049 C 
BRANCH  19  21
ATOM     21  C   UNL d   1      25.728 -15.436  -2.659  0.00  0.00     0.009 C 
ATOM     22  C   UNL d   1      26.797 -16.150  -2.095  0.00  0.00     0.015 C 
ATOM     23  C   UNL d   1      26.584 -17.077  -1.078  0.00  0.00     0.001 C 
ATOM     24  C   UNL d   1      25.340 -17.159  -0.464  0.00  0.00     0.003 C 
ATOM     25  C   UNL d   1      24.294 -16.359  -0.918  0.00  0.00     0.043 C 
ATOM     26  C   UNL d   1      24.484 -15.521  -2.020  0.00  0.00     0.127 C 
ATOM     27  F   UNL d   1      23.427 -14.825  -2.469  0.00  0.00    -0.205 F 
ENDBRANCH  19  21
ENDBRANCH   1  18
TORSDOF 5
ENDMDL
MODEL 4
REMARK VINA RESULT:    -7.029      1.981      3.494
REMARK INTER + INTRA:         -10.802
REMARK INTER:                  -8.521
REMARK INTRA:                  -2.281
REMARK CONF_INDEPENDENT:        1.492
REMARK UNBOUND:                -2.281
REMARK  5 active torsions:
REMARK  status: ('A' for Active; 'I' for Inactive)
REMARK    1  A    between atoms: C_2  and  C_19 
REMARK    2  A    between atoms: C_3  and  C_4 
REMARK       I    between atoms: C_4  and  N_6 
REMARK    3  A    between atoms: N_6  and  N_7 
REMARK       I    between atoms: N_7  and  C_8 
REMARK    4  A    between atoms: C_8  and  C_10 
REMARK    5  A    between atoms: C_14  and  N_15 
ROOT
ATOM      1  C   UNL d   1      27.014 -14.963  -5.339  0.00  0.00     0.260 C 
ATOM      2  O   UNL d   1      26.256 -15.836  -5.766  0.00  0.00    -0.267 OA
ATOM      3  N   UNL d   1      27.139 -14.825  -3.975  0.00  0.00    -0.264 N 
ATOM      4  H   UNL d   1      27.806 -14.232  -3.486  0.00  0.00     0.190 HD
ENDROOT
BRANCH   3   5
ATOM      5  N   UNL d   1      26.324 -15.692  -3.179  0.00  0.00    -0.263 N 
ATOM      6  C   UNL d   1      26.168 -15.445  -1.835  0.00  0.00     0.270 C 
ATOM      7  O   UNL d   1      26.721 -14.495  -1.271  0.00  0.00    -0.266 OA
ATOM      8  H   UNL d   1      25.838 -16.424  -3.700  0.00  0.00     0.190 HD
BRANCH   6   9
ATOM      9  C   UNL d   1      25.313 -16.374  -1.030  0.00  0.00     0.036 A 
ATOM     10  C   UNL d   1      25.936 -17.143  -0.029  0.00  0.00     0.017 A 
ATOM     11  C   UNL d   1      25.267 -18.208   0.586  0.00  0.00     0.003 A 
ATOM     12  C   UNL d   1      23.940 -18.481   0.258  0.00  0.00     0.036 A 
ATOM     13  C   UNL d   1      23.301 -17.695  -0.712  0.00  0.00     0.103 A 
ATOM     14  C   UNL d   1      23.975 -16.635  -1.355  0.00  0.00     0.053 A 
BRANCH  13  15
ATOM     15  N   UNL d   1      21.931 -18.042  -1.119  0.00  0.00    -0.116 N 
ATOM     16  O   UNL d   1      21.034 -17.216  -0.902  0.00  0.00    -0.532 OA
ATOM     17  O   UNL d   1      21.755 -19.148  -1.648  0.00  0.00    -0.532 OA
ENDBRANCH  13  15
ENDBRANCH   6   9
ENDBRANCH   3   5
BRANCH   1  18
ATOM     18  C   UNL d   1      27.819 -14.031  -6.221  0.00  0.00     0.083 C 
ATOM     19  C   UNL d   1      27.876 -12.674  -6.114  0.00  0.00    -0.043 C 
ATOM     20  C   UNL d   1      28.630 -11.799  -7.095  0.00  0.00     0.049 C 
BRANCH  19  21
ATOM     21  C   UNL d   1      27.191 -11.933  -5.022  0.00  0.00     0.009 C 
ATOM     22  C   UNL d   1      26.039 -11.194  -5.332  0.00  0.00     0.015 C 
ATOM     23  C   UNL d   1      25.530 -10.251  -4.441  0.00  0.00     0.001 C 
ATOM     24  C   UNL d   1      26.034 -10.176  -3.149  0.00  0.00     0.003 C 
ATOM     25  C   UNL d   1      27.093 -10.999  -2.773  0.00  0.00     0.043 C 
ATOM     26  C   UNL d   1      27.678 -11.855  -3.710  0.00  0.00     0.127 C 
ATOM     27  F   UNL d   1      28.743 -12.574  -3.324  0.00  0.00    -0.205 F 
ENDBRANCH  19  21
ENDBRANCH   1  18
TORSDOF 5
ENDMDL
MODEL 5
REMARK VINA RESULT:    -6.758      5.673      7.977
REMARK INTER + INTRA:         -10.284
REMARK INTER:                  -8.249
REMARK INTRA:                  -2.035
REMARK CONF_INDEPENDENT:        1.492
REMARK UNBOUND:                -2.035
REMARK  5 active torsions:
REMARK  status: ('A' for Active; 'I' for Inactive)
REMARK    1  A    between atoms: C_2  and  C_19 
REMARK    2  A    between atoms: C_3  and  C_4 
REMARK       I    between atoms: C_4  and  N_6 
REMARK    3  A    between atoms: N_6  and  N_7 
REMARK       I    between atoms: N_7  and  C_8 
REMARK    4  A    between atoms: C_8  and  C_10 
REMARK    5  A    between atoms: C_14  and  N_15 
ROOT
ATOM      1  C   UNL d   1      27.972 -14.931  -0.564  0.00  0.00     0.260 C 
ATOM      2  O   UNL d   1      28.977 -15.562  -0.232  0.00  0.00    -0.267 OA
ATOM      3  N   UNL d   1      27.316 -14.202   0.402  0.00  0.00    -0.264 N 
ATOM      4  H   UNL d   1      26.550 -13.549   0.251  0.00  0.00     0.190 HD
ENDROOT
BRANCH   3   5
ATOM      5  N   UNL d   1      27.850 -14.292   1.727  0.00  0.00    -0.263 N 
ATOM      6  C   UNL d   1      27.423 -13.420   2.701  0.00  0.00     0.270 C 
ATOM      7  O   UNL d   1      26.589 -12.537   2.474  0.00  0.00    -0.266 OA
ATOM      8  H   UNL d   1      28.486 -15.076   1.881  0.00  0.00     0.190 HD
BRANCH   6   9
ATOM      9  C   UNL d   1      28.005 -13.538   4.075  0.00  0.00     0.036 A 
ATOM     10  C   UNL d   1      28.328 -14.825   4.546  0.00  0.00     0.017 A 
ATOM     11  C   UNL d   1      28.630 -15.047   5.894  0.00  0.00     0.003 A 
ATOM     12  C   UNL d   1      28.680 -13.975   6.784  0.00  0.00     0.036 A 
ATOM     13  C   UNL d   1      28.396 -12.684   6.314  0.00  0.00     0.103 A 
ATOM     14  C   UNL d   1      28.065 -12.455   4.961  0.00  0.00     0.053 A 
BRANCH  13  15
ATOM     15  N   UNL d   1      28.362 -11.570   7.273  0.00  0.00    -0.116 N 
ATOM     16  O   UNL d   1      28.155 -11.836   8.465  0.00  0.00    -0.532 OA
ATOM     17  O   UNL d   1      28.534 -10.427   6.827  0.00  0.00    -0.532 OA
ENDBRANCH  13  15
ENDBRANCH   6   9
ENDBRANCH   3   5
BRANCH   1  18
ATOM     18  C   UNL d   1      27.411 -14.906  -1.971  0.00  0.00     0.083 C 
ATOM     19  C   UNL d   1      26.308 -15.575  -2.409  0.00  0.00    -0.043 C 
ATOM     20  C   UNL d   1      25.862 -15.577  -3.857  0.00  0.00     0.049 C 
BRANCH  19  21
ATOM     21  C   UNL d   1      25.448 -16.371  -1.494  0.00  0.00     0.009 C 
ATOM     22  C   UNL d   1      26.034 -17.412  -0.757  0.00  0.00     0.015 C 
ATOM     23  C   UNL d   1      25.250 -18.374  -0.125  0.00  0.00     0.001 C 
ATOM     24  C   UNL d   1      23.875 -18.202  -0.041  0.00  0.00     0.003 C 
ATOM     25  C   UNL d   1      23.280 -17.099  -0.651  0.00  0.00     0.043 C 
ATOM     26  C   UNL d   1      24.060 -16.205  -1.388  0.00  0.00     0.127 C 
ATOM     27  F   UNL d   1      23.435 -15.200  -2.021  0.00  0.00    -0.205 F 
ENDBRANCH  19  21
ENDBRANCH   1  18
TORSDOF 5
ENDMDL
MODEL 6
REMARK VINA RESULT:    -6.623      5.758      8.202
REMARK INTER + INTRA:         -10.115
REMARK INTER:                  -8.115
REMARK INTRA:                  -2.000
REMARK CONF_INDEPENDENT:        1.492
REMARK UNBOUND:                -2.000
REMARK  5 active torsions:
REMARK  status: ('A' for Active; 'I' for Inactive)
REMARK    1  A    between atoms: C_2  and  C_19 
REMARK    2  A    between atoms: C_3  and  C_4 
REMARK       I    between atoms: C_4  and  N_6 
REMARK    3  A    between atoms: N_6  and  N_7 
REMARK       I    between atoms: N_7  and  C_8 
REMARK    4  A    between atoms: C_8  and  C_10 
REMARK    5  A    between atoms: C_14  and  N_15 
ROOT
ATOM      1  C   UNL d   1      25.952 -12.404  -3.624  0.00  0.00     0.260 C 
ATOM      2  O   UNL d   1      26.480 -12.538  -2.518  0.00  0.00    -0.267 OA
ATOM      3  N   UNL d   1      25.510 -11.151  -3.983  0.00  0.00    -0.264 N 
ATOM      4  H   UNL d   1      25.163 -10.871  -4.898  0.00  0.00     0.190 HD
ENDROOT
BRANCH   3   5
ATOM      5  N   UNL d   1      25.667 -10.124  -2.999  0.00  0.00    -0.263 N 
ATOM      6  C   UNL d   1      25.349  -8.821  -3.308  0.00  0.00     0.270 C 
ATOM      7  O   UNL d   1      24.935  -8.492  -4.424  0.00  0.00    -0.266 OA
ATOM      8  H   UNL d   1      25.951 -10.454  -2.075  0.00  0.00     0.190 HD
BRANCH   6   9
ATOM      9  C   UNL d   1      25.530  -7.770  -2.257  0.00  0.00     0.036 A 
ATOM     10  C   UNL d   1      26.148  -6.562  -2.631  0.00  0.00     0.017 A 
ATOM     11  C   UNL d   1      26.582  -5.643  -1.669  0.00  0.00     0.003 A 
ATOM     12  C   UNL d   1      26.347  -5.885  -0.317  0.00  0.00     0.036 A 
ATOM     13  C   UNL d   1      25.697  -7.069   0.062  0.00  0.00     0.103 A 
ATOM     14  C   UNL d   1      25.278  -8.013  -0.900  0.00  0.00     0.053 A 
BRANCH  13  15
ATOM     15  N   UNL d   1      25.530  -7.362   1.493  0.00  0.00    -0.116 N 
ATOM     16  O   UNL d   1      25.385  -8.546   1.830  0.00  0.00    -0.532 OA
ATOM     17  O   UNL d   1      25.535  -6.403   2.277  0.00  0.00    -0.532 OA
ENDBRANCH  13  15
ENDBRANCH   6   9
ENDBRANCH   3   5
BRANCH   1  18
ATOM     18  C   UNL d   1      25.758 -13.533  -4.615  0.00  0.00     0.083 C 
ATOM     19  C   UNL d   1      25.752 -14.864  -4.326  0.00  0.00    -0.043 C 
ATOM     20  C   UNL d   1      25.648 -15.940  -5.388  0.00  0.00     0.049 C 
BRANCH  19  21
ATOM     21  C   UNL d   1      25.856 -15.374  -2.933  0.00  0.00     0.009 C 
ATOM     22  C   UNL d   1      27.095 -15.861  -2.487  0.00  0.00     0.015 C 
ATOM     23  C   UNL d   1      27.192 -16.618  -1.322  0.00  0.00     0.001 C 
ATOM     24  C   UNL d   1      26.097 -16.729  -0.475  0.00  0.00     0.003 C 
ATOM     25  C   UNL d   1      24.887 -16.137  -0.831  0.00  0.00     0.043 C 
ATOM     26  C   UNL d   1      24.765 -15.484  -2.061  0.00  0.00     0.127 C 
ATOM     27  F   UNL d   1      23.561 -14.994  -2.395  0.00  0.00    -0.205 F 
ENDBRANCH  19  21
ENDBRANCH   1  18
TORSDOF 5
ENDMDL
MODEL 7
REMARK VINA RESULT:    -6.554      1.501      1.850
REMARK INTER + INTRA:         -10.365
REMARK INTER:                  -8.046
REMARK INTRA:                  -2.319
REMARK CONF_INDEPENDENT:        1.492
REMARK UNBOUND:                -2.319
REMARK  5 active torsions:
REMARK  status: ('A' for Active; 'I' for Inactive)
REMARK    1  A    between atoms: C_2  and  C_19 
REMARK    2  A    between atoms: C_3  and  C_4 
REMARK       I    between atoms: C_4  and  N_6 
REMARK    3  A    between atoms: N_6  and  N_7 
REMARK       I    between atoms: N_7  and  C_8 
REMARK    4  A    between atoms: C_8  and  C_10 
REMARK    5  A    between atoms: C_14  and  N_15 
ROOT
ATOM      1  C   UNL d   1      27.933 -15.195  -5.293  0.00  0.00     0.260 C 
ATOM      2  O   UNL d   1      26.797 -15.508  -5.653  0.00  0.00    -0.267 OA
ATOM      3  N   UNL d   1      28.273 -15.394  -3.973  0.00  0.00    -0.264 N 
ATOM      4  H   UNL d   1      29.199 -15.291  -3.565  0.00  0.00     0.190 HD
ENDROOT
BRANCH   3   5
ATOM      5  N   UNL d   1      27.236 -15.906  -3.129  0.00  0.00    -0.263 N 
ATOM      6  C   UNL d   1      27.538 -16.350  -1.863  0.00  0.00     0.270 C 
ATOM      7  O   UNL d   1      28.690 -16.335  -1.417  0.00  0.00    -0.266 OA
ATOM      8  H   UNL d   1      26.294 -15.840  -3.517  0.00  0.00     0.190 HD
BRANCH   6   9
ATOM      9  C   UNL d   1      26.432 -16.885  -1.007  0.00  0.00     0.036 A 
ATOM     10  C   UNL d   1      26.772 -17.441   0.240  0.00  0.00     0.017 A 
ATOM     11  C   UNL d   1      25.844 -18.185   0.977  0.00  0.00     0.003 A 
ATOM     12  C   UNL d   1      24.538 -18.330   0.512  0.00  0.00     0.036 A 
ATOM     13  C   UNL d   1      24.181 -17.746  -0.712  0.00  0.00     0.103 A 
ATOM     14  C   UNL d   1      25.117 -17.015  -1.474  0.00  0.00     0.053 A 
BRANCH  13  15
ATOM     15  N   UNL d   1      22.829 -17.975  -1.242  0.00  0.00    -0.116 N 
ATOM     16  O   UNL d   1      22.661 -18.933  -2.011  0.00  0.00    -0.532 OA
ATOM     17  O   UNL d   1      21.937 -17.189  -0.893  0.00  0.00    -0.532 OA
ENDBRANCH  13  15
ENDBRANCH   6   9
ENDBRANCH   3   5
BRANCH   1  18
ATOM     18  C   UNL d   1      28.984 -14.606  -6.212  0.00  0.00     0.083 C 
ATOM     19  C   UNL d   1      30.187 -15.165  -6.520  0.00  0.00    -0.043 C 
ATOM     20  C   UNL d   1      31.228 -14.469  -7.373  0.00  0.00     0.049 C 
BRANCH  19  21
ATOM     21  C   UNL d   1      30.583 -16.514  -6.034  0.00  0.00     0.009 C 
ATOM     22  C   UNL d   1      30.551 -17.589  -6.936  0.00  0.00     0.015 C 
ATOM     23  C   UNL d   1      30.614 -18.906  -6.485  0.00  0.00     0.001 C 
ATOM     24  C   UNL d   1      30.918 -19.169  -5.156  0.00  0.00     0.003 C 
ATOM     25  C   UNL d   1      31.090 -18.112  -4.265  0.00  0.00     0.043 C 
ATOM     26  C   UNL d   1      30.903 -16.797  -4.699  0.00  0.00     0.127 C 
ATOM     27  F   UNL d   1      31.006 -15.815  -3.790  0.00  0.00    -0.205 F 
ENDBRANCH  19  21
ENDBRANCH   1  18
TORSDOF 5
ENDMDL
MODEL 8
REMARK VINA RESULT:    -6.425      6.057      8.459
REMARK INTER + INTRA:          -9.949
REMARK INTER:                  -7.917
REMARK INTRA:                  -2.033
REMARK CONF_INDEPENDENT:        1.492
REMARK UNBOUND:                -2.033
REMARK  5 active torsions:
REMARK  status: ('A' for Active; 'I' for Inactive)
REMARK    1  A    between atoms: C_2  and  C_19 
REMARK    2  A    between atoms: C_3  and  C_4 
REMARK       I    between atoms: C_4  and  N_6 
REMARK    3  A    between atoms: N_6  and  N_7 
REMARK       I    between atoms: N_7  and  C_8 
REMARK    4  A    between atoms: C_8  and  C_10 
REMARK    5  A    between atoms: C_14  and  N_15 
ROOT
ATOM      1  C   UNL d   1      27.384 -14.837   1.134  0.00  0.00     0.260 C 
ATOM      2  O   UNL d   1      27.243 -14.041   0.204  0.00  0.00    -0.267 OA
ATOM      3  N   UNL d   1      27.572 -14.328   2.400  0.00  0.00    -0.264 N 
ATOM      4  H   UNL d   1      27.587 -14.858   3.268  0.00  0.00     0.190 HD
ENDROOT
BRANCH   3   5
ATOM      5  N   UNL d   1      27.633 -12.902   2.500  0.00  0.00    -0.263 N 
ATOM      6  C   UNL d   1      27.788 -12.305   3.730  0.00  0.00     0.270 C 
ATOM      7  O   UNL d   1      27.866 -12.961   4.774  0.00  0.00    -0.266 OA
ATOM      8  H   UNL d   1      27.628 -12.407   1.606  0.00  0.00     0.190 HD
BRANCH   6   9
ATOM      9  C   UNL d   1      27.844 -10.810   3.800  0.00  0.00     0.036 A 
ATOM     10  C   UNL d   1      28.582 -10.227   4.847  0.00  0.00     0.017 A 
ATOM     11  C   UNL d   1      28.475  -8.861   5.133  0.00  0.00     0.003 A 
ATOM     12  C   UNL d   1      27.680  -8.041   4.334  0.00  0.00     0.036 A 
ATOM     13  C   UNL d   1      26.971  -8.609   3.265  0.00  0.00     0.103 A 
ATOM     14  C   UNL d   1      27.053  -9.990   2.985  0.00  0.00     0.053 A 
BRANCH  13  15
ATOM     15  N   UNL d   1      26.065  -7.758   2.480  0.00  0.00    -0.116 N 
ATOM     16  O   UNL d   1      25.508  -8.259   1.493  0.00  0.00    -0.532 OA
ATOM     17  O   UNL d   1      25.920  -6.585   2.850  0.00  0.00    -0.532 OA
ENDBRANCH  13  15
ENDBRANCH   6   9
ENDBRANCH   3   5
BRANCH   1  18
ATOM     18  C   UNL d   1      27.364 -16.343   0.974  0.00  0.00     0.083 C 
ATOM     19  C   UNL d   1      26.815 -17.034  -0.064  0.00  0.00    -0.043 C 
ATOM     20  C   UNL d   1      26.748 -18.547  -0.108  0.00  0.00     0.049 C 
BRANCH  19  21
ATOM     21  C   UNL d   1      26.223 -16.352  -1.246  0.00  0.00     0.009 C 
ATOM     22  C   UNL d   1      27.076 -15.952  -2.287  0.00  0.00     0.015 C 
ATOM     23  C   UNL d   1      26.645 -15.057  -3.264  0.00  0.00     0.001 C 
ATOM     24  C   UNL d   1      25.303 -14.707  -3.340  0.00  0.00     0.003 C 
ATOM     25  C   UNL d   1      24.407 -15.202  -2.395  0.00  0.00     0.043 C 
ATOM     26  C   UNL d   1      24.870 -16.000  -1.346  0.00  0.00     0.127 C 
ATOM     27  F   UNL d   1      23.984 -16.392  -0.417  0.00  0.00    -0.205 F 
ENDBRANCH  19  21
ENDBRANCH   1  18
TORSDOF 5
ENDMDL
MODEL 9
REMARK VINA RESULT:    -6.288      5.581      7.824
REMARK INTER + INTRA:          -9.922
REMARK INTER:                  -7.780
REMARK INTRA:                  -2.142
REMARK CONF_INDEPENDENT:        1.492
REMARK UNBOUND:                -2.142
REMARK  5 active torsions:
REMARK  status: ('A' for Active; 'I' for Inactive)
REMARK    1  A    between atoms: C_2  and  C_19 
REMARK    2  A    between atoms: C_3  and  C_4 
REMARK       I    between atoms: C_4  and  N_6 
REMARK    3  A    between atoms: N_6  and  N_7 
REMARK       I    between atoms: N_7  and  C_8 
REMARK    4  A    between atoms: C_8  and  C_10 
REMARK    5  A    between atoms: C_14  and  N_15 
ROOT
ATOM      1  C   UNL d   1      29.910 -14.781   0.129  0.00  0.00     0.260 C 
ATOM      2  O   UNL d   1      30.017 -13.781  -0.584  0.00  0.00    -0.267 OA
ATOM      3  N   UNL d   1      29.362 -14.628   1.383  0.00  0.00    -0.264 N 
ATOM      4  H   UNL d   1      29.110 -15.374   2.027  0.00  0.00     0.190 HD
ENDROOT
BRANCH   3   5
ATOM      5  N   UNL d   1      29.013 -13.291   1.756  0.00  0.00    -0.263 N 
ATOM      6  C   UNL d   1      28.342 -13.060   2.935  0.00  0.00     0.270 C 
ATOM      7  O   UNL d   1      28.013 -13.976   3.695  0.00  0.00    -0.266 OA
ATOM      8  H   UNL d   1      29.361 -12.565   1.128  0.00  0.00     0.190 HD
BRANCH   6   9
ATOM      9  C   UNL d   1      27.987 -11.650   3.293  0.00  0.00     0.036 A 
ATOM     10  C   UNL d   1      28.472 -11.138   4.511  0.00  0.00     0.017 A 
ATOM     11  C   UNL d   1      27.982  -9.936   5.036  0.00  0.00     0.003 A 
ATOM     12  C   UNL d   1      27.045  -9.193   4.320  0.00  0.00     0.036 A 
ATOM     13  C   UNL d   1      26.585  -9.679   3.088  0.00  0.00     0.103 A 
ATOM     14  C   UNL d   1      27.055 -10.902   2.562  0.00  0.00     0.053 A 
BRANCH  13  15
ATOM     15  N   UNL d   1      25.533  -8.937   2.378  0.00  0.00    -0.116 N 
ATOM     16  O   UNL d   1      24.474  -9.530   2.124  0.00  0.00    -0.532 OA
ATOM     17  O   UNL d   1      25.772  -7.762   2.068  0.00  0.00    -0.532 OA
ENDBRANCH  13  15
ENDBRANCH   6   9
ENDBRANCH   3   5
BRANCH   1  18
ATOM     18  C   UNL d   1      30.343 -16.172  -0.289  0.00  0.00     0.083 C 
ATOM     19  C   UNL d   1      29.518 -17.218  -0.573  0.00  0.00    -0.043 C 
ATOM     20  C   UNL d   1      30.028 -18.609  -0.892  0.00  0.00     0.049 C 
BRANCH  19  21
ATOM     21  C   UNL d   1      28.037 -17.082  -0.587  0.00  0.00     0.009 C 
ATOM     22  C   UNL d   1      27.293 -17.745   0.401  0.00  0.00     0.015 C 
ATOM     23  C   UNL d   1      25.915 -17.907   0.273  0.00  0.00     0.001 C 
ATOM     24  C   UNL d   1      25.228 -17.237  -0.731  0.00  0.00     0.003 C 
ATOM     25  C   UNL d   1      25.933 -16.459  -1.647  0.00  0.00     0.043 C 
ATOM     26  C   UNL d   1      27.328 -16.401  -1.586  0.00  0.00     0.127 C 
ATOM     27  F   UNL d   1      27.969 -15.700  -2.533  0.00  0.00    -0.205 F 
ENDBRANCH  19  21
ENDBRANCH   1  18
TORSDOF 5
ENDMDL
