MODEL 1
REMARK VINA RESULT:    -7.831      0.000      0.000
REMARK INTER + INTRA:         -14.732
REMARK INTER:                 -11.709
REMARK INTRA:                  -3.023
REMARK CONF_INDEPENDENT:        3.878
REMARK UNBOUND:                -3.023
REMARK  13 active torsions:
REMARK  status: ('A' for Active; 'I' for Inactive)
REMARK    1  A    between atoms: C_2  and  C_3 
REMARK    2  A    between atoms: C_3  and  C_4 
REMARK    3  A    between atoms: C_4  and  C_5 
REMARK    4  A    between atoms: C_5  and  C_6 
REMARK    5  A    between atoms: C_6  and  N_7 
REMARK       I    between atoms: N_7  and  C_8 
REMARK    6  A    between atoms: N_7  and  C_12 
REMARK    7  A    between atoms: C_8  and  C_10 
REMARK    8  A    between atoms: C_12  and  C_13 
REMARK    9  A    between atoms: C_12  and  C_22 
REMARK       I    between atoms: C_13  and  N_15 
REMARK   10  A    between atoms: N_15  and  C_16 
REMARK   11  A    between atoms: C_23  and  O_24 
REMARK   12  A    between atoms: C_26  and  O_27 
REMARK   13  A    between atoms: C_29  and  O_30 
ROOT
ATOM      1  C   UNL d   1      25.893 -14.632  -1.587  0.00  0.00     0.218 C 
ENDROOT
BRANCH   1   2
ATOM      2  N   UNL d   1      25.622 -16.091  -1.185  0.00  0.00    -0.334 N 
ATOM      3  C   UNL d   1      26.643 -16.860  -0.569  0.00  0.00     0.220 C 
ATOM      4  O   UNL d   1      27.783 -16.448  -0.316  0.00  0.00    -0.273 OA
BRANCH   2   5
ATOM      5  C   UNL d   1      24.296 -16.609  -1.598  0.00  0.00     0.127 C 
BRANCH   5   6
ATOM      6  C   UNL d   1      23.471 -17.258  -0.535  0.00  0.00     0.020 C 
BRANCH   6   7
ATOM      7  C   UNL d   1      23.104 -18.700  -0.654  0.00  0.00     0.002 C 
BRANCH   7   8
ATOM      8  C   UNL d   1      21.593 -18.716  -0.914  0.00  0.00    -0.000 C 
BRANCH   8   9
ATOM      9  C   UNL d   1      20.937 -19.587   0.127  0.00  0.00    -0.005 C 
ATOM     10  C   UNL d   1      19.444 -19.668  -0.095  0.00  0.00     0.005 C 
ENDBRANCH   8   9
ENDBRANCH   7   8
ENDBRANCH   6   7
ENDBRANCH   5   6
ENDBRANCH   2   5
BRANCH   3  11
ATOM     11  C   UNL d   1      26.447 -18.301  -0.150  0.00  0.00     0.098 C 
ATOM     12  C   UNL d   1      26.651 -18.561   1.325  0.00  0.00     0.014 C 
ENDBRANCH   3  11
ENDBRANCH   1   2
BRANCH   1  13
ATOM     13  C   UNL d   1      26.699 -13.752  -0.541  0.00  0.00     0.245 C 
ATOM     14  O   UNL d   1      27.452 -12.844  -0.911  0.00  0.00    -0.271 OA
ATOM     15  N   UNL d   1      26.585 -13.985   0.812  0.00  0.00    -0.354 N 
ATOM     16  H   UNL d   1      25.724 -14.369   1.176  0.00  0.00     0.162 HD
BRANCH  15  17
ATOM     17  C   UNL d   1      27.537 -13.401   1.764  0.00  0.00     0.084 C 
ATOM     18  C   UNL d   1      26.942 -12.123   2.374  0.00  0.00     0.025 C 
ATOM     19  C   UNL d   1      27.812 -11.544   3.489  0.00  0.00     0.002 C 
ATOM     20  C   UNL d   1      28.108 -12.576   4.572  0.00  0.00     0.000 C 
ATOM     21  C   UNL d   1      28.757 -13.808   3.970  0.00  0.00     0.002 C 
ATOM     22  C   UNL d   1      27.880 -14.408   2.886  0.00  0.00     0.025 C 
ENDBRANCH  15  17
ENDBRANCH   1  13
BRANCH   1  23
ATOM     23  C   UNL d   1      26.566 -14.502  -2.969  0.00  0.00     0.040 A 
ATOM     24  C   UNL d   1      27.964 -14.685  -3.147  0.00  0.00     0.080 A 
ATOM     25  C   UNL d   1      28.529 -14.863  -4.406  0.00  0.00     0.073 A 
ATOM     26  C   UNL d   1      27.703 -14.924  -5.516  0.00  0.00     0.071 A 
ATOM     27  C   UNL d   1      26.328 -14.757  -5.393  0.00  0.00     0.073 A 
ATOM     28  C   UNL d   1      25.767 -14.518  -4.132  0.00  0.00     0.080 A 
BRANCH  24  29
ATOM     29  O   UNL d   1      28.862 -14.873  -2.123  0.00  0.00    -0.360 OA
ATOM     30  H   UNL d   1      28.396 -14.757  -1.278  0.00  0.00     0.217 HD
ENDBRANCH  24  29
BRANCH  26  31
ATOM     31  O   UNL d   1      28.215 -15.188  -6.754  0.00  0.00    -0.361 OA
ATOM     32  H   UNL d   1      29.180 -15.270  -6.660  0.00  0.00     0.217 HD
ENDBRANCH  26  31
BRANCH  28  33
ATOM     33  O   UNL d   1      24.403 -14.422  -4.017  0.00  0.00    -0.360 OA
ATOM     34  H   UNL d   1      24.067 -14.020  -4.836  0.00  0.00     0.217 HD
ENDBRANCH  28  33
ENDBRANCH   1  23
TORSDOF 13
ENDMDL
MODEL 2
REMARK VINA RESULT:    -7.451      0.700      1.645
REMARK INTER + INTRA:         -14.266
REMARK INTER:                 -11.329
REMARK INTRA:                  -2.938
REMARK CONF_INDEPENDENT:        3.878
REMARK UNBOUND:                -2.938
REMARK  13 active torsions:
REMARK  status: ('A' for Active; 'I' for Inactive)
REMARK    1  A    between atoms: C_2  and  C_3 
REMARK    2  A    between atoms: C_3  and  C_4 
REMARK    3  A    between atoms: C_4  and  C_5 
REMARK    4  A    between atoms: C_5  and  C_6 
REMARK    5  A    between atoms: C_6  and  N_7 
REMARK       I    between atoms: N_7  and  C_8 
REMARK    6  A    between atoms: N_7  and  C_12 
REMARK    7  A    between atoms: C_8  and  C_10 
REMARK    8  A    between atoms: C_12  and  C_13 
REMARK    9  A    between atoms: C_12  and  C_22 
REMARK       I    between atoms: C_13  and  N_15 
REMARK   10  A    between atoms: N_15  and  C_16 
REMARK   11  A    between atoms: C_23  and  O_24 
REMARK   12  A    between atoms: C_26  and  O_27 
REMARK   13  A    between atoms: C_29  and  O_30 
ROOT
ATOM      1  C   UNL d   1      25.660 -15.071  -1.588  0.00  0.00     0.218 C 
ENDROOT
BRANCH   1   2
ATOM      2  N   UNL d   1      25.355 -16.406  -0.892  0.00  0.00    -0.334 N 
ATOM      3  C   UNL d   1      26.229 -16.900   0.113  0.00  0.00     0.220 C 
ATOM      4  O   UNL d   1      27.261 -16.332   0.493  0.00  0.00    -0.273 OA
BRANCH   2   5
ATOM      5  C   UNL d   1      24.184 -17.135  -1.436  0.00  0.00     0.127 C 
BRANCH   5   6
ATOM      6  C   UNL d   1      23.040 -17.356  -0.501  0.00  0.00     0.020 C 
BRANCH   6   7
ATOM      7  C   UNL d   1      22.439 -18.715  -0.369  0.00  0.00     0.002 C 
BRANCH   7   8
ATOM      8  C   UNL d   1      21.000 -18.576  -0.876  0.00  0.00    -0.000 C 
BRANCH   8   9
ATOM      9  C   UNL d   1      20.246 -19.835  -0.532  0.00  0.00    -0.005 C 
ATOM     10  C   UNL d   1      19.534 -19.698   0.794  0.00  0.00     0.005 C 
ENDBRANCH   8   9
ENDBRANCH   7   8
ENDBRANCH   6   7
ENDBRANCH   5   6
ENDBRANCH   2   5
BRANCH   3  11
ATOM     11  C   UNL d   1      25.992 -18.207   0.837  0.00  0.00     0.098 C 
ATOM     12  C   UNL d   1      27.056 -19.256   0.605  0.00  0.00     0.014 C 
ENDBRANCH   3  11
ENDBRANCH   1   2
BRANCH   1  13
ATOM     13  C   UNL d   1      26.555 -14.041  -0.777  0.00  0.00     0.245 C 
ATOM     14  O   UNL d   1      27.478 -13.425  -1.322  0.00  0.00    -0.271 OA
ATOM     15  N   UNL d   1      26.330 -13.815   0.562  0.00  0.00    -0.354 N 
ATOM     16  H   UNL d   1      25.396 -13.926   0.932  0.00  0.00     0.162 HD
BRANCH  15  17
ATOM     17  C   UNL d   1      27.320 -13.115   1.390  0.00  0.00     0.084 C 
ATOM     18  C   UNL d   1      26.655 -11.924   2.096  0.00  0.00     0.025 C 
ATOM     19  C   UNL d   1      27.587 -11.239   3.095  0.00  0.00     0.002 C 
ATOM     20  C   UNL d   1      28.154 -12.226   4.110  0.00  0.00     0.000 C 
ATOM     21  C   UNL d   1      28.867 -13.364   3.406  0.00  0.00     0.002 C 
ATOM     22  C   UNL d   1      27.935 -14.070   2.437  0.00  0.00     0.025 C 
ENDBRANCH  15  17
ENDBRANCH   1  13
BRANCH   1  23
ATOM     23  C   UNL d   1      26.261 -15.249  -2.998  0.00  0.00     0.040 A 
ATOM     24  C   UNL d   1      25.645 -14.701  -4.155  0.00  0.00     0.080 A 
ATOM     25  C   UNL d   1      26.317 -14.600  -5.369  0.00  0.00     0.073 A 
ATOM     26  C   UNL d   1      27.644 -14.987  -5.442  0.00  0.00     0.071 A 
ATOM     27  C   UNL d   1      28.294 -15.524  -4.336  0.00  0.00     0.073 A 
ATOM     28  C   UNL d   1      27.598 -15.681  -3.131  0.00  0.00     0.080 A 
BRANCH  24  29
ATOM     29  O   UNL d   1      24.421 -14.075  -4.163  0.00  0.00    -0.360 OA
ATOM     30  H   UNL d   1      24.166 -13.905  -5.085  0.00  0.00     0.217 HD
ENDBRANCH  24  29
BRANCH  26  31
ATOM     31  O   UNL d   1      28.359 -14.817  -6.593  0.00  0.00    -0.361 OA
ATOM     32  H   UNL d   1      27.906 -14.137  -7.121  0.00  0.00     0.217 HD
ENDBRANCH  26  31
BRANCH  28  33
ATOM     33  O   UNL d   1      28.270 -16.149  -2.030  0.00  0.00    -0.360 OA
ATOM     34  H   UNL d   1      28.158 -15.495  -1.318  0.00  0.00     0.217 HD
ENDBRANCH  28  33
ENDBRANCH   1  23
TORSDOF 13
ENDMDL
MODEL 3
REMARK VINA RESULT:    -7.067      2.383      4.593
REMARK INTER + INTRA:         -14.107
REMARK INTER:                 -10.945
REMARK INTRA:                  -3.162
REMARK CONF_INDEPENDENT:        3.878
REMARK UNBOUND:                -3.162
REMARK  13 active torsions:
REMARK  status: ('A' for Active; 'I' for Inactive)
REMARK    1  A    between atoms: C_2  and  C_3 
REMARK    2  A    between atoms: C_3  and  C_4 
REMARK    3  A    between atoms: C_4  and  C_5 
REMARK    4  A    between atoms: C_5  and  C_6 
REMARK    5  A    between atoms: C_6  and  N_7 
REMARK       I    between atoms: N_7  and  C_8 
REMARK    6  A    between atoms: N_7  and  C_12 
REMARK    7  A    between atoms: C_8  and  C_10 
REMARK    8  A    between atoms: C_12  and  C_13 
REMARK    9  A    between atoms: C_12  and  C_22 
REMARK       I    between atoms: C_13  and  N_15 
REMARK   10  A    between atoms: N_15  and  C_16 
REMARK   11  A    between atoms: C_23  and  O_24 
REMARK   12  A    between atoms: C_26  and  O_27 
REMARK   13  A    between atoms: C_29  and  O_30 
ROOT
ATOM      1  C   UNL d   1      26.466 -15.557  -2.970  0.00  0.00     0.218 C 
ENDROOT
BRANCH   1   2
ATOM      2  N   UNL d   1      26.454 -15.722  -1.442  0.00  0.00    -0.334 N 
ATOM      3  C   UNL d   1      27.005 -14.708  -0.614  0.00  0.00     0.220 C 
ATOM      4  O   UNL d   1      27.519 -13.661  -1.026  0.00  0.00    -0.273 OA
BRANCH   2   5
ATOM      5  C   UNL d   1      25.945 -17.029  -0.964  0.00  0.00     0.127 C 
BRANCH   5   6
ATOM      6  C   UNL d   1      24.525 -17.355  -1.293  0.00  0.00     0.020 C 
BRANCH   6   7
ATOM      7  C   UNL d   1      23.824 -18.451  -0.564  0.00  0.00     0.002 C 
BRANCH   7   8
ATOM      8  C   UNL d   1      22.350 -18.034  -0.518  0.00  0.00    -0.000 C 
BRANCH   8   9
ATOM      9  C   UNL d   1      21.522 -19.238  -0.145  0.00  0.00    -0.005 C 
ATOM     10  C   UNL d   1      20.276 -19.325  -0.997  0.00  0.00     0.005 C 
ENDBRANCH   8   9
ENDBRANCH   7   8
ENDBRANCH   6   7
ENDBRANCH   5   6
ENDBRANCH   2   5
BRANCH   3  11
ATOM     11  C   UNL d   1      27.030 -14.805   0.896  0.00  0.00     0.098 C 
ATOM     12  C   UNL d   1      27.042 -13.473   1.611  0.00  0.00     0.014 C 
ENDBRANCH   3  11
ENDBRANCH   1   2
BRANCH   1  13
ATOM     13  C   UNL d   1      25.680 -14.307  -3.550  0.00  0.00     0.245 C 
ATOM     14  O   UNL d   1      24.744 -14.450  -4.345  0.00  0.00    -0.271 OA
ATOM     15  N   UNL d   1      26.029 -13.025  -3.188  0.00  0.00    -0.354 N 
ATOM     16  H   UNL d   1      26.443 -12.864  -2.280  0.00  0.00     0.162 HD
BRANCH  15  17
ATOM     17  C   UNL d   1      25.531 -11.864  -3.934  0.00  0.00     0.084 C 
ATOM     18  C   UNL d   1      25.905 -10.572  -3.192  0.00  0.00     0.025 C 
ATOM     19  C   UNL d   1      25.553  -9.315  -3.987  0.00  0.00     0.002 C 
ATOM     20  C   UNL d   1      26.165  -9.337  -5.384  0.00  0.00     0.000 C 
ATOM     21  C   UNL d   1      25.736 -10.584  -6.134  0.00  0.00     0.002 C 
ATOM     22  C   UNL d   1      26.115 -11.837  -5.364  0.00  0.00     0.025 C 
ENDBRANCH  15  17
ENDBRANCH   1  13
BRANCH   1  23
ATOM     23  C   UNL d   1      27.888 -15.572  -3.567  0.00  0.00     0.040 A 
ATOM     24  C   UNL d   1      29.026 -15.929  -2.795  0.00  0.00     0.080 A 
ATOM     25  C   UNL d   1      30.251 -16.230  -3.384  0.00  0.00     0.073 A 
ATOM     26  C   UNL d   1      30.353 -16.243  -4.765  0.00  0.00     0.071 A 
ATOM     27  C   UNL d   1      29.266 -15.907  -5.565  0.00  0.00     0.073 A 
ATOM     28  C   UNL d   1      28.050 -15.546  -4.969  0.00  0.00     0.080 A 
BRANCH  24  29
ATOM     29  O   UNL d   1      29.004 -16.175  -1.443  0.00  0.00    -0.360 OA
ATOM     30  H   UNL d   1      28.998 -15.324  -0.973  0.00  0.00     0.217 HD
ENDBRANCH  24  29
BRANCH  26  31
ATOM     31  O   UNL d   1      31.513 -16.622  -5.376  0.00  0.00    -0.361 OA
ATOM     32  H   UNL d   1      32.161 -15.909  -5.242  0.00  0.00     0.217 HD
ENDBRANCH  26  31
BRANCH  28  33
ATOM     33  O   UNL d   1      26.968 -15.283  -5.770  0.00  0.00    -0.360 OA
ATOM     34  H   UNL d   1      26.593 -14.431  -5.486  0.00  0.00     0.217 HD
ENDBRANCH  28  33
ENDBRANCH   1  23
TORSDOF 13
ENDMDL
MODEL 4
REMARK VINA RESULT:    -6.326      1.878      2.598
REMARK INTER + INTRA:         -13.382
REMARK INTER:                 -10.204
REMARK INTRA:                  -3.178
REMARK CONF_INDEPENDENT:        3.878
REMARK UNBOUND:                -3.178
REMARK  13 active torsions:
REMARK  status: ('A' for Active; 'I' for Inactive)
REMARK    1  A    between atoms: C_2  and  C_3 
REMARK    2  A    between atoms: C_3  and  C_4 
REMARK    3  A    between atoms: C_4  and  C_5 
REMARK    4  A    between atoms: C_5  and  C_6 
REMARK    5  A    between atoms: C_6  and  N_7 
REMARK       I    between atoms: N_7  and  C_8 
REMARK    6  A    between atoms: N_7  and  C_12 
REMARK    7  A    between atoms: C_8  and  C_10 
REMARK    8  A    between atoms: C_12  and  C_13 
REMARK    9  A    between atoms: C_12  and  C_22 
REMARK       I    between atoms: C_13  and  N_15 
REMARK   10  A    between atoms: N_15  and  C_16 
REMARK   11  A    between atoms: C_23  and  O_24 
REMARK   12  A    between atoms: C_26  and  O_27 
REMARK   13  A    between atoms: C_29  and  O_30 
ROOT
ATOM      1  C   UNL d   1      26.481 -15.352  -0.263  0.00  0.00     0.218 C 
ENDROOT
BRANCH   1   2
ATOM      2  N   UNL d   1      27.550 -16.379  -0.669  0.00  0.00    -0.334 N 
ATOM      3  C   UNL d   1      28.775 -15.944  -1.239  0.00  0.00     0.220 C 
ATOM      4  O   UNL d   1      29.074 -14.761  -1.451  0.00  0.00    -0.273 OA
BRANCH   2   5
ATOM      5  C   UNL d   1      27.135 -17.795  -0.520  0.00  0.00     0.127 C 
BRANCH   5   6
ATOM      6  C   UNL d   1      25.928 -18.054   0.321  0.00  0.00     0.020 C 
BRANCH   6   7
ATOM      7  C   UNL d   1      24.680 -18.575  -0.308  0.00  0.00     0.002 C 
BRANCH   7   8
ATOM      8  C   UNL d   1      23.618 -17.498  -0.061  0.00  0.00    -0.000 C 
BRANCH   8   9
ATOM      9  C   UNL d   1      22.404 -17.821  -0.895  0.00  0.00    -0.005 C 
ATOM     10  C   UNL d   1      21.826 -19.166  -0.516  0.00  0.00     0.005 C 
ENDBRANCH   8   9
ENDBRANCH   7   8
ENDBRANCH   6   7
ENDBRANCH   5   6
ENDBRANCH   2   5
BRANCH   3  11
ATOM     11  C   UNL d   1      29.869 -16.899  -1.664  0.00  0.00     0.098 C 
ATOM     12  C   UNL d   1      30.644 -17.516  -0.522  0.00  0.00     0.014 C 
ENDBRANCH   3  11
ENDBRANCH   1   2
BRANCH   1  13
ATOM     13  C   UNL d   1      26.810 -14.459   1.007  0.00  0.00     0.245 C 
ATOM     14  O   UNL d   1      26.280 -13.353   1.168  0.00  0.00    -0.271 OA
ATOM     15  N   UNL d   1      27.705 -14.891   1.960  0.00  0.00    -0.354 N 
ATOM     16  H   UNL d   1      27.820 -15.883   2.116  0.00  0.00     0.162 HD
BRANCH  15  17
ATOM     17  C   UNL d   1      28.248 -13.968   2.964  0.00  0.00     0.084 C 
ATOM     18  C   UNL d   1      27.410 -14.048   4.249  0.00  0.00     0.025 C 
ATOM     19  C   UNL d   1      28.009 -13.229   5.392  0.00  0.00     0.002 C 
ATOM     20  C   UNL d   1      29.460 -13.610   5.664  0.00  0.00     0.000 C 
ATOM     21  C   UNL d   1      30.294 -13.463   4.406  0.00  0.00     0.002 C 
ATOM     22  C   UNL d   1      29.724 -14.303   3.277  0.00  0.00     0.025 C 
ENDBRANCH  15  17
ENDBRANCH   1  13
BRANCH   1  23
ATOM     23  C   UNL d   1      26.060 -14.429  -1.425  0.00  0.00     0.040 A 
ATOM     24  C   UNL d   1      26.687 -13.175  -1.656  0.00  0.00     0.080 A 
ATOM     25  C   UNL d   1      26.526 -12.481  -2.852  0.00  0.00     0.073 A 
ATOM     26  C   UNL d   1      25.783 -13.052  -3.871  0.00  0.00     0.071 A 
ATOM     27  C   UNL d   1      25.155 -14.280  -3.696  0.00  0.00     0.073 A 
ATOM     28  C   UNL d   1      25.269 -14.950  -2.470  0.00  0.00     0.080 A 
BRANCH  24  29
ATOM     29  O   UNL d   1      27.625 -12.608  -0.827  0.00  0.00    -0.360 OA
ATOM     30  H   UNL d   1      27.993 -13.302  -0.255  0.00  0.00     0.217 HD
ENDBRANCH  24  29
BRANCH  26  31
ATOM     31  O   UNL d   1      25.680 -12.441  -5.088  0.00  0.00    -0.361 OA
ATOM     32  H   UNL d   1      24.780 -12.079  -5.159  0.00  0.00     0.217 HD
ENDBRANCH  26  31
BRANCH  28  33
ATOM     33  O   UNL d   1      24.700 -16.191  -2.334  0.00  0.00    -0.360 OA
ATOM     34  H   UNL d   1      25.105 -16.774  -3.000  0.00  0.00     0.217 HD
ENDBRANCH  28  33
ENDBRANCH   1  23
TORSDOF 13
ENDMDL
MODEL 5
REMARK VINA RESULT:    -6.194      2.159      6.898
REMARK INTER + INTRA:         -13.171
REMARK INTER:                 -10.072
REMARK INTRA:                  -3.099
REMARK CONF_INDEPENDENT:        3.878
REMARK UNBOUND:                -3.099
REMARK  13 active torsions:
REMARK  status: ('A' for Active; 'I' for Inactive)
REMARK    1  A    between atoms: C_2  and  C_3 
REMARK    2  A    between atoms: C_3  and  C_4 
REMARK    3  A    between atoms: C_4  and  C_5 
REMARK    4  A    between atoms: C_5  and  C_6 
REMARK    5  A    between atoms: C_6  and  N_7 
REMARK       I    between atoms: N_7  and  C_8 
REMARK    6  A    between atoms: N_7  and  C_12 
REMARK    7  A    between atoms: C_8  and  C_10 
REMARK    8  A    between atoms: C_12  and  C_13 
REMARK    9  A    between atoms: C_12  and  C_22 
REMARK       I    between atoms: C_13  and  N_15 
REMARK   10  A    between atoms: N_15  and  C_16 
REMARK   11  A    between atoms: C_23  and  O_24 
REMARK   12  A    between atoms: C_26  and  O_27 
REMARK   13  A    between atoms: C_29  and  O_30 
ROOT
ATOM      1  C   UNL d   1      26.061 -15.408  -1.298  0.00  0.00     0.218 C 
ENDROOT
BRANCH   1   2
ATOM      2  N   UNL d   1      27.251 -15.486  -0.330  0.00  0.00    -0.334 N 
ATOM      3  C   UNL d   1      28.400 -16.247  -0.674  0.00  0.00     0.220 C 
ATOM      4  O   UNL d   1      28.535 -16.884  -1.727  0.00  0.00    -0.273 OA
BRANCH   2   5
ATOM      5  C   UNL d   1      27.033 -14.817   0.976  0.00  0.00     0.127 C 
BRANCH   5   6
ATOM      6  C   UNL d   1      27.997 -13.739   1.345  0.00  0.00     0.020 C 
BRANCH   6   7
ATOM      7  C   UNL d   1      28.142 -13.327   2.772  0.00  0.00     0.002 C 
BRANCH   7   8
ATOM      8  C   UNL d   1      28.154 -14.632   3.575  0.00  0.00    -0.000 C 
BRANCH   8   9
ATOM      9  C   UNL d   1      27.771 -14.323   5.000  0.00  0.00    -0.005 C 
ATOM     10  C   UNL d   1      28.975 -14.385   5.912  0.00  0.00     0.005 C 
ENDBRANCH   8   9
ENDBRANCH   7   8
ENDBRANCH   6   7
ENDBRANCH   5   6
ENDBRANCH   2   5
BRANCH   3  11
ATOM     11  C   UNL d   1      29.606 -16.370   0.231  0.00  0.00     0.098 C 
ATOM     12  C   UNL d   1      30.864 -15.728  -0.308  0.00  0.00     0.014 C 
ENDBRANCH   3  11
ENDBRANCH   1   2
BRANCH   1  13
ATOM     13  C   UNL d   1      26.413 -15.322  -2.843  0.00  0.00     0.245 C 
ATOM     14  O   UNL d   1      25.526 -15.320  -3.704  0.00  0.00    -0.271 OA
ATOM     15  N   UNL d   1      27.722 -15.256  -3.264  0.00  0.00    -0.354 N 
ATOM     16  H   UNL d   1      28.415 -14.833  -2.662  0.00  0.00     0.162 HD
BRANCH  15  17
ATOM     17  C   UNL d   1      28.079 -15.484  -4.670  0.00  0.00     0.084 C 
ATOM     18  C   UNL d   1      28.065 -14.150  -5.431  0.00  0.00     0.025 C 
ATOM     19  C   UNL d   1      28.576 -14.286  -6.865  0.00  0.00     0.002 C 
ATOM     20  C   UNL d   1      29.958 -14.927  -6.915  0.00  0.00     0.000 C 
ATOM     21  C   UNL d   1      29.947 -16.275  -6.220  0.00  0.00     0.002 C 
ATOM     22  C   UNL d   1      29.474 -16.139  -4.784  0.00  0.00     0.025 C 
ENDBRANCH  15  17
ENDBRANCH   1  13
BRANCH   1  23
ATOM     23  C   UNL d   1      25.034 -16.539  -1.084  0.00  0.00     0.040 A 
ATOM     24  C   UNL d   1      25.342 -17.702  -0.328  0.00  0.00     0.080 A 
ATOM     25  C   UNL d   1      24.353 -18.575   0.116  0.00  0.00     0.073 A 
ATOM     26  C   UNL d   1      23.024 -18.274  -0.132  0.00  0.00     0.071 A 
ATOM     27  C   UNL d   1      22.671 -17.145  -0.862  0.00  0.00     0.073 A 
ATOM     28  C   UNL d   1      23.672 -16.299  -1.359  0.00  0.00     0.080 A 
BRANCH  24  29
ATOM     29  O   UNL d   1      26.586 -17.996   0.179  0.00  0.00    -0.360 OA
ATOM     30  H   UNL d   1      27.201 -18.117  -0.562  0.00  0.00     0.217 HD
ENDBRANCH  24  29
BRANCH  26  31
ATOM     31  O   UNL d   1      22.025 -19.060   0.367  0.00  0.00    -0.361 OA
ATOM     32  H   UNL d   1      22.407 -19.934   0.557  0.00  0.00     0.217 HD
ENDBRANCH  26  31
BRANCH  28  33
ATOM     33  O   UNL d   1      23.307 -15.153  -2.020  0.00  0.00    -0.360 OA
ATOM     34  H   UNL d   1      23.783 -15.140  -2.869  0.00  0.00     0.217 HD
ENDBRANCH  28  33
ENDBRANCH   1  23
TORSDOF 13
ENDMDL
MODEL 6
REMARK VINA RESULT:    -5.848      2.812      6.642
REMARK INTER + INTRA:         -12.907
REMARK INTER:                  -9.726
REMARK INTRA:                  -3.181
REMARK CONF_INDEPENDENT:        3.878
REMARK UNBOUND:                -3.181
REMARK  13 active torsions:
REMARK  status: ('A' for Active; 'I' for Inactive)
REMARK    1  A    between atoms: C_2  and  C_3 
REMARK    2  A    between atoms: C_3  and  C_4 
REMARK    3  A    between atoms: C_4  and  C_5 
REMARK    4  A    between atoms: C_5  and  C_6 
REMARK    5  A    between atoms: C_6  and  N_7 
REMARK       I    between atoms: N_7  and  C_8 
REMARK    6  A    between atoms: N_7  and  C_12 
REMARK    7  A    between atoms: C_8  and  C_10 
REMARK    8  A    between atoms: C_12  and  C_13 
REMARK    9  A    between atoms: C_12  and  C_22 
REMARK       I    between atoms: C_13  and  N_15 
REMARK   10  A    between atoms: N_15  and  C_16 
REMARK   11  A    between atoms: C_23  and  O_24 
REMARK   12  A    between atoms: C_26  and  O_27 
REMARK   13  A    between atoms: C_29  and  O_30 
ROOT
ATOM      1  C   UNL d   1      27.260 -15.557  -3.293  0.00  0.00     0.218 C 
ENDROOT
BRANCH   1   2
ATOM      2  N   UNL d   1      26.257 -14.422  -3.032  0.00  0.00    -0.334 N 
ATOM      3  C   UNL d   1      26.473 -13.138  -3.599  0.00  0.00     0.220 C 
ATOM      4  O   UNL d   1      27.438 -12.835  -4.313  0.00  0.00    -0.273 OA
BRANCH   2   5
ATOM      5  C   UNL d   1      25.171 -14.762  -2.082  0.00  0.00     0.127 C 
BRANCH   5   6
ATOM      6  C   UNL d   1      24.761 -16.197  -2.021  0.00  0.00     0.020 C 
BRANCH   6   7
ATOM      7  C   UNL d   1      23.862 -16.668  -0.927  0.00  0.00     0.002 C 
BRANCH   7   8
ATOM      8  C   UNL d   1      24.176 -18.159  -0.755  0.00  0.00    -0.000 C 
BRANCH   8   9
ATOM      9  C   UNL d   1      22.934 -18.856  -0.261  0.00  0.00    -0.005 C 
ATOM     10  C   UNL d   1      21.693 -18.272  -0.896  0.00  0.00     0.005 C 
ENDBRANCH   8   9
ENDBRANCH   7   8
ENDBRANCH   6   7
ENDBRANCH   5   6
ENDBRANCH   2   5
BRANCH   3  11
ATOM     11  C   UNL d   1      25.530 -11.975  -3.382  0.00  0.00     0.098 C 
ATOM     12  C   UNL d   1      26.056 -10.641  -3.861  0.00  0.00     0.014 C 
ENDBRANCH   3  11
ENDBRANCH   1   2
BRANCH   1  13
ATOM     13  C   UNL d   1      27.947 -15.575  -4.723  0.00  0.00     0.245 C 
ATOM     14  O   UNL d   1      27.283 -15.430  -5.756  0.00  0.00    -0.271 OA
ATOM     15  N   UNL d   1      29.305 -15.764  -4.850  0.00  0.00    -0.354 N 
ATOM     16  H   UNL d   1      29.918 -15.463  -4.105  0.00  0.00     0.162 HD
BRANCH  15  17
ATOM     17  C   UNL d   1      29.908 -16.088  -6.149  0.00  0.00     0.084 C 
ATOM     18  C   UNL d   1      31.045 -15.101  -6.453  0.00  0.00     0.025 C 
ATOM     19  C   UNL d   1      31.820 -15.470  -7.718  0.00  0.00     0.002 C 
ATOM     20  C   UNL d   1      32.342 -16.902  -7.665  0.00  0.00     0.000 C 
ATOM     21  C   UNL d   1      31.203 -17.876  -7.432  0.00  0.00     0.002 C 
ATOM     22  C   UNL d   1      30.451 -17.535  -6.157  0.00  0.00     0.025 C 
ENDBRANCH  15  17
ENDBRANCH   1  13
BRANCH   1  23
ATOM     23  C   UNL d   1      28.357 -15.653  -2.213  0.00  0.00     0.040 A 
ATOM     24  C   UNL d   1      29.383 -14.677  -2.092  0.00  0.00     0.080 A 
ATOM     25  C   UNL d   1      30.187 -14.591  -0.959  0.00  0.00     0.073 A 
ATOM     26  C   UNL d   1      29.946 -15.439   0.108  0.00  0.00     0.071 A 
ATOM     27  C   UNL d   1      28.950 -16.407   0.041  0.00  0.00     0.073 A 
ATOM     28  C   UNL d   1      28.181 -16.532  -1.123  0.00  0.00     0.080 A 
BRANCH  24  29
ATOM     29  O   UNL d   1      29.577 -13.638  -2.970  0.00  0.00    -0.360 OA
ATOM     30  H   UNL d   1      28.870 -13.660  -3.637  0.00  0.00     0.217 HD
ENDBRANCH  24  29
BRANCH  26  31
ATOM     31  O   UNL d   1      30.657 -15.321   1.268  0.00  0.00    -0.361 OA
ATOM     32  H   UNL d   1      30.187 -15.828   1.952  0.00  0.00     0.217 HD
ENDBRANCH  26  31
BRANCH  28  33
ATOM     33  O   UNL d   1      27.158 -17.446  -1.150  0.00  0.00    -0.360 OA
ATOM     34  H   UNL d   1      27.500 -18.281  -0.786  0.00  0.00     0.217 HD
ENDBRANCH  28  33
ENDBRANCH   1  23
TORSDOF 13
ENDMDL
MODEL 7
REMARK VINA RESULT:    -5.440      3.200      6.483
REMARK INTER + INTRA:         -13.115
REMARK INTER:                  -9.318
REMARK INTRA:                  -3.797
REMARK CONF_INDEPENDENT:        3.878
REMARK UNBOUND:                -3.797
REMARK  13 active torsions:
REMARK  status: ('A' for Active; 'I' for Inactive)
REMARK    1  A    between atoms: C_2  and  C_3 
REMARK    2  A    between atoms: C_3  and  C_4 
REMARK    3  A    between atoms: C_4  and  C_5 
REMARK    4  A    between atoms: C_5  and  C_6 
REMARK    5  A    between atoms: C_6  and  N_7 
REMARK       I    between atoms: N_7  and  C_8 
REMARK    6  A    between atoms: N_7  and  C_12 
REMARK    7  A    between atoms: C_8  and  C_10 
REMARK    8  A    between atoms: C_12  and  C_13 
REMARK    9  A    between atoms: C_12  and  C_22 
REMARK       I    between atoms: C_13  and  N_15 
REMARK   10  A    between atoms: N_15  and  C_16 
REMARK   11  A    between atoms: C_23  and  O_24 
REMARK   12  A    between atoms: C_26  and  O_27 
REMARK   13  A    between atoms: C_29  and  O_30 
ROOT
ATOM      1  C   UNL d   1      26.371 -13.257  -4.545  0.00  0.00     0.218 C 
ENDROOT
BRANCH   1   2
ATOM      2  N   UNL d   1      27.781 -13.751  -4.901  0.00  0.00    -0.334 N 
ATOM      3  C   UNL d   1      27.982 -15.098  -5.304  0.00  0.00     0.220 C 
ATOM      4  O   UNL d   1      27.088 -15.949  -5.395  0.00  0.00    -0.273 OA
BRANCH   2   5
ATOM      5  C   UNL d   1      28.861 -12.760  -4.676  0.00  0.00     0.127 C 
BRANCH   5   6
ATOM      6  C   UNL d   1      29.701 -12.951  -3.457  0.00  0.00     0.020 C 
BRANCH   6   7
ATOM      7  C   UNL d   1      29.299 -13.951  -2.425  0.00  0.00     0.002 C 
BRANCH   7   8
ATOM      8  C   UNL d   1      30.582 -14.708  -2.068  0.00  0.00    -0.000 C 
BRANCH   8   9
ATOM      9  C   UNL d   1      30.477 -15.186  -0.641  0.00  0.00    -0.005 C 
ATOM     10  C   UNL d   1      29.871 -16.569  -0.574  0.00  0.00     0.005 C 
ENDBRANCH   8   9
ENDBRANCH   7   8
ENDBRANCH   6   7
ENDBRANCH   5   6
ENDBRANCH   2   5
BRANCH   3  11
ATOM     11  C   UNL d   1      29.342 -15.653  -5.666  0.00  0.00     0.098 C 
ATOM     12  C   UNL d   1      29.865 -16.707  -4.716  0.00  0.00     0.014 C 
ENDBRANCH   3  11
ENDBRANCH   1   2
BRANCH   1  13
ATOM     13  C   UNL d   1      25.674 -13.953  -3.301  0.00  0.00     0.245 C 
ATOM     14  O   UNL d   1      24.780 -13.383  -2.665  0.00  0.00    -0.271 OA
ATOM     15  N   UNL d   1      26.056 -15.211  -2.893  0.00  0.00    -0.354 N 
ATOM     16  H   UNL d   1      26.423 -15.862  -3.573  0.00  0.00     0.162 HD
BRANCH  15  17
ATOM     17  C   UNL d   1      25.651 -15.739  -1.584  0.00  0.00     0.084 C 
ATOM     18  C   UNL d   1      24.252 -16.367  -1.689  0.00  0.00     0.025 C 
ATOM     19  C   UNL d   1      23.828 -17.075  -0.403  0.00  0.00     0.002 C 
ATOM     20  C   UNL d   1      24.857 -18.109   0.041  0.00  0.00     0.000 C 
ATOM     21  C   UNL d   1      26.221 -17.467   0.208  0.00  0.00     0.002 C 
ATOM     22  C   UNL d   1      26.663 -16.792  -1.079  0.00  0.00     0.025 C 
ENDBRANCH  15  17
ENDBRANCH   1  13
BRANCH   1  23
ATOM     23  C   UNL d   1      26.296 -11.726  -4.364  0.00  0.00     0.040 A 
ATOM     24  C   UNL d   1      25.656 -10.886  -5.314  0.00  0.00     0.080 A 
ATOM     25  C   UNL d   1      25.325  -9.565  -5.024  0.00  0.00     0.073 A 
ATOM     26  C   UNL d   1      25.571  -9.069  -3.755  0.00  0.00     0.071 A 
ATOM     27  C   UNL d   1      26.190  -9.854  -2.788  0.00  0.00     0.073 A 
ATOM     28  C   UNL d   1      26.576 -11.164  -3.101  0.00  0.00     0.080 A 
BRANCH  24  29
ATOM     29  O   UNL d   1      25.154 -11.314  -6.520  0.00  0.00    -0.360 OA
ATOM     30  H   UNL d   1      24.300 -11.750  -6.363  0.00  0.00     0.217 HD
ENDBRANCH  24  29
BRANCH  26  31
ATOM     31  O   UNL d   1      25.177  -7.808  -3.410  0.00  0.00    -0.361 OA
ATOM     32  H   UNL d   1      24.428  -7.893  -2.794  0.00  0.00     0.217 HD
ENDBRANCH  26  31
BRANCH  28  33
ATOM     33  O   UNL d   1      27.125 -11.949  -2.118  0.00  0.00    -0.360 OA
ATOM     34  H   UNL d   1      26.402 -12.456  -1.710  0.00  0.00     0.217 HD
ENDBRANCH  28  33
ENDBRANCH   1  23
TORSDOF 13
ENDMDL
MODEL 8
REMARK VINA RESULT:    -5.187      2.184      4.295
REMARK INTER + INTRA:         -13.091
REMARK INTER:                  -9.064
REMARK INTRA:                  -4.026
REMARK CONF_INDEPENDENT:        3.878
REMARK UNBOUND:                -4.026
REMARK  13 active torsions:
REMARK  status: ('A' for Active; 'I' for Inactive)
REMARK    1  A    between atoms: C_2  and  C_3 
REMARK    2  A    between atoms: C_3  and  C_4 
REMARK    3  A    between atoms: C_4  and  C_5 
REMARK    4  A    between atoms: C_5  and  C_6 
REMARK    5  A    between atoms: C_6  and  N_7 
REMARK       I    between atoms: N_7  and  C_8 
REMARK    6  A    between atoms: N_7  and  C_12 
REMARK    7  A    between atoms: C_8  and  C_10 
REMARK    8  A    between atoms: C_12  and  C_13 
REMARK    9  A    between atoms: C_12  and  C_22 
REMARK       I    between atoms: C_13  and  N_15 
REMARK   10  A    between atoms: N_15  and  C_16 
REMARK   11  A    between atoms: C_23  and  O_24 
REMARK   12  A    between atoms: C_26  and  O_27 
REMARK   13  A    between atoms: C_29  and  O_30 
ROOT
ATOM      1  C   UNL d   1      27.287 -14.748  -0.571  0.00  0.00     0.218 C 
ENDROOT
BRANCH   1   2
ATOM      2  N   UNL d   1      26.418 -15.988  -0.829  0.00  0.00    -0.334 N 
ATOM      3  C   UNL d   1      26.387 -17.045   0.119  0.00  0.00     0.220 C 
ATOM      4  O   UNL d   1      27.027 -17.062   1.179  0.00  0.00    -0.273 OA
BRANCH   2   5
ATOM      5  C   UNL d   1      25.749 -16.011  -2.152  0.00  0.00     0.127 C 
BRANCH   5   6
ATOM      6  C   UNL d   1      25.195 -14.715  -2.644  0.00  0.00     0.020 C 
BRANCH   6   7
ATOM      7  C   UNL d   1      25.157 -14.430  -4.108  0.00  0.00     0.002 C 
BRANCH   7   8
ATOM      8  C   UNL d   1      26.340 -15.200  -4.705  0.00  0.00    -0.000 C 
BRANCH   8   9
ATOM      9  C   UNL d   1      27.354 -14.205  -5.211  0.00  0.00    -0.005 C 
ATOM     10  C   UNL d   1      28.426 -14.890  -6.027  0.00  0.00     0.005 C 
ENDBRANCH   8   9
ENDBRANCH   7   8
ENDBRANCH   6   7
ENDBRANCH   5   6
ENDBRANCH   2   5
BRANCH   3  11
ATOM     11  C   UNL d   1      25.557 -18.295  -0.070  0.00  0.00     0.098 C 
ATOM     12  C   UNL d   1      24.099 -18.041  -0.378  0.00  0.00     0.014 C 
ENDBRANCH   3  11
ENDBRANCH   1   2
BRANCH   1  13
ATOM     13  C   UNL d   1      27.347 -14.228   0.927  0.00  0.00     0.245 C 
ATOM     14  O   UNL d   1      26.575 -13.353   1.334  0.00  0.00    -0.271 OA
ATOM     15  N   UNL d   1      28.273 -14.735   1.812  0.00  0.00    -0.354 N 
ATOM     16  H   UNL d   1      28.601 -15.684   1.694  0.00  0.00     0.162 HD
BRANCH  15  17
ATOM     17  C   UNL d   1      28.548 -14.065   3.089  0.00  0.00     0.084 C 
ATOM     18  C   UNL d   1      27.474 -14.450   4.118  0.00  0.00     0.025 C 
ATOM     19  C   UNL d   1      27.780 -13.912   5.515  0.00  0.00     0.002 C 
ATOM     20  C   UNL d   1      29.166 -14.330   5.993  0.00  0.00     0.000 C 
ATOM     21  C   UNL d   1      30.228 -13.887   5.003  0.00  0.00     0.002 C 
ATOM     22  C   UNL d   1      29.947 -14.449   3.621  0.00  0.00     0.025 C 
ENDBRANCH  15  17
ENDBRANCH   1  13
BRANCH   1  23
ATOM     23  C   UNL d   1      28.727 -14.900  -1.103  0.00  0.00     0.040 A 
ATOM     24  C   UNL d   1      29.526 -16.036  -0.802  0.00  0.00     0.080 A 
ATOM     25  C   UNL d   1      30.693 -16.323  -1.504  0.00  0.00     0.073 A 
ATOM     26  C   UNL d   1      31.059 -15.514  -2.567  0.00  0.00     0.071 A 
ATOM     27  C   UNL d   1      30.308 -14.395  -2.905  0.00  0.00     0.073 A 
ATOM     28  C   UNL d   1      29.166 -14.074  -2.159  0.00  0.00     0.080 A 
BRANCH  24  29
ATOM     29  O   UNL d   1      29.161 -17.036   0.068  0.00  0.00    -0.360 OA
ATOM     30  H   UNL d   1      29.183 -16.683   0.973  0.00  0.00     0.217 HD
ENDBRANCH  24  29
BRANCH  26  31
ATOM     31  O   UNL d   1      32.148 -15.819  -3.333  0.00  0.00    -0.361 OA
ATOM     32  H   UNL d   1      32.383 -15.022  -3.838  0.00  0.00     0.217 HD
ENDBRANCH  26  31
BRANCH  28  33
ATOM     33  O   UNL d   1      28.397 -13.005  -2.546  0.00  0.00    -0.360 OA
ATOM     34  H   UNL d   1      28.936 -12.455  -3.140  0.00  0.00     0.217 HD
ENDBRANCH  28  33
ENDBRANCH   1  23
TORSDOF 13
ENDMDL
MODEL 9
REMARK VINA RESULT:    -4.843      2.002      6.319
REMARK INTER + INTRA:         -12.963
REMARK INTER:                  -8.720
REMARK INTRA:                  -4.243
REMARK CONF_INDEPENDENT:        3.878
REMARK UNBOUND:                -4.243
REMARK  13 active torsions:
REMARK  status: ('A' for Active; 'I' for Inactive)
REMARK    1  A    between atoms: C_2  and  C_3 
REMARK    2  A    between atoms: C_3  and  C_4 
REMARK    3  A    between atoms: C_4  and  C_5 
REMARK    4  A    between atoms: C_5  and  C_6 
REMARK    5  A    between atoms: C_6  and  N_7 
REMARK       I    between atoms: N_7  and  C_8 
REMARK    6  A    between atoms: N_7  and  C_12 
REMARK    7  A    between atoms: C_8  and  C_10 
REMARK    8  A    between atoms: C_12  and  C_13 
REMARK    9  A    between atoms: C_12  and  C_22 
REMARK       I    between atoms: C_13  and  N_15 
REMARK   10  A    between atoms: N_15  and  C_16 
REMARK   11  A    between atoms: C_23  and  O_24 
REMARK   12  A    between atoms: C_26  and  O_27 
REMARK   13  A    between atoms: C_29  and  O_30 
ROOT
ATOM      1  C   UNL d   1      27.105 -15.172  -1.443  0.00  0.00     0.218 C 
ENDROOT
BRANCH   1   2
ATOM      2  N   UNL d   1      28.499 -15.782  -1.659  0.00  0.00    -0.334 N 
ATOM      3  C   UNL d   1      28.831 -17.028  -1.065  0.00  0.00     0.220 C 
ATOM      4  O   UNL d   1      28.068 -17.697  -0.355  0.00  0.00    -0.273 OA
BRANCH   2   5
ATOM      5  C   UNL d   1      29.442 -14.919  -2.411  0.00  0.00     0.127 C 
BRANCH   5   6
ATOM      6  C   UNL d   1      29.208 -14.794  -3.880  0.00  0.00     0.020 C 
BRANCH   6   7
ATOM      7  C   UNL d   1      28.114 -15.574  -4.529  0.00  0.00     0.002 C 
BRANCH   7   8
ATOM      8  C   UNL d   1      27.185 -14.529  -5.157  0.00  0.00    -0.000 C 
BRANCH   8   9
ATOM      9  C   UNL d   1      25.938 -14.428  -4.315  0.00  0.00    -0.005 C 
ATOM     10  C   UNL d   1      25.307 -13.061  -4.441  0.00  0.00     0.005 C 
ENDBRANCH   8   9
ENDBRANCH   7   8
ENDBRANCH   6   7
ENDBRANCH   5   6
ENDBRANCH   2   5
BRANCH   3  11
ATOM     11  C   UNL d   1      30.183 -17.684  -1.233  0.00  0.00     0.098 C 
ATOM     12  C   UNL d   1      31.276 -17.105  -0.363  0.00  0.00     0.014 C 
ENDBRANCH   3  11
ENDBRANCH   1   2
BRANCH   1  13
ATOM     13  C   UNL d   1      25.896 -16.196  -1.348  0.00  0.00     0.245 C 
ATOM     14  O   UNL d   1      25.239 -16.507  -2.348  0.00  0.00    -0.271 OA
ATOM     15  N   UNL d   1      25.541 -16.757  -0.141  0.00  0.00    -0.354 N 
ATOM     16  H   UNL d   1      26.248 -16.891   0.568  0.00  0.00     0.162 HD
BRANCH  15  17
ATOM     17  C   UNL d   1      24.259 -17.452   0.024  0.00  0.00     0.084 C 
ATOM     18  C   UNL d   1      23.153 -16.680  -0.711  0.00  0.00     0.025 C 
ATOM     19  C   UNL d   1      21.819 -17.426  -0.713  0.00  0.00     0.002 C 
ATOM     20  C   UNL d   1      21.959 -18.838  -1.270  0.00  0.00     0.000 C 
ATOM     21  C   UNL d   1      23.006 -19.616  -0.495  0.00  0.00     0.002 C 
ATOM     22  C   UNL d   1      24.343 -18.896  -0.520  0.00  0.00     0.025 C 
ENDBRANCH  15  17
ENDBRANCH   1  13
BRANCH   1  23
ATOM     23  C   UNL d   1      27.045 -14.218  -0.232  0.00  0.00     0.040 A 
ATOM     24  C   UNL d   1      27.326 -14.658   1.089  0.00  0.00     0.080 A 
ATOM     25  C   UNL d   1      27.563 -13.763   2.128  0.00  0.00     0.073 A 
ATOM     26  C   UNL d   1      27.588 -12.405   1.860  0.00  0.00     0.071 A 
ATOM     27  C   UNL d   1      27.326 -11.925   0.582  0.00  0.00     0.073 A 
ATOM     28  C   UNL d   1      27.028 -12.824  -0.451  0.00  0.00     0.080 A 
BRANCH  24  29
ATOM     29  O   UNL d   1      27.555 -15.966   1.442  0.00  0.00    -0.360 OA
ATOM     30  H   UNL d   1      28.464 -16.200   1.190  0.00  0.00     0.217 HD
ENDBRANCH  24  29
BRANCH  26  31
ATOM     31  O   UNL d   1      27.907 -11.506   2.836  0.00  0.00    -0.361 OA
ATOM     32  H   UNL d   1      27.121 -10.957   2.998  0.00  0.00     0.217 HD
ENDBRANCH  26  31
BRANCH  28  33
ATOM     33  O   UNL d   1      26.838 -12.340  -1.721  0.00  0.00    -0.360 OA
ATOM     34  H   UNL d   1      27.312 -11.493  -1.787  0.00  0.00     0.217 HD
ENDBRANCH  28  33
ENDBRANCH   1  23
TORSDOF 13
ENDMDL
