MODEL 1
REMARK VINA RESULT:   -10.750      0.000      0.000
REMARK INTER + INTRA:         -13.635
REMARK INTER:                 -13.136
REMARK INTRA:                  -0.499
REMARK CONF_INDEPENDENT:        2.386
REMARK UNBOUND:                -0.499
REMARK  8 active torsions:
REMARK  status: ('A' for Active; 'I' for Inactive)
REMARK    1  A    between atoms: O_2  and  C_3 
REMARK    2  A    between atoms: C_3  and  C_5 
REMARK    3  A    between atoms: C_8  and  C_9 
REMARK    4  A    between atoms: C_9  and  N_10 
REMARK       I    between atoms: N_10  and  C_11 
REMARK       I    between atoms: C_11  and  N_13 
REMARK    5  A    between atoms: N_13  and  C_14 
REMARK    6  A    between atoms: C_14  and  C_16 
REMARK    7  A    between atoms: C_19  and  N_20 
REMARK       I    between atoms: N_20  and  C_21 
REMARK       I    between atoms: C_21  and  N_23 
REMARK    8  A    between atoms: N_23  and  C_24 
ROOT
ATOM      1  C   UNL d   1      28.324 -15.850  -0.412  0.00  0.00     0.115 C 
ATOM      2  C   UNL d   1      29.426 -16.825  -0.892  0.00  0.00     0.037 C 
ENDROOT
BRANCH   1   3
ATOM      3  N   UNL d   1      28.489 -15.605   1.026  0.00  0.00    -0.335 N 
ATOM      4  C   UNL d   1      27.786 -14.609   1.668  0.00  0.00     0.316 C 
ATOM      5  N   UNL d   1      28.099 -14.489   2.993  0.00  0.00    -0.339 N 
ATOM      6  O   UNL d   1      26.959 -13.889   1.125  0.00  0.00    -0.247 OA
ATOM      7  H   UNL d   1      28.811 -15.090   3.358  0.00  0.00     0.164 HD
ATOM      8  H   UNL d   1      29.189 -16.130   1.524  0.00  0.00     0.165 HD
BRANCH   5   9
ATOM      9  C   UNL d   1      27.489 -13.459   3.829  0.00  0.00     0.162 C 
BRANCH   9  10
ATOM     10  C   UNL d   1      27.975 -13.407   5.273  0.00  0.00    -0.040 A 
ATOM     11  C   UNL d   1      27.779 -12.241   6.039  0.00  0.00     0.010 A 
ATOM     12  C   UNL d   1      28.326 -12.121   7.331  0.00  0.00     0.018 A 
ATOM     13  C   UNL d   1      29.020 -13.192   7.909  0.00  0.00     0.039 A 
ATOM     14  C   UNL d   1      29.186 -14.364   7.175  0.00  0.00     0.018 A 
ATOM     15  C   UNL d   1      28.663 -14.467   5.881  0.00  0.00     0.010 A 
BRANCH  13  16
ATOM     16  C   UNL d   1      29.430 -13.132   9.332  0.00  0.00     0.292 C 
ATOM     17  O   UNL d   1      30.600 -13.269   9.688  0.00  0.00    -0.259 OA
BRANCH  16  18
ATOM     18  O   UNL d   1      28.375 -12.902  10.152  0.00  0.00    -0.323 OA
ATOM     19  C   UNL d   1      27.787 -14.092  10.698  0.00  0.00     0.213 C 
ENDBRANCH  16  18
ENDBRANCH  13  16
ENDBRANCH   9  10
ENDBRANCH   5   9
ENDBRANCH   1   3
BRANCH   1  20
ATOM     20  C   UNL d   1      26.935 -16.400  -0.781  0.00  0.00    -0.036 A 
ATOM     21  C   UNL d   1      26.131 -15.942  -1.838  0.00  0.00     0.011 A 
ATOM     22  C   UNL d   1      24.801 -16.424  -2.025  0.00  0.00     0.030 A 
ATOM     23  C   UNL d   1      24.285 -17.455  -1.226  0.00  0.00     0.036 A 
ATOM     24  C   UNL d   1      25.114 -17.920  -0.215  0.00  0.00     0.030 A 
ATOM     25  C   UNL d   1      26.401 -17.442  -0.020  0.00  0.00     0.011 A 
BRANCH  23  26
ATOM     26  N   UNL d   1      22.995 -18.042  -1.460  0.00  0.00    -0.309 N 
ATOM     27  C   UNL d   1      22.215 -18.590  -0.443  0.00  0.00     0.325 C 
ATOM     28  O   UNL d   1      22.537 -18.600   0.743  0.00  0.00    -0.247 OA
ATOM     29  N   UNL d   1      21.016 -19.169  -0.831  0.00  0.00    -0.309 N 
ATOM     30  H   UNL d   1      20.888 -19.469  -1.784  0.00  0.00     0.170 HD
ATOM     31  H   UNL d   1      22.696 -18.135  -2.419  0.00  0.00     0.170 HD
BRANCH  29  32
ATOM     32  C   UNL d   1      20.124 -19.686   0.162  0.00  0.00     0.036 A 
ATOM     33  C   UNL d   1      20.358 -19.485   1.525  0.00  0.00     0.029 A 
ATOM     34  C   UNL d   1      19.510 -20.075   2.481  0.00  0.00     0.002 A 
ATOM     35  C   UNL d   1      18.404 -20.827   2.085  0.00  0.00     0.000 A 
ATOM     36  C   UNL d   1      18.150 -21.012   0.733  0.00  0.00     0.002 A 
ATOM     37  C   UNL d   1      19.004 -20.445  -0.215  0.00  0.00     0.029 A 
ENDBRANCH  29  32
ENDBRANCH  23  26
ENDBRANCH   1  20
TORSDOF 8
ENDMDL
MODEL 2
REMARK VINA RESULT:    -9.767      3.401      4.112
REMARK INTER + INTRA:         -13.035
REMARK INTER:                 -12.153
REMARK INTRA:                  -0.881
REMARK CONF_INDEPENDENT:        2.386
REMARK UNBOUND:                -0.881
REMARK  8 active torsions:
REMARK  status: ('A' for Active; 'I' for Inactive)
REMARK    1  A    between atoms: O_2  and  C_3 
REMARK    2  A    between atoms: C_3  and  C_5 
REMARK    3  A    between atoms: C_8  and  C_9 
REMARK    4  A    between atoms: C_9  and  N_10 
REMARK       I    between atoms: N_10  and  C_11 
REMARK       I    between atoms: C_11  and  N_13 
REMARK    5  A    between atoms: N_13  and  C_14 
REMARK    6  A    between atoms: C_14  and  C_16 
REMARK    7  A    between atoms: C_19  and  N_20 
REMARK       I    between atoms: N_20  and  C_21 
REMARK       I    between atoms: C_21  and  N_23 
REMARK    8  A    between atoms: N_23  and  C_24 
ROOT
ATOM      1  C   UNL d   1      29.069 -16.464  -0.705  0.00  0.00     0.115 C 
ATOM      2  C   UNL d   1      29.811 -17.770  -1.080  0.00  0.00     0.037 C 
ENDROOT
BRANCH   1   3
ATOM      3  N   UNL d   1      29.542 -16.000   0.605  0.00  0.00    -0.335 N 
ATOM      4  C   UNL d   1      29.778 -14.664   0.850  0.00  0.00     0.316 C 
ATOM      5  N   UNL d   1      30.260 -14.417   2.103  0.00  0.00    -0.339 N 
ATOM      6  O   UNL d   1      29.583 -13.770   0.037  0.00  0.00    -0.247 OA
ATOM      7  H   UNL d   1      30.427 -15.203   2.701  0.00  0.00     0.164 HD
ATOM      8  H   UNL d   1      29.768 -16.688   1.304  0.00  0.00     0.165 HD
BRANCH   5   9
ATOM      9  C   UNL d   1      30.612 -13.066   2.532  0.00  0.00     0.162 C 
BRANCH   9  10
ATOM     10  C   UNL d   1      29.470 -12.058   2.542  0.00  0.00    -0.040 A 
ATOM     11  C   UNL d   1      29.641 -10.795   1.940  0.00  0.00     0.010 A 
ATOM     12  C   UNL d   1      28.649  -9.801   2.042  0.00  0.00     0.018 A 
ATOM     13  C   UNL d   1      27.436 -10.075   2.688  0.00  0.00     0.039 A 
ATOM     14  C   UNL d   1      27.240 -11.333   3.253  0.00  0.00     0.018 A 
ATOM     15  C   UNL d   1      28.241 -12.307   3.171  0.00  0.00     0.010 A 
BRANCH  13  16
ATOM     16  C   UNL d   1      26.324  -9.096   2.632  0.00  0.00     0.292 C 
ATOM     17  O   UNL d   1      25.244  -9.355   2.104  0.00  0.00    -0.259 OA
BRANCH  16  18
ATOM     18  O   UNL d   1      26.653  -7.925   3.231  0.00  0.00    -0.323 OA
ATOM     19  C   UNL d   1      27.475  -8.075   4.398  0.00  0.00     0.213 C 
ENDBRANCH  16  18
ENDBRANCH  13  16
ENDBRANCH   9  10
ENDBRANCH   5   9
ENDBRANCH   1   3
BRANCH   1  20
ATOM     20  C   UNL d   1      27.547 -16.687  -0.760  0.00  0.00    -0.036 A 
ATOM     21  C   UNL d   1      26.852 -17.727  -0.123  0.00  0.00     0.011 A 
ATOM     22  C   UNL d   1      25.456 -17.931  -0.336  0.00  0.00     0.030 A 
ATOM     23  C   UNL d   1      24.702 -17.031  -1.105  0.00  0.00     0.036 A 
ATOM     24  C   UNL d   1      25.405 -15.987  -1.690  0.00  0.00     0.030 A 
ATOM     25  C   UNL d   1      26.765 -15.797  -1.497  0.00  0.00     0.011 A 
BRANCH  23  26
ATOM     26  N   UNL d   1      23.277 -17.141  -1.246  0.00  0.00    -0.309 N 
ATOM     27  C   UNL d   1      22.524 -18.122  -0.602  0.00  0.00     0.325 C 
ATOM     28  O   UNL d   1      22.996 -18.959   0.164  0.00  0.00    -0.247 OA
ATOM     29  N   UNL d   1      21.166 -18.136  -0.879  0.00  0.00    -0.309 N 
ATOM     30  H   UNL d   1      20.820 -17.705  -1.721  0.00  0.00     0.170 HD
ATOM     31  H   UNL d   1      22.830 -16.533  -1.916  0.00  0.00     0.170 HD
BRANCH  29  32
ATOM     32  C   UNL d   1      20.313 -19.063  -0.199  0.00  0.00     0.036 A 
ATOM     33  C   UNL d   1      19.259 -19.700  -0.858  0.00  0.00     0.029 A 
ATOM     34  C   UNL d   1      18.386 -20.541  -0.145  0.00  0.00     0.002 A 
ATOM     35  C   UNL d   1      18.584 -20.787   1.214  0.00  0.00     0.000 A 
ATOM     36  C   UNL d   1      19.644 -20.178   1.872  0.00  0.00     0.002 A 
ATOM     37  C   UNL d   1      20.497 -19.325   1.168  0.00  0.00     0.029 A 
ENDBRANCH  29  32
ENDBRANCH  23  26
ENDBRANCH   1  20
TORSDOF 8
ENDMDL
MODEL 3
REMARK VINA RESULT:    -9.564      2.212     11.009
REMARK INTER + INTRA:         -12.958
REMARK INTER:                 -11.950
REMARK INTRA:                  -1.008
REMARK CONF_INDEPENDENT:        2.386
REMARK UNBOUND:                -1.008
REMARK  8 active torsions:
REMARK  status: ('A' for Active; 'I' for Inactive)
REMARK    1  A    between atoms: O_2  and  C_3 
REMARK    2  A    between atoms: C_3  and  C_5 
REMARK    3  A    between atoms: C_8  and  C_9 
REMARK    4  A    between atoms: C_9  and  N_10 
REMARK       I    between atoms: N_10  and  C_11 
REMARK       I    between atoms: C_11  and  N_13 
REMARK    5  A    between atoms: N_13  and  C_14 
REMARK    6  A    between atoms: C_14  and  C_16 
REMARK    7  A    between atoms: C_19  and  N_20 
REMARK       I    between atoms: N_20  and  C_21 
REMARK       I    between atoms: C_21  and  N_23 
REMARK    8  A    between atoms: N_23  and  C_24 
ROOT
ATOM      1  C   UNL d   1      28.049 -12.816   0.917  0.00  0.00     0.115 C 
ATOM      2  C   UNL d   1      27.731 -11.302   0.866  0.00  0.00     0.037 C 
ENDROOT
BRANCH   1   3
ATOM      3  N   UNL d   1      26.915 -13.566   0.362  0.00  0.00    -0.335 N 
ATOM      4  C   UNL d   1      26.983 -14.929   0.170  0.00  0.00     0.316 C 
ATOM      5  N   UNL d   1      25.858 -15.456  -0.399  0.00  0.00    -0.339 N 
ATOM      6  O   UNL d   1      27.948 -15.620   0.470  0.00  0.00    -0.247 OA
ATOM      7  H   UNL d   1      25.124 -14.822  -0.649  0.00  0.00     0.164 HD
ATOM      8  H   UNL d   1      26.108 -13.052   0.050  0.00  0.00     0.165 HD
BRANCH   5   9
ATOM      9  C   UNL d   1      25.761 -16.876  -0.722  0.00  0.00     0.162 C 
BRANCH   9  10
ATOM     10  C   UNL d   1      24.349 -17.449  -0.762  0.00  0.00    -0.040 A 
ATOM     11  C   UNL d   1      23.249 -16.592  -0.970  0.00  0.00     0.010 A 
ATOM     12  C   UNL d   1      21.928 -17.074  -0.888  0.00  0.00     0.018 A 
ATOM     13  C   UNL d   1      21.683 -18.435  -0.667  0.00  0.00     0.039 A 
ATOM     14  C   UNL d   1      22.764 -19.298  -0.500  0.00  0.00     0.018 A 
ATOM     15  C   UNL d   1      24.073 -18.809  -0.555  0.00  0.00     0.010 A 
BRANCH  13  16
ATOM     16  C   UNL d   1      20.304 -18.970  -0.769  0.00  0.00     0.292 C 
ATOM     17  O   UNL d   1      19.325 -18.241  -0.920  0.00  0.00    -0.259 OA
BRANCH  16  18
ATOM     18  O   UNL d   1      20.281 -20.323  -0.688  0.00  0.00    -0.323 OA
ATOM     19  C   UNL d   1      19.959 -20.825   0.617  0.00  0.00     0.213 C 
ENDBRANCH  16  18
ENDBRANCH  13  16
ENDBRANCH   9  10
ENDBRANCH   5   9
ENDBRANCH   1   3
BRANCH   1  20
ATOM     20  C   UNL d   1      28.411 -13.232   2.353  0.00  0.00    -0.036 A 
ATOM     21  C   UNL d   1      29.600 -12.898   3.023  0.00  0.00     0.011 A 
ATOM     22  C   UNL d   1      29.907 -13.438   4.308  0.00  0.00     0.030 A 
ATOM     23  C   UNL d   1      28.982 -14.234   4.999  0.00  0.00     0.036 A 
ATOM     24  C   UNL d   1      27.797 -14.515   4.333  0.00  0.00     0.030 A 
ATOM     25  C   UNL d   1      27.504 -14.006   3.077  0.00  0.00     0.011 A 
BRANCH  23  26
ATOM     26  N   UNL d   1      29.212 -14.698   6.339  0.00  0.00    -0.309 N 
ATOM     27  C   UNL d   1      29.033 -13.892   7.462  0.00  0.00     0.325 C 
ATOM     28  O   UNL d   1      28.639 -12.729   7.419  0.00  0.00    -0.247 OA
ATOM     29  N   UNL d   1      29.348 -14.464   8.686  0.00  0.00    -0.309 N 
ATOM     30  H   UNL d   1      29.967 -15.257   8.726  0.00  0.00     0.170 HD
ATOM     31  H   UNL d   1      29.607 -15.620   6.448  0.00  0.00     0.170 HD
BRANCH  29  32
ATOM     32  C   UNL d   1      29.119 -13.727   9.892  0.00  0.00     0.036 A 
ATOM     33  C   UNL d   1      28.026 -14.003  10.717  0.00  0.00     0.029 A 
ATOM     34  C   UNL d   1      27.779 -13.209  11.851  0.00  0.00     0.002 A 
ATOM     35  C   UNL d   1      28.643 -12.168  12.194  0.00  0.00     0.000 A 
ATOM     36  C   UNL d   1      29.746 -11.902  11.394  0.00  0.00     0.002 A 
ATOM     37  C   UNL d   1      29.977 -12.676  10.255  0.00  0.00     0.029 A 
ENDBRANCH  29  32
ENDBRANCH  23  26
ENDBRANCH   1  20
TORSDOF 8
ENDMDL
MODEL 4
REMARK VINA RESULT:    -9.523      1.807      2.226
REMARK INTER + INTRA:         -12.658
REMARK INTER:                 -11.910
REMARK INTRA:                  -0.748
REMARK CONF_INDEPENDENT:        2.386
REMARK UNBOUND:                -0.748
REMARK  8 active torsions:
REMARK  status: ('A' for Active; 'I' for Inactive)
REMARK    1  A    between atoms: O_2  and  C_3 
REMARK    2  A    between atoms: C_3  and  C_5 
REMARK    3  A    between atoms: C_8  and  C_9 
REMARK    4  A    between atoms: C_9  and  N_10 
REMARK       I    between atoms: N_10  and  C_11 
REMARK       I    between atoms: C_11  and  N_13 
REMARK    5  A    between atoms: N_13  and  C_14 
REMARK    6  A    between atoms: C_14  and  C_16 
REMARK    7  A    between atoms: C_19  and  N_20 
REMARK       I    between atoms: N_20  and  C_21 
REMARK       I    between atoms: C_21  and  N_23 
REMARK    8  A    between atoms: N_23  and  C_24 
ROOT
ATOM      1  C   UNL d   1      28.603 -14.726   0.221  0.00  0.00     0.115 C 
ATOM      2  C   UNL d   1      29.859 -15.095  -0.604  0.00  0.00     0.037 C 
ENDROOT
BRANCH   1   3
ATOM      3  N   UNL d   1      28.855 -15.014   1.638  0.00  0.00    -0.335 N 
ATOM      4  C   UNL d   1      28.046 -14.499   2.629  0.00  0.00     0.316 C 
ATOM      5  N   UNL d   1      28.454 -14.827   3.890  0.00  0.00    -0.339 N 
ATOM      6  O   UNL d   1      27.055 -13.811   2.421  0.00  0.00    -0.247 OA
ATOM      7  H   UNL d   1      29.293 -15.365   3.982  0.00  0.00     0.164 HD
ATOM      8  H   UNL d   1      29.680 -15.535   1.882  0.00  0.00     0.165 HD
BRANCH   5   9
ATOM      9  C   UNL d   1      27.748 -14.336   5.071  0.00  0.00     0.162 C 
BRANCH   9  10
ATOM     10  C   UNL d   1      28.322 -13.075   5.705  0.00  0.00    -0.040 A 
ATOM     11  C   UNL d   1      29.081 -13.166   6.889  0.00  0.00     0.010 A 
ATOM     12  C   UNL d   1      29.517 -12.008   7.563  0.00  0.00     0.018 A 
ATOM     13  C   UNL d   1      29.262 -10.739   7.028  0.00  0.00     0.039 A 
ATOM     14  C   UNL d   1      28.547 -10.639   5.837  0.00  0.00     0.018 A 
ATOM     15  C   UNL d   1      28.093 -11.791   5.186  0.00  0.00     0.010 A 
BRANCH  13  16
ATOM     16  C   UNL d   1      29.881  -9.537   7.636  0.00  0.00     0.292 C 
ATOM     17  O   UNL d   1      30.839  -8.959   7.125  0.00  0.00    -0.259 OA
BRANCH  16  18
ATOM     18  O   UNL d   1      29.256  -9.174   8.783  0.00  0.00    -0.323 OA
ATOM     19  C   UNL d   1      29.925  -8.132   9.509  0.00  0.00     0.213 C 
ENDBRANCH  16  18
ENDBRANCH  13  16
ENDBRANCH   9  10
ENDBRANCH   5   9
ENDBRANCH   1   3
BRANCH   1  20
ATOM     20  C   UNL d   1      27.369 -15.455  -0.340  0.00  0.00    -0.036 A 
ATOM     21  C   UNL d   1      26.553 -14.991  -1.385  0.00  0.00     0.011 A 
ATOM     22  C   UNL d   1      25.354 -15.671  -1.752  0.00  0.00     0.030 A 
ATOM     23  C   UNL d   1      25.003 -16.892  -1.156  0.00  0.00     0.036 A 
ATOM     24  C   UNL d   1      25.847 -17.350  -0.155  0.00  0.00     0.030 A 
ATOM     25  C   UNL d   1      27.004 -16.682   0.215  0.00  0.00     0.011 A 
BRANCH  23  26
ATOM     26  N   UNL d   1      23.865 -17.659  -1.580  0.00  0.00    -0.309 N 
ATOM     27  C   UNL d   1      22.883 -18.111  -0.700  0.00  0.00     0.325 C 
ATOM     28  O   UNL d   1      22.879 -17.876   0.506  0.00  0.00    -0.247 OA
ATOM     29  N   UNL d   1      21.874 -18.888  -1.249  0.00  0.00    -0.309 N 
ATOM     30  H   UNL d   1      22.024 -19.362  -2.125  0.00  0.00     0.170 HD
ATOM     31  H   UNL d   1      23.839 -17.953  -2.545  0.00  0.00     0.170 HD
BRANCH  29  32
ATOM     32  C   UNL d   1      20.789 -19.326  -0.426  0.00  0.00     0.036 A 
ATOM     33  C   UNL d   1      20.924 -19.432   0.961  0.00  0.00     0.029 A 
ATOM     34  C   UNL d   1      19.868 -19.945   1.736  0.00  0.00     0.002 A 
ATOM     35  C   UNL d   1      18.660 -20.312   1.142  0.00  0.00     0.000 A 
ATOM     36  C   UNL d   1      18.508 -20.188  -0.233  0.00  0.00     0.002 A 
ATOM     37  C   UNL d   1      19.564 -19.699  -1.004  0.00  0.00     0.029 A 
ENDBRANCH  29  32
ENDBRANCH  23  26
ENDBRANCH   1  20
TORSDOF 8
ENDMDL
MODEL 5
REMARK VINA RESULT:    -9.501      5.010      5.790
REMARK INTER + INTRA:         -12.745
REMARK INTER:                 -11.887
REMARK INTRA:                  -0.858
REMARK CONF_INDEPENDENT:        2.386
REMARK UNBOUND:                -0.858
REMARK  8 active torsions:
REMARK  status: ('A' for Active; 'I' for Inactive)
REMARK    1  A    between atoms: O_2  and  C_3 
REMARK    2  A    between atoms: C_3  and  C_5 
REMARK    3  A    between atoms: C_8  and  C_9 
REMARK    4  A    between atoms: C_9  and  N_10 
REMARK       I    between atoms: N_10  and  C_11 
REMARK       I    between atoms: C_11  and  N_13 
REMARK    5  A    between atoms: N_13  and  C_14 
REMARK    6  A    between atoms: C_14  and  C_16 
REMARK    7  A    between atoms: C_19  and  N_20 
REMARK       I    between atoms: N_20  and  C_21 
REMARK       I    between atoms: C_21  and  N_23 
REMARK    8  A    between atoms: N_23  and  C_24 
ROOT
ATOM      1  C   UNL d   1      29.067 -16.396  -0.940  0.00  0.00     0.115 C 
ATOM      2  C   UNL d   1      29.463 -15.414  -2.069  0.00  0.00     0.037 C 
ENDROOT
BRANCH   1   3
ATOM      3  N   UNL d   1      29.832 -17.640  -1.093  0.00  0.00    -0.335 N 
ATOM      4  C   UNL d   1      30.903 -17.928  -0.276  0.00  0.00     0.316 C 
ATOM      5  N   UNL d   1      31.528 -19.102  -0.589  0.00  0.00    -0.339 N 
ATOM      6  O   UNL d   1      31.277 -17.215   0.647  0.00  0.00    -0.247 OA
ATOM      7  H   UNL d   1      31.185 -19.613  -1.379  0.00  0.00     0.164 HD
ATOM      8  H   UNL d   1      29.606 -18.249  -1.862  0.00  0.00     0.165 HD
BRANCH   5   9
ATOM      9  C   UNL d   1      32.711 -19.553   0.138  0.00  0.00     0.162 C 
BRANCH   9  10
ATOM     10  C   UNL d   1      32.479 -19.962   1.587  0.00  0.00    -0.040 A 
ATOM     11  C   UNL d   1      32.877 -19.103   2.632  0.00  0.00     0.010 A 
ATOM     12  C   UNL d   1      32.788 -19.508   3.978  0.00  0.00     0.018 A 
ATOM     13  C   UNL d   1      32.235 -20.753   4.309  0.00  0.00     0.039 A 
ATOM     14  C   UNL d   1      31.803 -21.593   3.285  0.00  0.00     0.018 A 
ATOM     15  C   UNL d   1      31.918 -21.196   1.949  0.00  0.00     0.010 A 
BRANCH  13  16
ATOM     16  C   UNL d   1      31.971 -21.097   5.726  0.00  0.00     0.292 C 
ATOM     17  O   UNL d   1      30.831 -21.192   6.180  0.00  0.00    -0.259 OA
BRANCH  16  18
ATOM     18  O   UNL d   1      33.119 -21.296   6.419  0.00  0.00    -0.323 OA
ATOM     19  C   UNL d   1      33.376 -22.670   6.742  0.00  0.00     0.213 C 
ENDBRANCH  16  18
ENDBRANCH  13  16
ENDBRANCH   9  10
ENDBRANCH   5   9
ENDBRANCH   1   3
BRANCH   1  20
ATOM     20  C   UNL d   1      27.544 -16.612  -0.937  0.00  0.00    -0.036 A 
ATOM     21  C   UNL d   1      26.861 -17.596  -0.203  0.00  0.00     0.011 A 
ATOM     22  C   UNL d   1      25.459 -17.806  -0.363  0.00  0.00     0.030 A 
ATOM     23  C   UNL d   1      24.689 -16.964  -1.178  0.00  0.00     0.036 A 
ATOM     24  C   UNL d   1      25.380 -15.972  -1.861  0.00  0.00     0.030 A 
ATOM     25  C   UNL d   1      26.746 -15.777  -1.720  0.00  0.00     0.011 A 
BRANCH  23  26
ATOM     26  N   UNL d   1      23.260 -17.075  -1.273  0.00  0.00    -0.309 N 
ATOM     27  C   UNL d   1      22.534 -18.083  -0.640  0.00  0.00     0.325 C 
ATOM     28  O   UNL d   1      23.036 -18.947   0.075  0.00  0.00    -0.247 OA
ATOM     29  N   UNL d   1      21.167 -18.093  -0.869  0.00  0.00    -0.309 N 
ATOM     30  H   UNL d   1      20.789 -17.632  -1.681  0.00  0.00     0.170 HD
ATOM     31  H   UNL d   1      22.787 -16.444  -1.902  0.00  0.00     0.170 HD
BRANCH  29  32
ATOM     32  C   UNL d   1      20.342 -19.049  -0.195  0.00  0.00     0.036 A 
ATOM     33  C   UNL d   1      19.297 -19.702  -0.854  0.00  0.00     0.029 A 
ATOM     34  C   UNL d   1      18.450 -20.573  -0.145  0.00  0.00     0.002 A 
ATOM     35  C   UNL d   1      18.667 -20.834   1.208  0.00  0.00     0.000 A 
ATOM     36  C   UNL d   1      19.718 -20.209   1.866  0.00  0.00     0.002 A 
ATOM     37  C   UNL d   1      20.544 -19.327   1.167  0.00  0.00     0.029 A 
ENDBRANCH  29  32
ENDBRANCH  23  26
ENDBRANCH   1  20
TORSDOF 8
ENDMDL
MODEL 6
REMARK VINA RESULT:    -9.334      6.020     11.030
REMARK INTER + INTRA:         -12.600
REMARK INTER:                 -11.721
REMARK INTRA:                  -0.879
REMARK CONF_INDEPENDENT:        2.386
REMARK UNBOUND:                -0.879
REMARK  8 active torsions:
REMARK  status: ('A' for Active; 'I' for Inactive)
REMARK    1  A    between atoms: O_2  and  C_3 
REMARK    2  A    between atoms: C_3  and  C_5 
REMARK    3  A    between atoms: C_8  and  C_9 
REMARK    4  A    between atoms: C_9  and  N_10 
REMARK       I    between atoms: N_10  and  C_11 
REMARK       I    between atoms: C_11  and  N_13 
REMARK    5  A    between atoms: N_13  and  C_14 
REMARK    6  A    between atoms: C_14  and  C_16 
REMARK    7  A    between atoms: C_19  and  N_20 
REMARK       I    between atoms: N_20  and  C_21 
REMARK       I    between atoms: C_21  and  N_23 
REMARK    8  A    between atoms: N_23  and  C_24 
ROOT
ATOM      1  C   UNL d   1      25.691 -13.298  -3.559  0.00  0.00     0.115 C 
ATOM      2  C   UNL d   1      25.530 -11.759  -3.527  0.00  0.00     0.037 C 
ENDROOT
BRANCH   1   3
ATOM      3  N   UNL d   1      25.928 -13.786  -2.194  0.00  0.00    -0.335 N 
ATOM      4  C   UNL d   1      25.728 -15.108  -1.861  0.00  0.00     0.316 C 
ATOM      5  N   UNL d   1      25.949 -15.377  -0.540  0.00  0.00    -0.339 N 
ATOM      6  O   UNL d   1      25.384 -15.974  -2.656  0.00  0.00    -0.247 OA
ATOM      7  H   UNL d   1      26.194 -14.610   0.055  0.00  0.00     0.164 HD
ATOM      8  H   UNL d   1      26.166 -13.117  -1.481  0.00  0.00     0.165 HD
BRANCH   5   9
ATOM      9  C   UNL d   1      25.744 -16.714   0.010  0.00  0.00     0.162 C 
BRANCH   9  10
ATOM     10  C   UNL d   1      24.375 -17.331  -0.246  0.00  0.00    -0.040 A 
ATOM     11  C   UNL d   1      24.221 -18.732  -0.233  0.00  0.00     0.010 A 
ATOM     12  C   UNL d   1      22.998 -19.332  -0.588  0.00  0.00     0.018 A 
ATOM     13  C   UNL d   1      21.883 -18.540  -0.896  0.00  0.00     0.039 A 
ATOM     14  C   UNL d   1      22.013 -17.153  -0.873  0.00  0.00     0.018 A 
ATOM     15  C   UNL d   1      23.239 -16.564  -0.546  0.00  0.00     0.010 A 
BRANCH  13  16
ATOM     16  C   UNL d   1      20.553 -19.167  -1.084  0.00  0.00     0.292 C 
ATOM     17  O   UNL d   1      20.281 -19.851  -2.069  0.00  0.00    -0.259 OA
BRANCH  16  18
ATOM     18  O   UNL d   1      19.719 -18.900  -0.049  0.00  0.00    -0.323 OA
ATOM     19  C   UNL d   1      20.047 -19.597   1.162  0.00  0.00     0.213 C 
ENDBRANCH  16  18
ENDBRANCH  13  16
ENDBRANCH   9  10
ENDBRANCH   5   9
ENDBRANCH   1   3
BRANCH   1  20
ATOM     20  C   UNL d   1      26.800 -13.693  -4.549  0.00  0.00    -0.036 A 
ATOM     21  C   UNL d   1      27.266 -12.900  -5.610  0.00  0.00     0.011 A 
ATOM     22  C   UNL d   1      28.208 -13.401  -6.558  0.00  0.00     0.030 A 
ATOM     23  C   UNL d   1      28.787 -14.669  -6.401  0.00  0.00     0.036 A 
ATOM     24  C   UNL d   1      28.341 -15.418  -5.321  0.00  0.00     0.030 A 
ATOM     25  C   UNL d   1      27.413 -14.939  -4.408  0.00  0.00     0.011 A 
BRANCH  23  26
ATOM     26  N   UNL d   1      29.821 -15.159  -7.270  0.00  0.00    -0.309 N 
ATOM     27  C   UNL d   1      30.406 -16.415  -7.121  0.00  0.00     0.325 C 
ATOM     28  O   UNL d   1      30.080 -17.229  -6.260  0.00  0.00    -0.247 OA
ATOM     29  N   UNL d   1      31.430 -16.726  -8.003  0.00  0.00    -0.309 N 
ATOM     30  H   UNL d   1      31.929 -15.989  -8.475  0.00  0.00     0.170 HD
ATOM     31  H   UNL d   1      30.191 -14.517  -7.956  0.00  0.00     0.170 HD
BRANCH  29  32
ATOM     32  C   UNL d   1      32.030 -18.025  -7.964  0.00  0.00     0.036 A 
ATOM     33  C   UNL d   1      33.203 -18.264  -7.243  0.00  0.00     0.029 A 
ATOM     34  C   UNL d   1      33.815 -19.529  -7.290  0.00  0.00     0.002 A 
ATOM     35  C   UNL d   1      33.241 -20.572  -8.017  0.00  0.00     0.000 A 
ATOM     36  C   UNL d   1      32.063 -20.351  -8.717  0.00  0.00     0.002 A 
ATOM     37  C   UNL d   1      31.467 -19.089  -8.688  0.00  0.00     0.029 A 
ENDBRANCH  29  32
ENDBRANCH  23  26
ENDBRANCH   1  20
TORSDOF 8
ENDMDL
MODEL 7
REMARK VINA RESULT:    -9.324      6.483      8.990
REMARK INTER + INTRA:         -12.809
REMARK INTER:                 -11.710
REMARK INTRA:                  -1.099
REMARK CONF_INDEPENDENT:        2.386
REMARK UNBOUND:                -1.099
REMARK  8 active torsions:
REMARK  status: ('A' for Active; 'I' for Inactive)
REMARK    1  A    between atoms: O_2  and  C_3 
REMARK    2  A    between atoms: C_3  and  C_5 
REMARK    3  A    between atoms: C_8  and  C_9 
REMARK    4  A    between atoms: C_9  and  N_10 
REMARK       I    between atoms: N_10  and  C_11 
REMARK       I    between atoms: C_11  and  N_13 
REMARK    5  A    between atoms: N_13  and  C_14 
REMARK    6  A    between atoms: C_14  and  C_16 
REMARK    7  A    between atoms: C_19  and  N_20 
REMARK       I    between atoms: N_20  and  C_21 
REMARK       I    between atoms: C_21  and  N_23 
REMARK    8  A    between atoms: N_23  and  C_24 
ROOT
ATOM      1  C   UNL d   1      26.945 -13.227  -3.742  0.00  0.00     0.115 C 
ATOM      2  C   UNL d   1      25.909 -12.843  -4.826  0.00  0.00     0.037 C 
ENDROOT
BRANCH   1   3
ATOM      3  N   UNL d   1      28.236 -13.501  -4.384  0.00  0.00    -0.335 N 
ATOM      4  C   UNL d   1      28.371 -14.502  -5.323  0.00  0.00     0.316 C 
ATOM      5  N   UNL d   1      29.649 -14.651  -5.781  0.00  0.00    -0.339 N 
ATOM      6  O   UNL d   1      27.449 -15.202  -5.721  0.00  0.00    -0.247 OA
ATOM      7  H   UNL d   1      30.356 -14.064  -5.383  0.00  0.00     0.164 HD
ATOM      8  H   UNL d   1      29.046 -12.993  -4.069  0.00  0.00     0.165 HD
BRANCH   5   9
ATOM      9  C   UNL d   1      29.997 -15.690  -6.746  0.00  0.00     0.162 C 
BRANCH   9  10
ATOM     10  C   UNL d   1      30.340 -17.052  -6.155  0.00  0.00    -0.040 A 
ATOM     11  C   UNL d   1      30.713 -18.113  -7.005  0.00  0.00     0.010 A 
ATOM     12  C   UNL d   1      30.914 -19.412  -6.499  0.00  0.00     0.018 A 
ATOM     13  C   UNL d   1      30.815 -19.659  -5.124  0.00  0.00     0.039 A 
ATOM     14  C   UNL d   1      30.485 -18.609  -4.270  0.00  0.00     0.018 A 
ATOM     15  C   UNL d   1      30.260 -17.327  -4.782  0.00  0.00     0.010 A 
BRANCH  13  16
ATOM     16  C   UNL d   1      31.210 -20.979  -4.574  0.00  0.00     0.292 C 
ATOM     17  O   UNL d   1      32.386 -21.305  -4.426  0.00  0.00    -0.259 OA
BRANCH  16  18
ATOM     18  O   UNL d   1      30.131 -21.737  -4.260  0.00  0.00    -0.323 OA
ATOM     19  C   UNL d   1      30.388 -22.736  -3.263  0.00  0.00     0.213 C 
ENDBRANCH  16  18
ENDBRANCH  13  16
ENDBRANCH   9  10
ENDBRANCH   5   9
ENDBRANCH   1   3
BRANCH   1  20
ATOM     20  C   UNL d   1      26.419 -14.404  -2.901  0.00  0.00    -0.036 A 
ATOM     21  C   UNL d   1      27.212 -15.401  -2.310  0.00  0.00     0.011 A 
ATOM     22  C   UNL d   1      26.627 -16.527  -1.657  0.00  0.00     0.030 A 
ATOM     23  C   UNL d   1      25.238 -16.624  -1.485  0.00  0.00     0.036 A 
ATOM     24  C   UNL d   1      24.479 -15.604  -2.041  0.00  0.00     0.030 A 
ATOM     25  C   UNL d   1      25.044 -14.517  -2.691  0.00  0.00     0.011 A 
BRANCH  23  26
ATOM     26  N   UNL d   1      24.625 -17.684  -0.734  0.00  0.00    -0.309 N 
ATOM     27  C   UNL d   1      23.244 -17.855  -0.652  0.00  0.00     0.325 C 
ATOM     28  O   UNL d   1      22.426 -17.143  -1.230  0.00  0.00    -0.247 OA
ATOM     29  N   UNL d   1      22.799 -18.891   0.155  0.00  0.00    -0.309 N 
ATOM     30  H   UNL d   1      23.398 -19.259   0.877  0.00  0.00     0.170 HD
ATOM     31  H   UNL d   1      25.231 -18.265  -0.174  0.00  0.00     0.170 HD
BRANCH  29  32
ATOM     32  C   UNL d   1      21.399 -19.180   0.232  0.00  0.00     0.036 A 
ATOM     33  C   UNL d   1      20.752 -19.325   1.461  0.00  0.00     0.029 A 
ATOM     34  C   UNL d   1      19.394 -19.691   1.506  0.00  0.00     0.002 A 
ATOM     35  C   UNL d   1      18.665 -19.870   0.330  0.00  0.00     0.000 A 
ATOM     36  C   UNL d   1      19.294 -19.704  -0.897  0.00  0.00     0.002 A 
ATOM     37  C   UNL d   1      20.647 -19.363  -0.940  0.00  0.00     0.029 A 
ENDBRANCH  29  32
ENDBRANCH  23  26
ENDBRANCH   1  20
TORSDOF 8
ENDMDL
MODEL 8
REMARK VINA RESULT:    -9.304      6.164     12.265
REMARK INTER + INTRA:         -12.661
REMARK INTER:                 -11.691
REMARK INTRA:                  -0.971
REMARK CONF_INDEPENDENT:        2.386
REMARK UNBOUND:                -0.971
REMARK  8 active torsions:
REMARK  status: ('A' for Active; 'I' for Inactive)
REMARK    1  A    between atoms: O_2  and  C_3 
REMARK    2  A    between atoms: C_3  and  C_5 
REMARK    3  A    between atoms: C_8  and  C_9 
REMARK    4  A    between atoms: C_9  and  N_10 
REMARK       I    between atoms: N_10  and  C_11 
REMARK       I    between atoms: C_11  and  N_13 
REMARK    5  A    between atoms: N_13  and  C_14 
REMARK    6  A    between atoms: C_14  and  C_16 
REMARK    7  A    between atoms: C_19  and  N_20 
REMARK       I    between atoms: N_20  and  C_21 
REMARK       I    between atoms: C_21  and  N_23 
REMARK    8  A    between atoms: N_23  and  C_24 
ROOT
ATOM      1  C   UNL d   1      25.582 -12.966  -3.437  0.00  0.00     0.115 C 
ATOM      2  C   UNL d   1      25.530 -11.430  -3.255  0.00  0.00     0.037 C 
ENDROOT
BRANCH   1   3
ATOM      3  N   UNL d   1      25.890 -13.594  -2.146  0.00  0.00    -0.335 N 
ATOM      4  C   UNL d   1      25.777 -14.956  -1.967  0.00  0.00     0.316 C 
ATOM      5  N   UNL d   1      26.055 -15.363  -0.693  0.00  0.00    -0.339 N 
ATOM      6  O   UNL d   1      25.457 -15.743  -2.849  0.00  0.00    -0.247 OA
ATOM      7  H   UNL d   1      26.275 -14.657  -0.018  0.00  0.00     0.164 HD
ATOM      8  H   UNL d   1      26.113 -12.999  -1.365  0.00  0.00     0.165 HD
BRANCH   5   9
ATOM      9  C   UNL d   1      25.944 -16.765  -0.299  0.00  0.00     0.162 C 
BRANCH   9  10
ATOM     10  C   UNL d   1      24.575 -17.401  -0.503  0.00  0.00    -0.040 A 
ATOM     11  C   UNL d   1      23.448 -16.586  -0.734  0.00  0.00     0.010 A 
ATOM     12  C   UNL d   1      22.154 -17.139  -0.802  0.00  0.00     0.018 A 
ATOM     13  C   UNL d   1      21.970 -18.524  -0.710  0.00  0.00     0.039 A 
ATOM     14  C   UNL d   1      23.081 -19.343  -0.521  0.00  0.00     0.018 A 
ATOM     15  C   UNL d   1      24.361 -18.786  -0.428  0.00  0.00     0.010 A 
BRANCH  13  16
ATOM     16  C   UNL d   1      20.636 -19.117  -0.970  0.00  0.00     0.292 C 
ATOM     17  O   UNL d   1      20.366 -19.699  -2.019  0.00  0.00    -0.259 OA
BRANCH  16  18
ATOM     18  O   UNL d   1      19.794 -18.941   0.079  0.00  0.00    -0.323 OA
ATOM     19  C   UNL d   1      19.205 -20.156   0.566  0.00  0.00     0.213 C 
ENDBRANCH  16  18
ENDBRANCH  13  16
ENDBRANCH   9  10
ENDBRANCH   5   9
ENDBRANCH   1   3
BRANCH   1  20
ATOM     20  C   UNL d   1      26.582 -13.333  -4.548  0.00  0.00    -0.036 A 
ATOM     21  C   UNL d   1      27.050 -14.627  -4.828  0.00  0.00     0.011 A 
ATOM     22  C   UNL d   1      28.077 -14.855  -5.793  0.00  0.00     0.030 A 
ATOM     23  C   UNL d   1      28.578 -13.806  -6.578  0.00  0.00     0.036 A 
ATOM     24  C   UNL d   1      28.069 -12.542  -6.311  0.00  0.00     0.030 A 
ATOM     25  C   UNL d   1      27.084 -12.316  -5.362  0.00  0.00     0.011 A 
BRANCH  23  26
ATOM     26  N   UNL d   1      29.527 -14.018  -7.635  0.00  0.00    -0.309 N 
ATOM     27  C   UNL d   1      30.742 -13.338  -7.712  0.00  0.00     0.325 C 
ATOM     28  O   UNL d   1      31.129 -12.523  -6.879  0.00  0.00    -0.247 OA
ATOM     29  N   UNL d   1      31.529 -13.609  -8.821  0.00  0.00    -0.309 N 
ATOM     30  H   UNL d   1      31.112 -13.993  -9.653  0.00  0.00     0.170 HD
ATOM     31  H   UNL d   1      29.247 -14.620  -8.395  0.00  0.00     0.170 HD
BRANCH  29  32
ATOM     32  C   UNL d   1      32.824 -13.010  -8.935  0.00  0.00     0.036 A 
ATOM     33  C   UNL d   1      33.009 -11.798  -9.605  0.00  0.00     0.029 A 
ATOM     34  C   UNL d   1      34.304 -11.274  -9.773  0.00  0.00     0.002 A 
ATOM     35  C   UNL d   1      35.413 -11.930  -9.239  0.00  0.00     0.000 A 
ATOM     36  C   UNL d   1      35.237 -13.123  -8.550  0.00  0.00     0.002 A 
ATOM     37  C   UNL d   1      33.954 -13.653  -8.403  0.00  0.00     0.029 A 
ENDBRANCH  29  32
ENDBRANCH  23  26
ENDBRANCH   1  20
TORSDOF 8
ENDMDL
MODEL 9
REMARK VINA RESULT:    -8.996      2.743     11.461
REMARK INTER + INTRA:         -12.202
REMARK INTER:                 -11.383
REMARK INTRA:                  -0.819
REMARK CONF_INDEPENDENT:        2.386
REMARK UNBOUND:                -0.819
REMARK  8 active torsions:
REMARK  status: ('A' for Active; 'I' for Inactive)
REMARK    1  A    between atoms: O_2  and  C_3 
REMARK    2  A    between atoms: C_3  and  C_5 
REMARK    3  A    between atoms: C_8  and  C_9 
REMARK    4  A    between atoms: C_9  and  N_10 
REMARK       I    between atoms: N_10  and  C_11 
REMARK       I    between atoms: C_11  and  N_13 
REMARK    5  A    between atoms: N_13  and  C_14 
REMARK    6  A    between atoms: C_14  and  C_16 
REMARK    7  A    between atoms: C_19  and  N_20 
REMARK       I    between atoms: N_20  and  C_21 
REMARK       I    between atoms: C_21  and  N_23 
REMARK    8  A    between atoms: N_23  and  C_24 
ROOT
ATOM      1  C   UNL d   1      27.986 -13.398   2.579  0.00  0.00     0.115 C 
ATOM      2  C   UNL d   1      26.622 -12.777   2.189  0.00  0.00     0.037 C 
ENDROOT
BRANCH   1   3
ATOM      3  N   UNL d   1      28.083 -14.746   2.004  0.00  0.00    -0.335 N 
ATOM      4  C   UNL d   1      27.541 -15.040   0.771  0.00  0.00     0.316 C 
ATOM      5  N   UNL d   1      27.681 -16.350   0.413  0.00  0.00    -0.339 N 
ATOM      6  O   UNL d   1      26.982 -14.222   0.052  0.00  0.00    -0.247 OA
ATOM      7  H   UNL d   1      28.119 -16.967   1.069  0.00  0.00     0.164 HD
ATOM      8  H   UNL d   1      28.490 -15.477   2.563  0.00  0.00     0.165 HD
BRANCH   5   9
ATOM      9  C   UNL d   1      27.130 -16.861  -0.839  0.00  0.00     0.162 C 
BRANCH   9  10
ATOM     10  C   UNL d   1      25.676 -17.315  -0.784  0.00  0.00    -0.040 A 
ATOM     11  C   UNL d   1      24.652 -16.448  -1.217  0.00  0.00     0.010 A 
ATOM     12  C   UNL d   1      23.296 -16.792  -1.062  0.00  0.00     0.018 A 
ATOM     13  C   UNL d   1      22.937 -18.039  -0.535  0.00  0.00     0.039 A 
ATOM     14  C   UNL d   1      23.941 -18.920  -0.140  0.00  0.00     0.018 A 
ATOM     15  C   UNL d   1      25.287 -18.561  -0.272  0.00  0.00     0.010 A 
BRANCH  13  16
ATOM     16  C   UNL d   1      21.519 -18.473  -0.547  0.00  0.00     0.292 C 
ATOM     17  O   UNL d   1      20.645 -17.850  -1.147  0.00  0.00    -0.259 OA
BRANCH  16  18
ATOM     18  O   UNL d   1      21.336 -19.616   0.158  0.00  0.00    -0.323 OA
ATOM     19  C   UNL d   1      20.232 -19.568   1.074  0.00  0.00     0.213 C 
ENDBRANCH  16  18
ENDBRANCH  13  16
ENDBRANCH   9  10
ENDBRANCH   5   9
ENDBRANCH   1   3
BRANCH   1  20
ATOM     20  C   UNL d   1      28.160 -13.373   4.108  0.00  0.00    -0.036 A 
ATOM     21  C   UNL d   1      28.201 -12.217   4.904  0.00  0.00     0.011 A 
ATOM     22  C   UNL d   1      28.497 -12.284   6.298  0.00  0.00     0.030 A 
ATOM     23  C   UNL d   1      28.649 -13.518   6.948  0.00  0.00     0.036 A 
ATOM     24  C   UNL d   1      28.562 -14.648   6.147  0.00  0.00     0.030 A 
ATOM     25  C   UNL d   1      28.292 -14.585   4.788  0.00  0.00     0.011 A 
BRANCH  23  26
ATOM     26  N   UNL d   1      28.833 -13.625   8.369  0.00  0.00    -0.309 N 
ATOM     27  C   UNL d   1      29.911 -14.295   8.946  0.00  0.00     0.325 C 
ATOM     28  O   UNL d   1      30.813 -14.829   8.304  0.00  0.00    -0.247 OA
ATOM     29  N   UNL d   1      29.924 -14.362  10.331  0.00  0.00    -0.309 N 
ATOM     30  H   UNL d   1      29.069 -14.240  10.848  0.00  0.00     0.170 HD
ATOM     31  H   UNL d   1      28.094 -13.274   8.959  0.00  0.00     0.170 HD
BRANCH  29  32
ATOM     32  C   UNL d   1      31.035 -14.966  11.001  0.00  0.00     0.036 A 
ATOM     33  C   UNL d   1      32.291 -14.354  11.026  0.00  0.00     0.029 A 
ATOM     34  C   UNL d   1      33.385 -15.009  11.620  0.00  0.00     0.002 A 
ATOM     35  C   UNL d   1      33.225 -16.254  12.229  0.00  0.00     0.000 A 
ATOM     36  C   UNL d   1      31.976 -16.860  12.230  0.00  0.00     0.002 A 
ATOM     37  C   UNL d   1      30.895 -16.219  11.621  0.00  0.00     0.029 A 
ENDBRANCH  29  32
ENDBRANCH  23  26
ENDBRANCH   1  20
TORSDOF 8
ENDMDL
