MODEL 1
REMARK VINA RESULT:    -9.665      0.000      0.000
REMARK INTER + INTRA:         -13.105
REMARK INTER:                 -11.753
REMARK INTRA:                  -1.352
REMARK CONF_INDEPENDENT:        2.088
REMARK UNBOUND:                -1.352
REMARK  7 active torsions:
REMARK  status: ('A' for Active; 'I' for Inactive)
REMARK    1  A    between atoms: O_2  and  C_3 
REMARK    2  A    between atoms: C_6  and  N_7 
REMARK       I    between atoms: N_7  and  C_8 
REMARK       I    between atoms: C_8  and  N_19 
REMARK       I    between atoms: N_9  and  C_10 
REMARK    3  A    between atoms: C_10  and  C_12 
REMARK    4  A    between atoms: N_19  and  C_20 
REMARK    5  A    between atoms: C_20  and  C_21 
REMARK    6  A    between atoms: C_21  and  C_22 
REMARK    7  A    between atoms: C_32  and  O_33 
ROOT
ATOM      1  N   UNL d   1      27.069 -17.323   0.624  0.00  0.00    -0.190 N 
ATOM      2  C   UNL d   1      25.908 -17.513  -0.165  0.00  0.00     0.704 C 
ATOM      3  N   UNL d   1      25.508 -16.920  -1.258  0.00  0.00    -0.023 NA
ATOM      4  C   UNL d   1      25.877 -15.612  -1.452  0.00  0.00     0.297 C 
ATOM      5  O   UNL d   1      25.870 -14.789  -0.564  0.00  0.00    -0.265 OA
ATOM      6  N   UNL d   1      25.016 -18.516   0.266  0.00  0.00    -0.224 N 
ATOM      7  H   UNL d   1      27.042 -17.695   1.563  0.00  0.00     0.184 HD
ATOM      8  H   UNL d   1      25.039 -18.837   1.227  0.00  0.00     0.177 HD
ENDROOT
BRANCH   1   9
ATOM      9  C   UNL d   1      28.165 -16.406   0.423  0.00  0.00     0.052 C 
ATOM     10  C   UNL d   1      29.302 -16.652  -0.334  0.00  0.00     0.033 C 
ATOM     11  C   UNL d   1      30.468 -15.809  -0.217  0.00  0.00     0.042 C 
ATOM     12  C   UNL d   1      30.581 -14.762   0.725  0.00  0.00     0.101 C 
ATOM     13  C   UNL d   1      29.434 -14.512   1.432  0.00  0.00     0.103 C 
ATOM     14  C   UNL d   1      28.230 -15.167   1.033  0.00  0.00     0.069 C 
BRANCH  12  15
ATOM     15  O   UNL d   1      31.667 -13.929   0.619  0.00  0.00    -0.353 OA
ATOM     16  C   UNL d   1      31.581 -12.657  -0.020  0.00  0.00     0.210 C 
ENDBRANCH  12  15
BRANCH  13  17
ATOM     17  O   UNL d   1      29.236 -13.785   2.559  0.00  0.00    -0.353 OA
ATOM     18  C   UNL d   1      28.211 -14.018   3.473  0.00  0.00     0.210 C 
ENDBRANCH  13  17
ENDBRANCH   1   9
BRANCH   6  19
ATOM     19  C   UNL d   1      23.718 -18.669  -0.448  0.00  0.00     0.142 C 
BRANCH  19  20
ATOM     20  C   UNL d   1      22.476 -18.388   0.396  0.00  0.00     0.057 C 
BRANCH  20  21
ATOM     21  C   UNL d   1      21.166 -18.947  -0.115  0.00  0.00    -0.048 A 
ATOM     22  C   UNL d   1      20.281 -19.516   0.709  0.00  0.00    -0.006 A 
ATOM     23  C   UNL d   1      20.300 -19.717   2.116  0.00  0.00     0.014 A 
ATOM     24  C   UNL d   1      19.176 -20.004  -0.127  0.00  0.00     0.038 A 
ATOM     25  C   UNL d   1      19.324 -20.446   2.668  0.00  0.00     0.001 A 
ATOM     26  C   UNL d   1      18.198 -20.923   1.880  0.00  0.00     0.002 A 
ATOM     27  C   UNL d   1      18.087 -20.743   0.548  0.00  0.00     0.030 A 
ATOM     28  N   UNL d   1      19.347 -19.700  -1.357  0.00  0.00    -0.385 N 
ATOM     29  C   UNL d   1      20.655 -18.994  -1.535  0.00  0.00     0.155 A 
ATOM     30  H   UNL d   1      18.655 -19.921  -2.074  0.00  0.00     0.160 HD
ENDBRANCH  20  21
ENDBRANCH  19  20
ENDBRANCH   6  19
BRANCH   4  31
ATOM     31  C   UNL d   1      25.987 -15.135  -2.871  0.00  0.00     0.073 C 
ATOM     32  C   UNL d   1      27.118 -14.974  -3.717  0.00  0.00     0.020 C 
ATOM     33  C   UNL d   1      27.097 -13.999  -4.733  0.00  0.00     0.001 C 
ATOM     34  C   UNL d   1      25.918 -13.324  -5.008  0.00  0.00     0.003 C 
ATOM     35  C   UNL d   1      24.781 -13.587  -4.250  0.00  0.00     0.043 C 
ATOM     36  C   UNL d   1      24.830 -14.466  -3.184  0.00  0.00     0.132 C 
ATOM     37  F   UNL d   1      23.738 -14.638  -2.424  0.00  0.00    -0.205 F 
ENDBRANCH   4  31
TORSDOF 7
ENDMDL
MODEL 2
REMARK VINA RESULT:    -9.403      3.752      6.621
REMARK INTER + INTRA:         -13.505
REMARK INTER:                 -11.491
REMARK INTRA:                  -2.014
REMARK CONF_INDEPENDENT:        2.088
REMARK UNBOUND:                -2.014
REMARK  7 active torsions:
REMARK  status: ('A' for Active; 'I' for Inactive)
REMARK    1  A    between atoms: O_2  and  C_3 
REMARK    2  A    between atoms: C_6  and  N_7 
REMARK       I    between atoms: N_7  and  C_8 
REMARK       I    between atoms: C_8  and  N_19 
REMARK       I    between atoms: N_9  and  C_10 
REMARK    3  A    between atoms: C_10  and  C_12 
REMARK    4  A    between atoms: N_19  and  C_20 
REMARK    5  A    between atoms: C_20  and  C_21 
REMARK    6  A    between atoms: C_21  and  C_22 
REMARK    7  A    between atoms: C_32  and  O_33 
ROOT
ATOM      1  N   UNL d   1      29.361 -14.584   3.457  0.00  0.00    -0.190 N 
ATOM      2  C   UNL d   1      28.878 -14.171   2.191  0.00  0.00     0.704 C 
ATOM      3  N   UNL d   1      28.216 -13.104   1.832  0.00  0.00    -0.023 NA
ATOM      4  C   UNL d   1      27.377 -12.526   2.754  0.00  0.00     0.297 C 
ATOM      5  O   UNL d   1      26.662 -13.174   3.485  0.00  0.00    -0.265 OA
ATOM      6  N   UNL d   1      29.153 -15.028   1.106  0.00  0.00    -0.224 N 
ATOM      7  H   UNL d   1      29.602 -15.560   3.551  0.00  0.00     0.184 HD
ATOM      8  H   UNL d   1      29.382 -16.002   1.274  0.00  0.00     0.177 HD
ENDROOT
BRANCH   1   9
ATOM      9  C   UNL d   1      29.263 -13.912   4.730  0.00  0.00     0.052 C 
ATOM     10  C   UNL d   1      28.906 -14.502   5.934  0.00  0.00     0.033 C 
ATOM     11  C   UNL d   1      28.531 -13.697   7.073  0.00  0.00     0.042 C 
ATOM     12  C   UNL d   1      28.400 -12.291   7.023  0.00  0.00     0.101 C 
ATOM     13  C   UNL d   1      28.797 -11.728   5.839  0.00  0.00     0.103 C 
ATOM     14  C   UNL d   1      29.460 -12.551   4.880  0.00  0.00     0.069 C 
BRANCH  12  15
ATOM     15  O   UNL d   1      28.207 -11.631   8.212  0.00  0.00    -0.353 OA
ATOM     16  C   UNL d   1      28.342 -12.289   9.470  0.00  0.00     0.210 C 
ENDBRANCH  12  15
BRANCH  13  17
ATOM     17  O   UNL d   1      28.586 -10.485   5.341  0.00  0.00    -0.353 OA
ATOM     18  C   UNL d   1      28.987  -9.309   5.971  0.00  0.00     0.210 C 
ENDBRANCH  13  17
ENDBRANCH   1   9
BRANCH   6  19
ATOM     19  C   UNL d   1      28.558 -14.712  -0.222  0.00  0.00     0.142 C 
BRANCH  19  20
ATOM     20  C   UNL d   1      27.061 -14.992  -0.345  0.00  0.00     0.057 C 
BRANCH  20  21
ATOM     21  C   UNL d   1      26.624 -16.433  -0.192  0.00  0.00    -0.048 A 
ATOM     22  C   UNL d   1      25.364 -16.809  -0.433  0.00  0.00    -0.006 A 
ATOM     23  C   UNL d   1      24.229 -16.072  -0.864  0.00  0.00     0.014 A 
ATOM     24  C   UNL d   1      25.283 -18.241  -0.117  0.00  0.00     0.038 A 
ATOM     25  C   UNL d   1      23.043 -16.689  -0.895  0.00  0.00     0.001 A 
ATOM     26  C   UNL d   1      22.924 -18.112  -0.618  0.00  0.00     0.002 A 
ATOM     27  C   UNL d   1      23.958 -18.890  -0.237  0.00  0.00     0.030 A 
ATOM     28  N   UNL d   1      26.419 -18.712   0.230  0.00  0.00    -0.385 N 
ATOM     29  C   UNL d   1      27.444 -17.621   0.251  0.00  0.00     0.155 A 
ATOM     30  H   UNL d   1      26.557 -19.701   0.441  0.00  0.00     0.160 HD
ENDBRANCH  20  21
ENDBRANCH  19  20
ENDBRANCH   6  19
BRANCH   4  31
ATOM     31  C   UNL d   1      27.121 -11.054   2.619  0.00  0.00     0.073 C 
ATOM     32  C   UNL d   1      25.909 -10.326   2.480  0.00  0.00     0.020 C 
ATOM     33  C   UNL d   1      25.906  -9.096   1.794  0.00  0.00     0.001 C 
ATOM     34  C   UNL d   1      27.110  -8.527   1.409  0.00  0.00     0.003 C 
ATOM     35  C   UNL d   1      28.303  -9.196   1.668  0.00  0.00     0.043 C 
ATOM     36  C   UNL d   1      28.297 -10.452   2.246  0.00  0.00     0.132 C 
ATOM     37  F   UNL d   1      29.457 -11.105   2.409  0.00  0.00    -0.205 F 
ENDBRANCH   4  31
TORSDOF 7
ENDMDL
MODEL 3
REMARK VINA RESULT:    -9.152      3.650      6.907
REMARK INTER + INTRA:         -13.321
REMARK INTER:                 -11.240
REMARK INTRA:                  -2.081
REMARK CONF_INDEPENDENT:        2.088
REMARK UNBOUND:                -2.081
REMARK  7 active torsions:
REMARK  status: ('A' for Active; 'I' for Inactive)
REMARK    1  A    between atoms: O_2  and  C_3 
REMARK    2  A    between atoms: C_6  and  N_7 
REMARK       I    between atoms: N_7  and  C_8 
REMARK       I    between atoms: C_8  and  N_19 
REMARK       I    between atoms: N_9  and  C_10 
REMARK    3  A    between atoms: C_10  and  C_12 
REMARK    4  A    between atoms: N_19  and  C_20 
REMARK    5  A    between atoms: C_20  and  C_21 
REMARK    6  A    between atoms: C_21  and  C_22 
REMARK    7  A    between atoms: C_32  and  O_33 
ROOT
ATOM      1  N   UNL d   1      29.853 -14.807   3.894  0.00  0.00    -0.190 N 
ATOM      2  C   UNL d   1      29.434 -14.376   2.611  0.00  0.00     0.704 C 
ATOM      3  N   UNL d   1      28.767 -13.317   2.238  0.00  0.00    -0.023 NA
ATOM      4  C   UNL d   1      27.861 -12.783   3.122  0.00  0.00     0.297 C 
ATOM      5  O   UNL d   1      27.121 -13.465   3.796  0.00  0.00    -0.265 OA
ATOM      6  N   UNL d   1      29.794 -15.200   1.526  0.00  0.00    -0.224 N 
ATOM      7  H   UNL d   1      30.114 -15.779   3.980  0.00  0.00     0.184 HD
ATOM      8  H   UNL d   1      30.038 -16.171   1.685  0.00  0.00     0.177 HD
ENDROOT
BRANCH   1   9
ATOM      9  C   UNL d   1      29.663 -14.169   5.174  0.00  0.00     0.052 C 
ATOM     10  C   UNL d   1      28.917 -14.672   6.230  0.00  0.00     0.033 C 
ATOM     11  C   UNL d   1      28.530 -13.828   7.336  0.00  0.00     0.042 C 
ATOM     12  C   UNL d   1      28.783 -12.438   7.379  0.00  0.00     0.101 C 
ATOM     13  C   UNL d   1      29.555 -11.972   6.348  0.00  0.00     0.103 C 
ATOM     14  C   UNL d   1      30.170 -12.918   5.473  0.00  0.00     0.069 C 
BRANCH  12  15
ATOM     15  O   UNL d   1      28.519 -11.783   8.556  0.00  0.00    -0.353 OA
ATOM     16  C   UNL d   1      28.293 -12.488   9.776  0.00  0.00     0.210 C 
ENDBRANCH  12  15
BRANCH  13  17
ATOM     17  O   UNL d   1      29.786 -10.705   5.924  0.00  0.00    -0.353 OA
ATOM     18  C   UNL d   1      29.903  -9.604   6.769  0.00  0.00     0.210 C 
ENDBRANCH  13  17
ENDBRANCH   1   9
BRANCH   6  19
ATOM     19  C   UNL d   1      29.269 -14.867   0.173  0.00  0.00     0.142 C 
BRANCH  19  20
ATOM     20  C   UNL d   1      28.548 -16.007  -0.543  0.00  0.00     0.057 C 
BRANCH  20  21
ATOM     21  C   UNL d   1      27.153 -15.716  -1.053  0.00  0.00    -0.048 A 
ATOM     22  C   UNL d   1      26.109 -16.469  -0.697  0.00  0.00    -0.006 A 
ATOM     23  C   UNL d   1      26.012 -17.598   0.161  0.00  0.00     0.014 A 
ATOM     24  C   UNL d   1      24.944 -15.950  -1.427  0.00  0.00     0.038 A 
ATOM     25  C   UNL d   1      24.844 -18.247   0.231  0.00  0.00     0.001 A 
ATOM     26  C   UNL d   1      23.660 -17.749  -0.452  0.00  0.00     0.002 A 
ATOM     27  C   UNL d   1      23.660 -16.666  -1.256  0.00  0.00     0.030 A 
ATOM     28  N   UNL d   1      25.245 -14.922  -2.123  0.00  0.00    -0.385 N 
ATOM     29  C   UNL d   1      26.708 -14.629  -2.002  0.00  0.00     0.155 A 
ATOM     30  H   UNL d   1      24.548 -14.404  -2.659  0.00  0.00     0.160 HD
ENDBRANCH  20  21
ENDBRANCH  19  20
ENDBRANCH   6  19
BRANCH   4  31
ATOM     31  C   UNL d   1      27.576 -11.314   3.006  0.00  0.00     0.073 C 
ATOM     32  C   UNL d   1      27.482 -10.300   3.997  0.00  0.00     0.020 C 
ATOM     33  C   UNL d   1      26.655  -9.182   3.778  0.00  0.00     0.001 C 
ATOM     34  C   UNL d   1      26.073  -8.997   2.533  0.00  0.00     0.003 C 
ATOM     35  C   UNL d   1      26.280  -9.939   1.529  0.00  0.00     0.043 C 
ATOM     36  C   UNL d   1      27.005 -11.089   1.778  0.00  0.00     0.132 C 
ATOM     37  F   UNL d   1      27.118 -12.015   0.814  0.00  0.00    -0.205 F 
ENDBRANCH   4  31
TORSDOF 7
ENDMDL
MODEL 4
REMARK VINA RESULT:    -8.390      3.636      6.060
REMARK INTER + INTRA:         -12.771
REMARK INTER:                 -10.478
REMARK INTRA:                  -2.293
REMARK CONF_INDEPENDENT:        2.088
REMARK UNBOUND:                -2.293
REMARK  7 active torsions:
REMARK  status: ('A' for Active; 'I' for Inactive)
REMARK    1  A    between atoms: O_2  and  C_3 
REMARK    2  A    between atoms: C_6  and  N_7 
REMARK       I    between atoms: N_7  and  C_8 
REMARK       I    between atoms: C_8  and  N_19 
REMARK       I    between atoms: N_9  and  C_10 
REMARK    3  A    between atoms: C_10  and  C_12 
REMARK    4  A    between atoms: N_19  and  C_20 
REMARK    5  A    between atoms: C_20  and  C_21 
REMARK    6  A    between atoms: C_21  and  C_22 
REMARK    7  A    between atoms: C_32  and  O_33 
ROOT
ATOM      1  N   UNL d   1      29.821 -14.729   2.918  0.00  0.00    -0.190 N 
ATOM      2  C   UNL d   1      29.539 -14.824   1.532  0.00  0.00     0.704 C 
ATOM      3  N   UNL d   1      28.806 -14.075   0.753  0.00  0.00    -0.023 NA
ATOM      4  C   UNL d   1      27.724 -13.435   1.308  0.00  0.00     0.297 C 
ATOM      5  O   UNL d   1      26.987 -13.968   2.107  0.00  0.00    -0.265 OA
ATOM      6  N   UNL d   1      30.150 -15.890   0.841  0.00  0.00    -0.224 N 
ATOM      7  H   UNL d   1      30.186 -15.560   3.361  0.00  0.00     0.184 HD
ATOM      8  H   UNL d   1      30.488 -16.699   1.351  0.00  0.00     0.177 HD
ENDROOT
BRANCH   1   9
ATOM      9  C   UNL d   1      29.373 -13.743   3.871  0.00  0.00     0.052 C 
ATOM     10  C   UNL d   1      29.627 -12.381   3.810  0.00  0.00     0.033 C 
ATOM     11  C   UNL d   1      29.411 -11.533   4.959  0.00  0.00     0.042 C 
ATOM     12  C   UNL d   1      29.036 -12.025   6.230  0.00  0.00     0.101 C 
ATOM     13  C   UNL d   1      28.752 -13.365   6.255  0.00  0.00     0.103 C 
ATOM     14  C   UNL d   1      28.672 -14.070   5.017  0.00  0.00     0.069 C 
BRANCH  12  15
ATOM     15  O   UNL d   1      28.697 -11.104   7.190  0.00  0.00    -0.353 OA
ATOM     16  C   UNL d   1      29.229  -9.780   7.185  0.00  0.00     0.210 C 
ENDBRANCH  12  15
BRANCH  13  17
ATOM     17  O   UNL d   1      28.612 -14.215   7.302  0.00  0.00    -0.353 OA
ATOM     18  C   UNL d   1      29.277 -14.077   8.519  0.00  0.00     0.210 C 
ENDBRANCH  13  17
ENDBRANCH   1   9
BRANCH   6  19
ATOM     19  C   UNL d   1      29.786 -16.117  -0.585  0.00  0.00     0.142 C 
BRANCH  19  20
ATOM     20  C   UNL d   1      28.576 -17.022  -0.810  0.00  0.00     0.057 C 
BRANCH  20  21
ATOM     21  C   UNL d   1      27.270 -16.339  -1.153  0.00  0.00    -0.048 A 
ATOM     22  C   UNL d   1      26.099 -16.822  -0.731  0.00  0.00    -0.006 A 
ATOM     23  C   UNL d   1      25.781 -17.952   0.070  0.00  0.00     0.014 A 
ATOM     24  C   UNL d   1      25.055 -15.961  -1.303  0.00  0.00     0.038 A 
ATOM     25  C   UNL d   1      24.494 -18.280   0.227  0.00  0.00     0.001 A 
ATOM     26  C   UNL d   1      23.430 -17.439  -0.299  0.00  0.00     0.002 A 
ATOM     27  C   UNL d   1      23.647 -16.331  -1.038  0.00  0.00     0.030 A 
ATOM     28  N   UNL d   1      25.556 -14.993  -1.970  0.00  0.00    -0.385 N 
ATOM     29  C   UNL d   1      27.049 -15.101  -1.989  0.00  0.00     0.155 A 
ATOM     30  H   UNL d   1      24.978 -14.271  -2.400  0.00  0.00     0.160 HD
ENDBRANCH  20  21
ENDBRANCH  19  20
ENDBRANCH   6  19
BRANCH   4  31
ATOM     31  C   UNL d   1      27.278 -12.158   0.660  0.00  0.00     0.073 C 
ATOM     32  C   UNL d   1      27.404 -11.696  -0.678  0.00  0.00     0.020 C 
ATOM     33  C   UNL d   1      27.473 -10.313  -0.937  0.00  0.00     0.001 C 
ATOM     34  C   UNL d   1      27.248  -9.414   0.094  0.00  0.00     0.003 C 
ATOM     35  C   UNL d   1      26.999  -9.887   1.379  0.00  0.00     0.043 C 
ATOM     36  C   UNL d   1      27.037 -11.241   1.653  0.00  0.00     0.132 C 
ATOM     37  F   UNL d   1      26.872 -11.660   2.916  0.00  0.00    -0.205 F 
ENDBRANCH   4  31
TORSDOF 7
ENDMDL
MODEL 5
REMARK VINA RESULT:    -7.994      3.335      6.934
REMARK INTER + INTRA:         -12.651
REMARK INTER:                 -10.082
REMARK INTRA:                  -2.569
REMARK CONF_INDEPENDENT:        2.088
REMARK UNBOUND:                -2.569
REMARK  7 active torsions:
REMARK  status: ('A' for Active; 'I' for Inactive)
REMARK    1  A    between atoms: O_2  and  C_3 
REMARK    2  A    between atoms: C_6  and  N_7 
REMARK       I    between atoms: N_7  and  C_8 
REMARK       I    between atoms: C_8  and  N_19 
REMARK       I    between atoms: N_9  and  C_10 
REMARK    3  A    between atoms: C_10  and  C_12 
REMARK    4  A    between atoms: N_19  and  C_20 
REMARK    5  A    between atoms: C_20  and  C_21 
REMARK    6  A    between atoms: C_21  and  C_22 
REMARK    7  A    between atoms: C_32  and  O_33 
ROOT
ATOM      1  N   UNL d   1      29.085 -14.301  -0.329  0.00  0.00    -0.190 N 
ATOM      2  C   UNL d   1      28.671 -15.179  -1.362  0.00  0.00     0.704 C 
ATOM      3  N   UNL d   1      27.671 -16.016  -1.426  0.00  0.00    -0.023 NA
ATOM      4  C   UNL d   1      27.236 -16.591  -0.256  0.00  0.00     0.297 C 
ATOM      5  O   UNL d   1      27.994 -16.989   0.599  0.00  0.00    -0.265 OA
ATOM      6  N   UNL d   1      29.440 -15.161  -2.543  0.00  0.00    -0.224 N 
ATOM      7  H   UNL d   1      30.031 -13.951  -0.387  0.00  0.00     0.184 HD
ATOM      8  H   UNL d   1      30.388 -14.801  -2.527  0.00  0.00     0.177 HD
ENDROOT
BRANCH   1   9
ATOM      9  C   UNL d   1      28.489 -14.077   0.966  0.00  0.00     0.052 C 
ATOM     10  C   UNL d   1      27.411 -13.245   1.231  0.00  0.00     0.033 C 
ATOM     11  C   UNL d   1      27.095 -12.847   2.583  0.00  0.00     0.042 C 
ATOM     12  C   UNL d   1      27.896 -13.176   3.699  0.00  0.00     0.101 C 
ATOM     13  C   UNL d   1      28.930 -14.031   3.419  0.00  0.00     0.103 C 
ATOM     14  C   UNL d   1      28.984 -14.638   2.129  0.00  0.00     0.069 C 
BRANCH  12  15
ATOM     15  O   UNL d   1      27.397 -12.885   4.944  0.00  0.00    -0.353 OA
ATOM     16  C   UNL d   1      28.145 -12.134   5.899  0.00  0.00     0.210 C 
ENDBRANCH  12  15
BRANCH  13  17
ATOM     17  O   UNL d   1      30.023 -14.357   4.151  0.00  0.00    -0.353 OA
ATOM     18  C   UNL d   1      29.980 -14.824   5.463  0.00  0.00     0.210 C 
ENDBRANCH  13  17
ENDBRANCH   1   9
BRANCH   6  19
ATOM     19  C   UNL d   1      29.132 -16.154  -3.609  0.00  0.00     0.142 C 
BRANCH  19  20
ATOM     20  C   UNL d   1      28.510 -15.573  -4.878  0.00  0.00     0.057 C 
BRANCH  20  21
ATOM     21  C   UNL d   1      27.224 -14.795  -4.710  0.00  0.00    -0.048 A 
ATOM     22  C   UNL d   1      27.219 -13.555  -4.211  0.00  0.00    -0.006 A 
ATOM     23  C   UNL d   1      28.276 -12.714  -3.771  0.00  0.00     0.014 A 
ATOM     24  C   UNL d   1      25.812 -13.141  -4.123  0.00  0.00     0.038 A 
ATOM     25  C   UNL d   1      27.964 -11.554  -3.184  0.00  0.00     0.001 A 
ATOM     26  C   UNL d   1      26.587 -11.093  -3.103  0.00  0.00     0.002 A 
ATOM     27  C   UNL d   1      25.530 -11.815  -3.529  0.00  0.00     0.030 A 
ATOM     28  N   UNL d   1      25.027 -14.034  -4.590  0.00  0.00    -0.385 N 
ATOM     29  C   UNL d   1      25.813 -15.235  -5.020  0.00  0.00     0.155 A 
ATOM     30  H   UNL d   1      24.018 -13.896  -4.651  0.00  0.00     0.160 HD
ENDBRANCH  20  21
ENDBRANCH  19  20
ENDBRANCH   6  19
BRANCH   4  31
ATOM     31  C   UNL d   1      25.798 -17.013  -0.194  0.00  0.00     0.073 C 
ATOM     32  C   UNL d   1      25.208 -18.281   0.060  0.00  0.00     0.020 C 
ATOM     33  C   UNL d   1      23.951 -18.591  -0.496  0.00  0.00     0.001 C 
ATOM     34  C   UNL d   1      23.228 -17.600  -1.142  0.00  0.00     0.003 C 
ATOM     35  C   UNL d   1      23.768 -16.324  -1.270  0.00  0.00     0.043 C 
ATOM     36  C   UNL d   1      25.046 -16.049  -0.818  0.00  0.00     0.132 C 
ATOM     37  F   UNL d   1      25.569 -14.833  -1.029  0.00  0.00    -0.205 F 
ENDBRANCH   4  31
TORSDOF 7
ENDMDL
MODEL 6
REMARK VINA RESULT:    -7.876      3.233      8.243
REMARK INTER + INTRA:         -13.143
REMARK INTER:                  -9.965
REMARK INTRA:                  -3.178
REMARK CONF_INDEPENDENT:        2.088
REMARK UNBOUND:                -3.178
REMARK  7 active torsions:
REMARK  status: ('A' for Active; 'I' for Inactive)
REMARK    1  A    between atoms: O_2  and  C_3 
REMARK    2  A    between atoms: C_6  and  N_7 
REMARK       I    between atoms: N_7  and  C_8 
REMARK       I    between atoms: C_8  and  N_19 
REMARK       I    between atoms: N_9  and  C_10 
REMARK    3  A    between atoms: C_10  and  C_12 
REMARK    4  A    between atoms: N_19  and  C_20 
REMARK    5  A    between atoms: C_20  and  C_21 
REMARK    6  A    between atoms: C_21  and  C_22 
REMARK    7  A    between atoms: C_32  and  O_33 
ROOT
ATOM      1  N   UNL d   1      27.932 -16.333   0.624  0.00  0.00    -0.190 N 
ATOM      2  C   UNL d   1      28.929 -15.663  -0.128  0.00  0.00     0.704 C 
ATOM      3  N   UNL d   1      28.921 -15.212  -1.353  0.00  0.00    -0.023 NA
ATOM      4  C   UNL d   1      28.142 -15.868  -2.275  0.00  0.00     0.297 C 
ATOM      5  O   UNL d   1      28.063 -17.075  -2.327  0.00  0.00    -0.265 OA
ATOM      6  N   UNL d   1      30.147 -15.410   0.535  0.00  0.00    -0.224 N 
ATOM      7  H   UNL d   1      28.244 -16.826   1.448  0.00  0.00     0.184 HD
ATOM      8  H   UNL d   1      30.401 -15.950   1.355  0.00  0.00     0.177 HD
ENDROOT
BRANCH   1   9
ATOM      9  C   UNL d   1      26.592 -16.699   0.233  0.00  0.00     0.052 C 
ATOM     10  C   UNL d   1      25.925 -17.857   0.605  0.00  0.00     0.033 C 
ATOM     11  C   UNL d   1      24.728 -18.279  -0.084  0.00  0.00     0.042 C 
ATOM     12  C   UNL d   1      24.214 -17.622  -1.224  0.00  0.00     0.101 C 
ATOM     13  C   UNL d   1      24.864 -16.460  -1.548  0.00  0.00     0.103 C 
ATOM     14  C   UNL d   1      25.828 -15.939  -0.633  0.00  0.00     0.069 C 
BRANCH  12  15
ATOM     15  O   UNL d   1      22.981 -18.017  -1.680  0.00  0.00    -0.353 OA
ATOM     16  C   UNL d   1      22.002 -18.582  -0.810  0.00  0.00     0.210 C 
ENDBRANCH  12  15
BRANCH  13  17
ATOM     17  O   UNL d   1      24.825 -15.717  -2.681  0.00  0.00    -0.353 OA
ATOM     18  C   UNL d   1      24.253 -14.450  -2.770  0.00  0.00     0.210 C 
ENDBRANCH  13  17
ENDBRANCH   1   9
BRANCH   6  19
ATOM     19  C   UNL d   1      31.275 -14.829  -0.244  0.00  0.00     0.142 C 
BRANCH  19  20
ATOM     20  C   UNL d   1      31.879 -15.753  -1.300  0.00  0.00     0.057 C 
BRANCH  20  21
ATOM     21  C   UNL d   1      31.539 -15.450  -2.743  0.00  0.00    -0.048 A 
ATOM     22  C   UNL d   1      31.125 -16.408  -3.578  0.00  0.00    -0.006 A 
ATOM     23  C   UNL d   1      30.895 -17.795  -3.377  0.00  0.00     0.014 A 
ATOM     24  C   UNL d   1      30.960 -15.779  -4.895  0.00  0.00     0.038 A 
ATOM     25  C   UNL d   1      30.605 -18.554  -4.441  0.00  0.00     0.001 A 
ATOM     26  C   UNL d   1      30.405 -17.966  -5.756  0.00  0.00     0.002 A 
ATOM     27  C   UNL d   1      30.569 -16.654  -6.023  0.00  0.00     0.030 A 
ATOM     28  N   UNL d   1      31.197 -14.524  -4.851  0.00  0.00    -0.385 N 
ATOM     29  C   UNL d   1      31.620 -14.129  -3.470  0.00  0.00     0.155 A 
ATOM     30  H   UNL d   1      31.086 -13.919  -5.665  0.00  0.00     0.160 HD
ENDBRANCH  20  21
ENDBRANCH  19  20
ENDBRANCH   6  19
BRANCH   4  31
ATOM     31  C   UNL d   1      27.632 -15.065  -3.436  0.00  0.00     0.073 C 
ATOM     32  C   UNL d   1      27.714 -15.293  -4.837  0.00  0.00     0.020 C 
ATOM     33  C   UNL d   1      27.722 -14.199  -5.723  0.00  0.00     0.001 C 
ATOM     34  C   UNL d   1      27.479 -12.923  -5.236  0.00  0.00     0.003 C 
ATOM     35  C   UNL d   1      27.272 -12.735  -3.873  0.00  0.00     0.043 C 
ATOM     36  C   UNL d   1      27.370 -13.794  -2.989  0.00  0.00     0.132 C 
ATOM     37  F   UNL d   1      27.246 -13.565  -1.674  0.00  0.00    -0.205 F 
ENDBRANCH   4  31
TORSDOF 7
ENDMDL
MODEL 7
REMARK VINA RESULT:    -7.772      5.029      7.229
REMARK INTER + INTRA:         -12.549
REMARK INTER:                  -9.860
REMARK INTRA:                  -2.689
REMARK CONF_INDEPENDENT:        2.088
REMARK UNBOUND:                -2.689
REMARK  7 active torsions:
REMARK  status: ('A' for Active; 'I' for Inactive)
REMARK    1  A    between atoms: O_2  and  C_3 
REMARK    2  A    between atoms: C_6  and  N_7 
REMARK       I    between atoms: N_7  and  C_8 
REMARK       I    between atoms: C_8  and  N_19 
REMARK       I    between atoms: N_9  and  C_10 
REMARK    3  A    between atoms: C_10  and  C_12 
REMARK    4  A    between atoms: N_19  and  C_20 
REMARK    5  A    between atoms: C_20  and  C_21 
REMARK    6  A    between atoms: C_21  and  C_22 
REMARK    7  A    between atoms: C_32  and  O_33 
ROOT
ATOM      1  N   UNL d   1      29.392 -15.474   0.994  0.00  0.00    -0.190 N 
ATOM      2  C   UNL d   1      29.274 -16.357  -0.108  0.00  0.00     0.704 C 
ATOM      3  N   UNL d   1      28.404 -16.404  -1.080  0.00  0.00    -0.023 NA
ATOM      4  C   UNL d   1      27.129 -15.958  -0.826  0.00  0.00     0.297 C 
ATOM      5  O   UNL d   1      26.543 -16.204   0.204  0.00  0.00    -0.265 OA
ATOM      6  N   UNL d   1      30.256 -17.363  -0.211  0.00  0.00    -0.224 N 
ATOM      7  H   UNL d   1      29.970 -15.785   1.761  0.00  0.00     0.184 HD
ATOM      8  H   UNL d   1      30.796 -17.631   0.605  0.00  0.00     0.177 HD
ENDROOT
BRANCH   1   9
ATOM      9  C   UNL d   1      28.567 -14.343   1.344  0.00  0.00     0.052 C 
ATOM     10  C   UNL d   1      28.615 -13.089   0.754  0.00  0.00     0.033 C 
ATOM     11  C   UNL d   1      27.982 -11.950   1.377  0.00  0.00     0.042 C 
ATOM     12  C   UNL d   1      27.373 -11.998   2.651  0.00  0.00     0.101 C 
ATOM     13  C   UNL d   1      27.302 -13.253   3.195  0.00  0.00     0.103 C 
ATOM     14  C   UNL d   1      27.653 -14.372   2.381  0.00  0.00     0.069 C 
BRANCH  12  15
ATOM     15  O   UNL d   1      26.661 -10.896   3.054  0.00  0.00    -0.353 OA
ATOM     16  C   UNL d   1      27.244  -9.876   3.863  0.00  0.00     0.210 C 
ENDBRANCH  12  15
BRANCH  13  17
ATOM     17  O   UNL d   1      27.030 -13.648   4.463  0.00  0.00    -0.353 OA
ATOM     18  C   UNL d   1      27.844 -14.492   5.215  0.00  0.00     0.210 C 
ENDBRANCH  13  17
ENDBRANCH   1   9
BRANCH   6  19
ATOM     19  C   UNL d   1      30.107 -18.399  -1.270  0.00  0.00     0.142 C 
BRANCH  19  20
ATOM     20  C   UNL d   1      31.225 -18.427  -2.312  0.00  0.00     0.057 C 
BRANCH  20  21
ATOM     21  C   UNL d   1      30.831 -18.117  -3.740  0.00  0.00    -0.048 A 
ATOM     22  C   UNL d   1      30.381 -16.909  -4.092  0.00  0.00    -0.006 A 
ATOM     23  C   UNL d   1      30.186 -15.721  -3.338  0.00  0.00     0.014 A 
ATOM     24  C   UNL d   1      30.031 -16.988  -5.517  0.00  0.00     0.038 A 
ATOM     25  C   UNL d   1      29.587 -14.682  -3.930  0.00  0.00     0.001 A 
ATOM     26  C   UNL d   1      29.251 -14.708  -5.345  0.00  0.00     0.002 A 
ATOM     27  C   UNL d   1      29.436 -15.784  -6.138  0.00  0.00     0.030 A 
ATOM     28  N   UNL d   1      30.305 -18.136  -6.007  0.00  0.00    -0.385 N 
ATOM     29  C   UNL d   1      30.841 -19.036  -4.938  0.00  0.00     0.155 A 
ATOM     30  H   UNL d   1      30.169 -18.353  -6.994  0.00  0.00     0.160 HD
ENDBRANCH  20  21
ENDBRANCH  19  20
ENDBRANCH   6  19
BRANCH   4  31
ATOM     31  C   UNL d   1      26.345 -15.425  -1.989  0.00  0.00     0.073 C 
ATOM     32  C   UNL d   1      26.134 -15.950  -3.292  0.00  0.00     0.020 C 
ATOM     33  C   UNL d   1      25.900 -15.074  -4.370  0.00  0.00     0.001 C 
ATOM     34  C   UNL d   1      25.710 -13.723  -4.122  0.00  0.00     0.003 C 
ATOM     35  C   UNL d   1      25.793 -13.243  -2.818  0.00  0.00     0.043 C 
ATOM     36  C   UNL d   1      26.128 -14.086  -1.775  0.00  0.00     0.132 C 
ATOM     37  F   UNL d   1      26.280 -13.578  -0.543  0.00  0.00    -0.205 F 
ENDBRANCH   4  31
TORSDOF 7
ENDMDL
MODEL 8
REMARK VINA RESULT:    -7.761      3.243      8.109
REMARK INTER + INTRA:         -13.025
REMARK INTER:                  -9.849
REMARK INTRA:                  -3.176
REMARK CONF_INDEPENDENT:        2.088
REMARK UNBOUND:                -3.176
REMARK  7 active torsions:
REMARK  status: ('A' for Active; 'I' for Inactive)
REMARK    1  A    between atoms: O_2  and  C_3 
REMARK    2  A    between atoms: C_6  and  N_7 
REMARK       I    between atoms: N_7  and  C_8 
REMARK       I    between atoms: C_8  and  N_19 
REMARK       I    between atoms: N_9  and  C_10 
REMARK    3  A    between atoms: C_10  and  C_12 
REMARK    4  A    between atoms: N_19  and  C_20 
REMARK    5  A    between atoms: C_20  and  C_21 
REMARK    6  A    between atoms: C_21  and  C_22 
REMARK    7  A    between atoms: C_32  and  O_33 
ROOT
ATOM      1  N   UNL d   1      27.943 -16.377   0.614  0.00  0.00    -0.190 N 
ATOM      2  C   UNL d   1      28.929 -15.674  -0.122  0.00  0.00     0.704 C 
ATOM      3  N   UNL d   1      28.919 -15.206  -1.341  0.00  0.00    -0.023 NA
ATOM      4  C   UNL d   1      28.161 -15.867  -2.277  0.00  0.00     0.297 C 
ATOM      5  O   UNL d   1      28.110 -17.075  -2.346  0.00  0.00    -0.265 OA
ATOM      6  N   UNL d   1      30.137 -15.402   0.553  0.00  0.00    -0.224 N 
ATOM      7  H   UNL d   1      28.261 -16.874   1.433  0.00  0.00     0.184 HD
ATOM      8  H   UNL d   1      30.397 -15.947   1.367  0.00  0.00     0.177 HD
ENDROOT
BRANCH   1   9
ATOM      9  C   UNL d   1      26.614 -16.768   0.208  0.00  0.00     0.052 C 
ATOM     10  C   UNL d   1      25.975 -17.950   0.553  0.00  0.00     0.033 C 
ATOM     11  C   UNL d   1      24.792 -18.387  -0.150  0.00  0.00     0.042 C 
ATOM     12  C   UNL d   1      24.267 -17.721  -1.280  0.00  0.00     0.101 C 
ATOM     13  C   UNL d   1      24.889 -16.536  -1.576  0.00  0.00     0.103 C 
ATOM     14  C   UNL d   1      25.835 -16.010  -0.646  0.00  0.00     0.069 C 
BRANCH  12  15
ATOM     15  O   UNL d   1      23.046 -18.137  -1.750  0.00  0.00    -0.353 OA
ATOM     16  C   UNL d   1      21.961 -18.430  -0.871  0.00  0.00     0.210 C 
ENDBRANCH  12  15
BRANCH  13  17
ATOM     17  O   UNL d   1      24.837 -15.772  -2.694  0.00  0.00    -0.353 OA
ATOM     18  C   UNL d   1      24.199 -14.535  -2.771  0.00  0.00     0.210 C 
ENDBRANCH  13  17
ENDBRANCH   1   9
BRANCH   6  19
ATOM     19  C   UNL d   1      31.256 -14.784  -0.211  0.00  0.00     0.142 C 
BRANCH  19  20
ATOM     20  C   UNL d   1      32.299 -15.765  -0.743  0.00  0.00     0.057 C 
BRANCH  20  21
ATOM     21  C   UNL d   1      31.779 -16.954  -1.522  0.00  0.00    -0.048 A 
ATOM     22  C   UNL d   1      31.443 -16.849  -2.811  0.00  0.00    -0.006 A 
ATOM     23  C   UNL d   1      31.487 -15.748  -3.709  0.00  0.00     0.014 A 
ATOM     24  C   UNL d   1      30.917 -18.159  -3.219  0.00  0.00     0.038 A 
ATOM     25  C   UNL d   1      30.955 -15.898  -4.927  0.00  0.00     0.001 A 
ATOM     26  C   UNL d   1      30.451 -17.185  -5.379  0.00  0.00     0.002 A 
ATOM     27  C   UNL d   1      30.406 -18.287  -4.602  0.00  0.00     0.030 A 
ATOM     28  N   UNL d   1      30.987 -19.011  -2.269  0.00  0.00    -0.385 N 
ATOM     29  C   UNL d   1      31.532 -18.361  -1.035  0.00  0.00     0.155 A 
ATOM     30  H   UNL d   1      30.708 -19.985  -2.389  0.00  0.00     0.160 HD
ENDBRANCH  20  21
ENDBRANCH  19  20
ENDBRANCH   6  19
BRANCH   4  31
ATOM     31  C   UNL d   1      27.640 -15.060  -3.431  0.00  0.00     0.073 C 
ATOM     32  C   UNL d   1      27.768 -15.247  -4.834  0.00  0.00     0.020 C 
ATOM     33  C   UNL d   1      27.743 -14.132  -5.693  0.00  0.00     0.001 C 
ATOM     34  C   UNL d   1      27.425 -12.883  -5.180  0.00  0.00     0.003 C 
ATOM     35  C   UNL d   1      27.176 -12.740  -3.819  0.00  0.00     0.043 C 
ATOM     36  C   UNL d   1      27.305 -13.815  -2.960  0.00  0.00     0.132 C 
ATOM     37  F   UNL d   1      27.138 -13.627  -1.643  0.00  0.00    -0.205 F 
ENDBRANCH   4  31
TORSDOF 7
ENDMDL
MODEL 9
REMARK VINA RESULT:    -7.680      3.155      7.691
REMARK INTER + INTRA:         -12.657
REMARK INTER:                  -9.768
REMARK INTRA:                  -2.890
REMARK CONF_INDEPENDENT:        2.088
REMARK UNBOUND:                -2.890
REMARK  7 active torsions:
REMARK  status: ('A' for Active; 'I' for Inactive)
REMARK    1  A    between atoms: O_2  and  C_3 
REMARK    2  A    between atoms: C_6  and  N_7 
REMARK       I    between atoms: N_7  and  C_8 
REMARK       I    between atoms: C_8  and  N_19 
REMARK       I    between atoms: N_9  and  C_10 
REMARK    3  A    between atoms: C_10  and  C_12 
REMARK    4  A    between atoms: N_19  and  C_20 
REMARK    5  A    between atoms: C_20  and  C_21 
REMARK    6  A    between atoms: C_21  and  C_22 
REMARK    7  A    between atoms: C_32  and  O_33 
ROOT
ATOM      1  N   UNL d   1      27.997 -16.406   0.690  0.00  0.00    -0.190 N 
ATOM      2  C   UNL d   1      28.991 -15.690  -0.023  0.00  0.00     0.704 C 
ATOM      3  N   UNL d   1      28.996 -15.212  -1.238  0.00  0.00    -0.023 NA
ATOM      4  C   UNL d   1      28.257 -15.868  -2.192  0.00  0.00     0.297 C 
ATOM      5  O   UNL d   1      28.215 -17.075  -2.273  0.00  0.00    -0.265 OA
ATOM      6  N   UNL d   1      30.186 -15.418   0.673  0.00  0.00    -0.224 N 
ATOM      7  H   UNL d   1      28.305 -16.909   1.510  0.00  0.00     0.184 HD
ATOM      8  H   UNL d   1      30.437 -15.969   1.486  0.00  0.00     0.177 HD
ENDROOT
BRANCH   1   9
ATOM      9  C   UNL d   1      26.678 -16.801   0.261  0.00  0.00     0.052 C 
ATOM     10  C   UNL d   1      26.033 -17.982   0.599  0.00  0.00     0.033 C 
ATOM     11  C   UNL d   1      24.864 -18.424  -0.125  0.00  0.00     0.042 C 
ATOM     12  C   UNL d   1      24.361 -17.763  -1.268  0.00  0.00     0.101 C 
ATOM     13  C   UNL d   1      24.987 -16.579  -1.558  0.00  0.00     0.103 C 
ATOM     14  C   UNL d   1      25.914 -16.048  -0.612  0.00  0.00     0.069 C 
BRANCH  12  15
ATOM     15  O   UNL d   1      23.150 -18.183  -1.760  0.00  0.00    -0.353 OA
ATOM     16  C   UNL d   1      22.089 -18.594  -0.900  0.00  0.00     0.210 C 
ENDBRANCH  12  15
BRANCH  13  17
ATOM     17  O   UNL d   1      24.956 -15.820  -2.680  0.00  0.00    -0.353 OA
ATOM     18  C   UNL d   1      24.336 -14.575  -2.770  0.00  0.00     0.210 C 
ENDBRANCH  13  17
ENDBRANCH   1   9
BRANCH   6  19
ATOM     19  C   UNL d   1      31.313 -14.787  -0.068  0.00  0.00     0.142 C 
BRANCH  19  20
ATOM     20  C   UNL d   1      31.383 -13.264   0.031  0.00  0.00     0.057 C 
BRANCH  20  21
ATOM     21  C   UNL d   1      30.072 -12.515  -0.069  0.00  0.00    -0.048 A 
ATOM     22  C   UNL d   1      29.173 -12.548   0.919  0.00  0.00    -0.006 A 
ATOM     23  C   UNL d   1      29.191 -13.190   2.186  0.00  0.00     0.014 A 
ATOM     24  C   UNL d   1      28.008 -11.782   0.456  0.00  0.00     0.038 A 
ATOM     25  C   UNL d   1      28.080 -13.162   2.930  0.00  0.00     0.001 A 
ATOM     26  C   UNL d   1      26.916 -12.391   2.522  0.00  0.00     0.002 A 
ATOM     27  C   UNL d   1      26.832 -11.724   1.352  0.00  0.00     0.030 A 
ATOM     28  N   UNL d   1      28.208 -11.271  -0.698  0.00  0.00    -0.385 N 
ATOM     29  C   UNL d   1      29.553 -11.679  -1.215  0.00  0.00     0.155 A 
ATOM     30  H   UNL d   1      27.523 -10.669  -1.154  0.00  0.00     0.160 HD
ENDBRANCH  20  21
ENDBRANCH  19  20
ENDBRANCH   6  19
BRANCH   4  31
ATOM     31  C   UNL d   1      27.750 -15.053  -3.346  0.00  0.00     0.073 C 
ATOM     32  C   UNL d   1      27.945 -15.195  -4.746  0.00  0.00     0.020 C 
ATOM     33  C   UNL d   1      27.906 -14.059  -5.577  0.00  0.00     0.001 C 
ATOM     34  C   UNL d   1      27.511 -12.840  -5.047  0.00  0.00     0.003 C 
ATOM     35  C   UNL d   1      27.199 -12.746  -3.694  0.00  0.00     0.043 C 
ATOM     36  C   UNL d   1      27.340 -13.837  -2.858  0.00  0.00     0.132 C 
ATOM     37  F   UNL d   1      27.108 -13.693  -1.545  0.00  0.00    -0.205 F 
ENDBRANCH   4  31
TORSDOF 7
ENDMDL
