MODEL 1
REMARK VINA RESULT:    -7.918      0.000      0.000
REMARK INTER + INTRA:         -11.638
REMARK INTER:                 -10.006
REMARK INTRA:                  -1.632
REMARK CONF_INDEPENDENT:        2.088
REMARK UNBOUND:                -1.632
REMARK  7 active torsions:
REMARK  status: ('A' for Active; 'I' for Inactive)
REMARK    1  A    between atoms: O_2  and  C_3 
REMARK    2  A    between atoms: N_11  and  C_12 
REMARK    3  A    between atoms: C_12  and  C_13 
REMARK    4  A    between atoms: C_13  and  C_14 
REMARK    5  A    between atoms: C_14  and  C_15 
REMARK    6  A    between atoms: C_15  and  C_16 
REMARK       I    between atoms: C_16  and  N_18 
REMARK    7  A    between atoms: C_21  and  C_22 
REMARK       I    between atoms: C_22  and  N_23 
ROOT
ATOM      1  C   UNL d   1      22.360 -17.666  -0.646  0.00  0.00     0.069 A 
ATOM      2  C   UNL d   1      23.006 -18.648   0.105  0.00  0.00     0.039 A 
ATOM      3  C   UNL d   1      24.375 -18.574   0.384  0.00  0.00     0.033 A 
ATOM      4  C   UNL d   1      25.083 -17.487  -0.128  0.00  0.00     0.045 A 
ATOM      5  N   UNL d   1      26.422 -17.162  -0.014  0.00  0.00    -0.349 N 
ATOM      6  C   UNL d   1      26.671 -15.999  -0.687  0.00  0.00     0.129 A 
ATOM      7  C   UNL d   1      27.900 -15.285  -0.836  0.00  0.00     0.279 A 
ATOM      8  O   UNL d   1      28.947 -15.688  -0.324  0.00  0.00    -0.265 OA
ATOM      9  N   UNL d   1      27.791 -14.094  -1.610  0.00  0.00    -0.289 N 
ATOM     10  C   UNL d   1      26.556 -13.670  -2.179  0.00  0.00     0.181 A 
ATOM     11  S   UNL d   1      26.112 -12.345  -3.121  0.00  0.00    -0.040 SA
ATOM     12  N   UNL d   1      25.458 -14.451  -1.956  0.00  0.00    -0.330 N 
ATOM     13  C   UNL d   1      25.491 -15.593  -1.230  0.00  0.00     0.079 A 
ATOM     14  C   UNL d   1      24.468 -16.500  -0.902  0.00  0.00     0.022 A 
ATOM     15  C   UNL d   1      23.088 -16.596  -1.179  0.00  0.00     0.053 A 
ATOM     16  H   UNL d   1      27.116 -17.698   0.490  0.00  0.00     0.166 HD
ATOM     17  H   UNL d   1      24.590 -14.135  -2.367  0.00  0.00     0.168 HD
ENDROOT
BRANCH   9  18
ATOM     18  C   UNL d   1      29.095 -13.390  -1.733  0.00  0.00     0.135 C 
BRANCH  18  19
ATOM     19  C   UNL d   1      29.061 -11.913  -1.413  0.00  0.00     0.021 C 
BRANCH  19  20
ATOM     20  C   UNL d   1      29.018 -11.507   0.034  0.00  0.00     0.011 C 
BRANCH  20  21
ATOM     21  C   UNL d   1      27.549 -11.461   0.490  0.00  0.00     0.103 C 
BRANCH  21  22
ATOM     22  C   UNL d   1      27.207 -12.710   1.282  0.00  0.00     0.219 C 
ATOM     23  O   UNL d   1      26.311 -13.473   0.927  0.00  0.00    -0.273 OA
ATOM     24  N   UNL d   1      28.058 -13.011   2.330  0.00  0.00    -0.352 N 
ATOM     25  C   UNL d   1      28.352 -14.406   2.640  0.00  0.00     0.126 C 
ATOM     26  C   UNL d   1      28.466 -12.044   3.331  0.00  0.00     0.126 C 
ATOM     27  C   UNL d   1      27.782 -14.824   3.989  0.00  0.00     0.034 C 
ATOM     28  C   UNL d   1      28.241 -13.862   5.100  0.00  0.00     0.081 C 
ATOM     29  C   UNL d   1      27.888 -12.419   4.708  0.00  0.00     0.034 C 
BRANCH  28  30
ATOM     30  C   UNL d   1      29.724 -14.085   5.427  0.00  0.00     0.219 C 
ATOM     31  N   UNL d   1      30.414 -15.011   4.705  0.00  0.00    -0.370 N 
ATOM     32  H   UNL d   1      30.047 -15.551   3.938  0.00  0.00     0.159 HD
ATOM     33  H   UNL d   1      31.374 -15.192   4.968  0.00  0.00     0.159 HD
ATOM     34  O   UNL d   1      30.303 -13.463   6.312  0.00  0.00    -0.273 OA
ENDBRANCH  28  30
ENDBRANCH  21  22
ENDBRANCH  20  21
ENDBRANCH  19  20
ENDBRANCH  18  19
ENDBRANCH   9  18
BRANCH   1  35
ATOM     35  O   UNL d   1      21.030 -17.719  -0.971  0.00  0.00    -0.356 OA
ATOM     36  C   UNL d   1      20.440 -19.012  -0.834  0.00  0.00     0.210 C 
ENDBRANCH   1  35
TORSDOF 7
ENDMDL
MODEL 2
REMARK VINA RESULT:    -7.592      2.223      7.904
REMARK INTER + INTRA:         -10.816
REMARK INTER:                  -9.680
REMARK INTRA:                  -1.136
REMARK CONF_INDEPENDENT:        2.088
REMARK UNBOUND:                -1.136
REMARK  7 active torsions:
REMARK  status: ('A' for Active; 'I' for Inactive)
REMARK    1  A    between atoms: O_2  and  C_3 
REMARK    2  A    between atoms: N_11  and  C_12 
REMARK    3  A    between atoms: C_12  and  C_13 
REMARK    4  A    between atoms: C_13  and  C_14 
REMARK    5  A    between atoms: C_14  and  C_15 
REMARK    6  A    between atoms: C_15  and  C_16 
REMARK       I    between atoms: C_16  and  N_18 
REMARK    7  A    between atoms: C_21  and  C_22 
REMARK       I    between atoms: C_22  and  N_23 
ROOT
ATOM      1  C   UNL d   1      28.421 -12.455   5.400  0.00  0.00     0.069 A 
ATOM      2  C   UNL d   1      28.115 -11.108   5.210  0.00  0.00     0.039 A 
ATOM      3  C   UNL d   1      27.798 -10.601   3.944  0.00  0.00     0.033 A 
ATOM      4  C   UNL d   1      27.813 -11.488   2.868  0.00  0.00     0.045 A 
ATOM      5  N   UNL d   1      27.547 -11.269   1.529  0.00  0.00    -0.349 N 
ATOM      6  C   UNL d   1      27.689 -12.439   0.836  0.00  0.00     0.129 A 
ATOM      7  C   UNL d   1      27.510 -12.691  -0.559  0.00  0.00     0.279 A 
ATOM      8  O   UNL d   1      27.181 -11.795  -1.341  0.00  0.00    -0.265 OA
ATOM      9  N   UNL d   1      27.743 -14.044  -0.940  0.00  0.00    -0.289 N 
ATOM     10  C   UNL d   1      28.120 -15.043   0.002  0.00  0.00     0.181 A 
ATOM     11  S   UNL d   1      28.459 -16.688  -0.132  0.00  0.00    -0.040 SA
ATOM     12  N   UNL d   1      28.255 -14.660   1.306  0.00  0.00    -0.330 N 
ATOM     13  C   UNL d   1      28.049 -13.394   1.736  0.00  0.00     0.079 A 
ATOM     14  C   UNL d   1      28.139 -12.838   3.025  0.00  0.00     0.022 A 
ATOM     15  C   UNL d   1      28.462 -13.329   4.307  0.00  0.00     0.053 A 
ATOM     16  H   UNL d   1      27.286 -10.382   1.119  0.00  0.00     0.166 HD
ATOM     17  H   UNL d   1      28.524 -15.383   1.961  0.00  0.00     0.168 HD
ENDROOT
BRANCH   9  18
ATOM     18  C   UNL d   1      27.542 -14.252  -2.399  0.00  0.00     0.135 C 
BRANCH  18  19
ATOM     19  C   UNL d   1      26.151 -13.951  -2.906  0.00  0.00     0.021 C 
BRANCH  19  20
ATOM     20  C   UNL d   1      25.167 -15.087  -2.984  0.00  0.00     0.011 C 
BRANCH  20  21
ATOM     21  C   UNL d   1      25.733 -16.284  -2.201  0.00  0.00     0.103 C 
BRANCH  21  22
ATOM     22  C   UNL d   1      24.901 -16.537  -0.956  0.00  0.00     0.219 C 
ATOM     23  O   UNL d   1      25.200 -16.045   0.130  0.00  0.00    -0.273 OA
ATOM     24  N   UNL d   1      23.716 -17.222  -1.153  0.00  0.00    -0.352 N 
ATOM     25  C   UNL d   1      22.548 -16.882  -0.349  0.00  0.00     0.126 C 
ATOM     26  C   UNL d   1      23.622 -18.454  -1.912  0.00  0.00     0.126 C 
ATOM     27  C   UNL d   1      22.155 -18.012   0.595  0.00  0.00     0.034 C 
ATOM     28  C   UNL d   1      21.979 -19.334  -0.176  0.00  0.00     0.081 C 
ATOM     29  C   UNL d   1      23.250 -19.628  -0.987  0.00  0.00     0.034 C 
BRANCH  28  30
ATOM     30  C   UNL d   1      20.689 -19.304  -1.008  0.00  0.00     0.219 C 
ATOM     31  N   UNL d   1      19.556 -18.819  -0.430  0.00  0.00    -0.370 N 
ATOM     32  H   UNL d   1      19.487 -18.436   0.500  0.00  0.00     0.159 HD
ATOM     33  H   UNL d   1      18.699 -18.859  -0.967  0.00  0.00     0.159 HD
ATOM     34  O   UNL d   1      20.646 -19.703  -2.168  0.00  0.00    -0.273 OA
ENDBRANCH  28  30
ENDBRANCH  21  22
ENDBRANCH  20  21
ENDBRANCH  19  20
ENDBRANCH  18  19
ENDBRANCH   9  18
BRANCH   1  35
ATOM     35  O   UNL d   1      28.770 -12.985   6.615  0.00  0.00    -0.356 OA
ATOM     36  C   UNL d   1      29.230 -14.335   6.560  0.00  0.00     0.210 C 
ENDBRANCH   1  35
TORSDOF 7
ENDMDL
MODEL 3
REMARK VINA RESULT:    -7.107      4.984      7.217
REMARK INTER + INTRA:         -11.451
REMARK INTER:                  -9.195
REMARK INTRA:                  -2.255
REMARK CONF_INDEPENDENT:        2.088
REMARK UNBOUND:                -2.255
REMARK  7 active torsions:
REMARK  status: ('A' for Active; 'I' for Inactive)
REMARK    1  A    between atoms: O_2  and  C_3 
REMARK    2  A    between atoms: N_11  and  C_12 
REMARK    3  A    between atoms: C_12  and  C_13 
REMARK    4  A    between atoms: C_13  and  C_14 
REMARK    5  A    between atoms: C_14  and  C_15 
REMARK    6  A    between atoms: C_15  and  C_16 
REMARK       I    between atoms: C_16  and  N_18 
REMARK    7  A    between atoms: C_21  and  C_22 
REMARK       I    between atoms: C_22  and  N_23 
ROOT
ATOM      1  C   UNL d   1      31.220 -19.537  -7.374  0.00  0.00     0.069 A 
ATOM      2  C   UNL d   1      31.319 -20.098  -6.101  0.00  0.00     0.039 A 
ATOM      3  C   UNL d   1      30.944 -19.387  -4.956  0.00  0.00     0.033 A 
ATOM      4  C   UNL d   1      30.480 -18.083  -5.126  0.00  0.00     0.045 A 
ATOM      5  N   UNL d   1      30.049 -17.161  -4.189  0.00  0.00    -0.349 N 
ATOM      6  C   UNL d   1      29.687 -16.004  -4.818  0.00  0.00     0.129 A 
ATOM      7  C   UNL d   1      29.179 -14.790  -4.258  0.00  0.00     0.279 A 
ATOM      8  O   UNL d   1      29.005 -14.663  -3.044  0.00  0.00    -0.265 OA
ATOM      9  N   UNL d   1      28.902 -13.777  -5.221  0.00  0.00    -0.289 N 
ATOM     10  C   UNL d   1      29.120 -13.974  -6.614  0.00  0.00     0.181 A 
ATOM     11  S   UNL d   1      28.898 -12.996  -7.968  0.00  0.00    -0.040 SA
ATOM     12  N   UNL d   1      29.610 -15.186  -7.010  0.00  0.00    -0.330 N 
ATOM     13  C   UNL d   1      29.894 -16.192  -6.150  0.00  0.00     0.079 A 
ATOM     14  C   UNL d   1      30.392 -17.486  -6.385  0.00  0.00     0.022 A 
ATOM     15  C   UNL d   1      30.781 -18.217  -7.528  0.00  0.00     0.053 A 
ATOM     16  H   UNL d   1      30.005 -17.315  -3.191  0.00  0.00     0.166 HD
ATOM     17  H   UNL d   1      29.758 -15.309  -8.003  0.00  0.00     0.168 HD
ENDROOT
BRANCH   9  18
ATOM     18  C   UNL d   1      28.377 -12.538  -4.587  0.00  0.00     0.135 C 
BRANCH  18  19
ATOM     19  C   UNL d   1      27.385 -11.760  -5.421  0.00  0.00     0.021 C 
BRANCH  19  20
ATOM     20  C   UNL d   1      25.934 -12.146  -5.332  0.00  0.00     0.011 C 
BRANCH  20  21
ATOM     21  C   UNL d   1      25.536 -12.235  -3.848  0.00  0.00     0.103 C 
BRANCH  21  22
ATOM     22  C   UNL d   1      25.064 -13.638  -3.515  0.00  0.00     0.219 C 
ATOM     23  O   UNL d   1      23.994 -14.075  -3.935  0.00  0.00    -0.273 OA
ATOM     24  N   UNL d   1      25.972 -14.437  -2.845  0.00  0.00    -0.352 N 
ATOM     25  C   UNL d   1      26.022 -15.866  -3.131  0.00  0.00     0.126 C 
ATOM     26  C   UNL d   1      26.697 -14.006  -1.664  0.00  0.00     0.126 C 
ATOM     27  C   UNL d   1      25.569 -16.704  -1.942  0.00  0.00     0.034 C 
ATOM     28  C   UNL d   1      26.358 -16.327  -0.674  0.00  0.00     0.081 C 
ATOM     29  C   UNL d   1      26.248 -14.814  -0.433  0.00  0.00     0.034 C 
BRANCH  28  30
ATOM     30  C   UNL d   1      27.797 -16.853  -0.759  0.00  0.00     0.219 C 
ATOM     31  N   UNL d   1      28.476 -17.075   0.401  0.00  0.00    -0.370 N 
ATOM     32  H   UNL d   1      28.105 -16.958   1.330  0.00  0.00     0.159 HD
ATOM     33  H   UNL d   1      29.443 -17.364   0.332  0.00  0.00     0.159 HD
ATOM     34  O   UNL d   1      28.353 -17.075  -1.830  0.00  0.00    -0.273 OA
ENDBRANCH  28  30
ENDBRANCH  21  22
ENDBRANCH  20  21
ENDBRANCH  19  20
ENDBRANCH  18  19
ENDBRANCH   9  18
BRANCH   1  35
ATOM     35  O   UNL d   1      31.609 -20.186  -8.517  0.00  0.00    -0.356 OA
ATOM     36  C   UNL d   1      30.817 -19.883  -9.665  0.00  0.00     0.210 C 
ENDBRANCH   1  35
TORSDOF 7
ENDMDL
MODEL 4
REMARK VINA RESULT:    -6.607      4.969      8.756
REMARK INTER + INTRA:         -11.514
REMARK INTER:                  -8.695
REMARK INTRA:                  -2.819
REMARK CONF_INDEPENDENT:        2.088
REMARK UNBOUND:                -2.819
REMARK  7 active torsions:
REMARK  status: ('A' for Active; 'I' for Inactive)
REMARK    1  A    between atoms: O_2  and  C_3 
REMARK    2  A    between atoms: N_11  and  C_12 
REMARK    3  A    between atoms: C_12  and  C_13 
REMARK    4  A    between atoms: C_13  and  C_14 
REMARK    5  A    between atoms: C_14  and  C_15 
REMARK    6  A    between atoms: C_15  and  C_16 
REMARK       I    between atoms: C_16  and  N_18 
REMARK    7  A    between atoms: C_21  and  C_22 
REMARK       I    between atoms: C_22  and  N_23 
ROOT
ATOM      1  C   UNL d   1      29.894 -14.807  10.127  0.00  0.00     0.069 A 
ATOM      2  C   UNL d   1      29.038 -14.108  10.978  0.00  0.00     0.039 A 
ATOM      3  C   UNL d   1      28.559 -12.834  10.649  0.00  0.00     0.033 A 
ATOM      4  C   UNL d   1      28.979 -12.275   9.443  0.00  0.00     0.045 A 
ATOM      5  N   UNL d   1      28.673 -11.054   8.871  0.00  0.00    -0.349 N 
ATOM      6  C   UNL d   1      29.322 -10.931   7.675  0.00  0.00     0.129 A 
ATOM      7  C   UNL d   1      29.298  -9.850   6.741  0.00  0.00     0.279 A 
ATOM      8  O   UNL d   1      28.630  -8.834   6.944  0.00  0.00    -0.265 OA
ATOM      9  N   UNL d   1      30.102 -10.064   5.584  0.00  0.00    -0.289 N 
ATOM     10  C   UNL d   1      30.856 -11.257   5.395  0.00  0.00     0.181 A 
ATOM     11  S   UNL d   1      31.877 -11.796   4.167  0.00  0.00    -0.040 SA
ATOM     12  N   UNL d   1      30.785 -12.209   6.371  0.00  0.00    -0.330 N 
ATOM     13  C   UNL d   1      30.042 -12.071   7.493  0.00  0.00     0.079 A 
ATOM     14  C   UNL d   1      29.854 -12.942   8.582  0.00  0.00     0.022 A 
ATOM     15  C   UNL d   1      30.332 -14.222   8.933  0.00  0.00     0.053 A 
ATOM     16  H   UNL d   1      28.061 -10.355   9.273  0.00  0.00     0.166 HD
ATOM     17  H   UNL d   1      31.327 -13.050   6.220  0.00  0.00     0.168 HD
ENDROOT
BRANCH   9  18
ATOM     18  C   UNL d   1      30.042  -8.912   4.645  0.00  0.00     0.135 C 
BRANCH  18  19
ATOM     19  C   UNL d   1      28.660  -8.564   4.142  0.00  0.00     0.021 C 
BRANCH  19  20
ATOM     20  C   UNL d   1      28.174  -9.240   2.889  0.00  0.00     0.011 C 
BRANCH  20  21
ATOM     21  C   UNL d   1      26.836  -9.938   3.191  0.00  0.00     0.103 C 
BRANCH  21  22
ATOM     22  C   UNL d   1      26.884 -11.383   2.730  0.00  0.00     0.219 C 
ATOM     23  O   UNL d   1      26.266 -11.764   1.738  0.00  0.00    -0.273 OA
ATOM     24  N   UNL d   1      27.777 -12.200   3.399  0.00  0.00    -0.352 N 
ATOM     25  C   UNL d   1      28.478 -13.249   2.669  0.00  0.00     0.126 C 
ATOM     26  C   UNL d   1      27.862 -12.275   4.846  0.00  0.00     0.126 C 
ATOM     27  C   UNL d   1      28.051 -14.642   3.116  0.00  0.00     0.034 C 
ATOM     28  C   UNL d   1      28.185 -14.792   4.643  0.00  0.00     0.081 C 
ATOM     29  C   UNL d   1      27.413 -13.662   5.340  0.00  0.00     0.034 C 
BRANCH  28  30
ATOM     30  C   UNL d   1      29.662 -14.893   5.046  0.00  0.00     0.219 C 
ATOM     31  N   UNL d   1      30.586 -15.123   4.072  0.00  0.00    -0.370 N 
ATOM     32  H   UNL d   1      30.393 -15.199   3.086  0.00  0.00     0.159 HD
ATOM     33  H   UNL d   1      31.549 -15.246   4.356  0.00  0.00     0.159 HD
ATOM     34  O   UNL d   1      30.035 -14.778   6.210  0.00  0.00    -0.273 OA
ENDBRANCH  28  30
ENDBRANCH  21  22
ENDBRANCH  20  21
ENDBRANCH  19  20
ENDBRANCH  18  19
ENDBRANCH   9  18
BRANCH   1  35
ATOM     35  O   UNL d   1      30.413 -16.039  10.427  0.00  0.00    -0.356 OA
ATOM     36  C   UNL d   1      31.524 -16.010  11.322  0.00  0.00     0.210 C 
ENDBRANCH   1  35
TORSDOF 7
ENDMDL
MODEL 5
REMARK VINA RESULT:    -6.574      3.931      5.456
REMARK INTER + INTRA:         -10.923
REMARK INTER:                  -8.662
REMARK INTRA:                  -2.262
REMARK CONF_INDEPENDENT:        2.088
REMARK UNBOUND:                -2.262
REMARK  7 active torsions:
REMARK  status: ('A' for Active; 'I' for Inactive)
REMARK    1  A    between atoms: O_2  and  C_3 
REMARK    2  A    between atoms: N_11  and  C_12 
REMARK    3  A    between atoms: C_12  and  C_13 
REMARK    4  A    between atoms: C_13  and  C_14 
REMARK    5  A    between atoms: C_14  and  C_15 
REMARK    6  A    between atoms: C_15  and  C_16 
REMARK       I    between atoms: C_16  and  N_18 
REMARK    7  A    between atoms: C_21  and  C_22 
REMARK       I    between atoms: C_22  and  N_23 
ROOT
ATOM      1  C   UNL d   1      22.785 -17.700  -0.467  0.00  0.00     0.069 A 
ATOM      2  C   UNL d   1      23.647 -18.545   0.230  0.00  0.00     0.039 A 
ATOM      3  C   UNL d   1      25.036 -18.373   0.187  0.00  0.00     0.033 A 
ATOM      4  C   UNL d   1      25.535 -17.331  -0.593  0.00  0.00     0.045 A 
ATOM      5  N   UNL d   1      26.840 -16.933  -0.819  0.00  0.00    -0.349 N 
ATOM      6  C   UNL d   1      26.852 -15.857  -1.661  0.00  0.00     0.129 A 
ATOM      7  C   UNL d   1      27.965 -15.113  -2.163  0.00  0.00     0.279 A 
ATOM      8  O   UNL d   1      29.124 -15.398  -1.854  0.00  0.00    -0.265 OA
ATOM      9  N   UNL d   1      27.605 -14.040  -3.027  0.00  0.00    -0.289 N 
ATOM     10  C   UNL d   1      26.249 -13.750  -3.352  0.00  0.00     0.181 A 
ATOM     11  S   UNL d   1      25.517 -12.580  -4.320  0.00  0.00    -0.040 SA
ATOM     12  N   UNL d   1      25.285 -14.545  -2.800  0.00  0.00    -0.330 N 
ATOM     13  C   UNL d   1      25.557 -15.579  -1.972  0.00  0.00     0.079 A 
ATOM     14  C   UNL d   1      24.697 -16.483  -1.321  0.00  0.00     0.022 A 
ATOM     15  C   UNL d   1      23.301 -16.676  -1.270  0.00  0.00     0.053 A 
ATOM     16  H   UNL d   1      27.664 -17.367  -0.423  0.00  0.00     0.166 HD
ATOM     17  H   UNL d   1      24.327 -14.324  -3.042  0.00  0.00     0.168 HD
ENDROOT
BRANCH   9  18
ATOM     18  C   UNL d   1      28.797 -13.299  -3.519  0.00  0.00     0.135 C 
BRANCH  18  19
ATOM     19  C   UNL d   1      29.124 -13.503  -4.980  0.00  0.00     0.021 C 
BRANCH  19  20
ATOM     20  C   UNL d   1      28.416 -14.611  -5.712  0.00  0.00     0.011 C 
BRANCH  20  21
ATOM     21  C   UNL d   1      29.452 -15.405  -6.527  0.00  0.00     0.103 C 
BRANCH  21  22
ATOM     22  C   UNL d   1      30.721 -15.597  -5.716  0.00  0.00     0.219 C 
ATOM     23  O   UNL d   1      31.795 -15.125  -6.079  0.00  0.00    -0.273 OA
ATOM     24  N   UNL d   1      30.561 -16.198  -4.480  0.00  0.00    -0.352 N 
ATOM     25  C   UNL d   1      31.397 -15.777  -3.362  0.00  0.00     0.126 C 
ATOM     26  C   UNL d   1      29.810 -17.423  -4.279  0.00  0.00     0.126 C 
ATOM     27  C   UNL d   1      32.356 -16.875  -2.919  0.00  0.00     0.034 C 
ATOM     28  C   UNL d   1      31.595 -18.183  -2.630  0.00  0.00     0.081 C 
ATOM     29  C   UNL d   1      30.750 -18.566  -3.853  0.00  0.00     0.034 C 
BRANCH  28  30
ATOM     30  C   UNL d   1      30.801 -18.065  -1.322  0.00  0.00     0.219 C 
ATOM     31  N   UNL d   1      31.464 -18.220  -0.143  0.00  0.00    -0.370 N 
ATOM     32  H   UNL d   1      32.456 -18.373  -0.043  0.00  0.00     0.159 HD
ATOM     33  H   UNL d   1      30.921 -18.200   0.710  0.00  0.00     0.159 HD
ATOM     34  O   UNL d   1      29.594 -17.841  -1.304  0.00  0.00    -0.273 OA
ENDBRANCH  28  30
ENDBRANCH  21  22
ENDBRANCH  20  21
ENDBRANCH  19  20
ENDBRANCH  18  19
ENDBRANCH   9  18
BRANCH   1  35
ATOM     35  O   UNL d   1      21.424 -17.855  -0.479  0.00  0.00    -0.356 OA
ATOM     36  C   UNL d   1      20.962 -18.951  -1.269  0.00  0.00     0.210 C 
ENDBRANCH   1  35
TORSDOF 7
ENDMDL
MODEL 6
REMARK VINA RESULT:    -6.257      3.724      5.160
REMARK INTER + INTRA:         -11.039
REMARK INTER:                  -8.345
REMARK INTRA:                  -2.694
REMARK CONF_INDEPENDENT:        2.088
REMARK UNBOUND:                -2.694
REMARK  7 active torsions:
REMARK  status: ('A' for Active; 'I' for Inactive)
REMARK    1  A    between atoms: O_2  and  C_3 
REMARK    2  A    between atoms: N_11  and  C_12 
REMARK    3  A    between atoms: C_12  and  C_13 
REMARK    4  A    between atoms: C_13  and  C_14 
REMARK    5  A    between atoms: C_14  and  C_15 
REMARK    6  A    between atoms: C_15  and  C_16 
REMARK       I    between atoms: C_16  and  N_18 
REMARK    7  A    between atoms: C_21  and  C_22 
REMARK       I    between atoms: C_22  and  N_23 
ROOT
ATOM      1  C   UNL d   1      24.327 -17.630  -0.519  0.00  0.00     0.069 A 
ATOM      2  C   UNL d   1      24.924 -18.199   0.605  0.00  0.00     0.039 A 
ATOM      3  C   UNL d   1      26.313 -18.195   0.778  0.00  0.00     0.033 A 
ATOM      4  C   UNL d   1      27.089 -17.612  -0.223  0.00  0.00     0.045 A 
ATOM      5  N   UNL d   1      28.461 -17.468  -0.317  0.00  0.00    -0.349 N 
ATOM      6  C   UNL d   1      28.777 -16.833  -1.485  0.00  0.00     0.129 A 
ATOM      7  C   UNL d   1      30.060 -16.468  -1.998  0.00  0.00     0.279 A 
ATOM      8  O   UNL d   1      31.097 -16.715  -1.379  0.00  0.00    -0.265 OA
ATOM      9  N   UNL d   1      30.015 -15.808  -3.260  0.00  0.00    -0.289 N 
ATOM     10  C   UNL d   1      28.789 -15.545  -3.935  0.00  0.00     0.181 A 
ATOM     11  S   UNL d   1      28.414 -14.802  -5.401  0.00  0.00    -0.040 SA
ATOM     12  N   UNL d   1      27.635 -15.950  -3.327  0.00  0.00    -0.330 N 
ATOM     13  C   UNL d   1      27.606 -16.581  -2.130  0.00  0.00     0.079 A 
ATOM     14  C   UNL d   1      26.521 -17.055  -1.371  0.00  0.00     0.022 A 
ATOM     15  C   UNL d   1      25.119 -17.075  -1.531  0.00  0.00     0.053 A 
ATOM     16  H   UNL d   1      29.133 -17.782   0.370  0.00  0.00     0.166 HD
ATOM     17  H   UNL d   1      26.774 -15.755  -3.821  0.00  0.00     0.168 HD
ENDROOT
BRANCH   9  18
ATOM     18  C   UNL d   1      31.374 -15.449  -3.748  0.00  0.00     0.135 C 
BRANCH  18  19
ATOM     19  C   UNL d   1      32.039 -14.308  -3.014  0.00  0.00     0.021 C 
BRANCH  19  20
ATOM     20  C   UNL d   1      31.518 -12.917  -3.253  0.00  0.00     0.011 C 
BRANCH  20  21
ATOM     21  C   UNL d   1      30.862 -12.407  -1.958  0.00  0.00     0.103 C 
BRANCH  21  22
ATOM     22  C   UNL d   1      29.638 -11.570  -2.285  0.00  0.00     0.219 C 
ATOM     23  O   UNL d   1      29.681 -10.342  -2.298  0.00  0.00    -0.273 OA
ATOM     24  N   UNL d   1      28.525 -12.272  -2.712  0.00  0.00    -0.352 N 
ATOM     25  C   UNL d   1      27.652 -11.689  -3.725  0.00  0.00     0.126 C 
ATOM     26  C   UNL d   1      27.999 -13.434  -2.021  0.00  0.00     0.126 C 
ATOM     27  C   UNL d   1      26.276 -11.349  -3.166  0.00  0.00     0.034 C 
ATOM     28  C   UNL d   1      25.646 -12.574  -2.477  0.00  0.00     0.081 C 
ATOM     29  C   UNL d   1      26.617 -13.122  -1.420  0.00  0.00     0.034 C 
BRANCH  28  30
ATOM     30  C   UNL d   1      25.195 -13.606  -3.519  0.00  0.00     0.219 C 
ATOM     31  N   UNL d   1      24.780 -13.159  -4.737  0.00  0.00    -0.370 N 
ATOM     32  H   UNL d   1      24.773 -12.197  -5.039  0.00  0.00     0.159 HD
ATOM     33  H   UNL d   1      24.429 -13.842  -5.395  0.00  0.00     0.159 HD
ATOM     34  O   UNL d   1      25.193 -14.812  -3.292  0.00  0.00    -0.273 OA
ENDBRANCH  28  30
ENDBRANCH  21  22
ENDBRANCH  20  21
ENDBRANCH  19  20
ENDBRANCH  18  19
ENDBRANCH   9  18
BRANCH   1  35
ATOM     35  O   UNL d   1      22.975 -17.644  -0.744  0.00  0.00    -0.356 OA
ATOM     36  C   UNL d   1      22.399 -18.949  -0.794  0.00  0.00     0.210 C 
ENDBRANCH   1  35
TORSDOF 7
ENDMDL
MODEL 7
REMARK VINA RESULT:    -6.195      2.757      5.617
REMARK INTER + INTRA:         -11.465
REMARK INTER:                  -8.283
REMARK INTRA:                  -3.182
REMARK CONF_INDEPENDENT:        2.088
REMARK UNBOUND:                -3.182
REMARK  7 active torsions:
REMARK  status: ('A' for Active; 'I' for Inactive)
REMARK    1  A    between atoms: O_2  and  C_3 
REMARK    2  A    between atoms: N_11  and  C_12 
REMARK    3  A    between atoms: C_12  and  C_13 
REMARK    4  A    between atoms: C_13  and  C_14 
REMARK    5  A    between atoms: C_14  and  C_15 
REMARK    6  A    between atoms: C_15  and  C_16 
REMARK       I    between atoms: C_16  and  N_18 
REMARK    7  A    between atoms: C_21  and  C_22 
REMARK       I    between atoms: C_22  and  N_23 
ROOT
ATOM      1  C   UNL d   1      24.407 -17.749  -0.841  0.00  0.00     0.069 A 
ATOM      2  C   UNL d   1      25.189 -18.549  -0.008  0.00  0.00     0.039 A 
ATOM      3  C   UNL d   1      26.394 -18.085   0.533  0.00  0.00     0.033 A 
ATOM      4  C   UNL d   1      26.800 -16.793   0.198  0.00  0.00     0.045 A 
ATOM      5  N   UNL d   1      27.926 -16.086   0.578  0.00  0.00    -0.349 N 
ATOM      6  C   UNL d   1      27.906 -14.848  -0.001  0.00  0.00     0.129 A 
ATOM      7  C   UNL d   1      28.853 -13.783   0.111  0.00  0.00     0.279 A 
ATOM      8  O   UNL d   1      29.868 -13.890   0.803  0.00  0.00    -0.265 OA
ATOM      9  N   UNL d   1      28.509 -12.619  -0.636  0.00  0.00    -0.289 N 
ATOM     10  C   UNL d   1      27.323 -12.545  -1.421  0.00  0.00     0.181 A 
ATOM     11  S   UNL d   1      26.654 -11.341  -2.392  0.00  0.00    -0.040 SA
ATOM     12  N   UNL d   1      26.508 -13.640  -1.436  0.00  0.00    -0.330 N 
ATOM     13  C   UNL d   1      26.773 -14.776  -0.750  0.00  0.00     0.079 A 
ATOM     14  C   UNL d   1      26.049 -15.978  -0.652  0.00  0.00     0.022 A 
ATOM     15  C   UNL d   1      24.840 -16.466  -1.193  0.00  0.00     0.053 A 
ATOM     16  H   UNL d   1      28.654 -16.427   1.191  0.00  0.00     0.166 HD
ATOM     17  H   UNL d   1      25.669 -13.569  -1.998  0.00  0.00     0.168 HD
ENDROOT
BRANCH   9  18
ATOM     18  C   UNL d   1      29.524 -11.543  -0.485  0.00  0.00     0.135 C 
BRANCH  18  19
ATOM     19  C   UNL d   1      30.530 -11.444  -1.609  0.00  0.00     0.021 C 
BRANCH  19  20
ATOM     20  C   UNL d   1      31.354 -12.662  -1.925  0.00  0.00     0.011 C 
BRANCH  20  21
ATOM     21  C   UNL d   1      31.428 -12.825  -3.454  0.00  0.00     0.103 C 
BRANCH  21  22
ATOM     22  C   UNL d   1      30.648 -14.053  -3.888  0.00  0.00     0.219 C 
ATOM     23  O   UNL d   1      31.200 -15.134  -4.077  0.00  0.00    -0.273 OA
ATOM     24  N   UNL d   1      29.271 -13.916  -3.908  0.00  0.00    -0.352 N 
ATOM     25  C   UNL d   1      28.430 -15.048  -3.539  0.00  0.00     0.126 C 
ATOM     26  C   UNL d   1      28.588 -12.804  -4.543  0.00  0.00     0.126 C 
ATOM     27  C   UNL d   1      27.629 -15.575  -4.723  0.00  0.00     0.034 C 
ATOM     28  C   UNL d   1      26.832 -14.440  -5.395  0.00  0.00     0.081 C 
ATOM     29  C   UNL d   1      27.785 -13.293  -5.763  0.00  0.00     0.034 C 
BRANCH  28  30
ATOM     30  C   UNL d   1      25.647 -14.022  -4.515  0.00  0.00     0.219 C 
ATOM     31  N   UNL d   1      25.148 -12.762  -4.654  0.00  0.00    -0.370 N 
ATOM     32  H   UNL d   1      25.467 -12.074  -5.318  0.00  0.00     0.159 HD
ATOM     33  H   UNL d   1      24.407 -12.477  -4.028  0.00  0.00     0.159 HD
ATOM     34  O   UNL d   1      25.139 -14.779  -3.693  0.00  0.00    -0.273 OA
ENDBRANCH  28  30
ENDBRANCH  21  22
ENDBRANCH  20  21
ENDBRANCH  19  20
ENDBRANCH  18  19
ENDBRANCH   9  18
BRANCH   1  35
ATOM     35  O   UNL d   1      23.241 -18.177  -1.418  0.00  0.00    -0.356 OA
ATOM     36  C   UNL d   1      22.355 -18.854  -0.527  0.00  0.00     0.210 C 
ENDBRANCH   1  35
TORSDOF 7
ENDMDL
MODEL 8
REMARK VINA RESULT:    -6.113      1.892      2.495
REMARK INTER + INTRA:         -10.943
REMARK INTER:                  -8.201
REMARK INTRA:                  -2.742
REMARK CONF_INDEPENDENT:        2.088
REMARK UNBOUND:                -2.742
REMARK  7 active torsions:
REMARK  status: ('A' for Active; 'I' for Inactive)
REMARK    1  A    between atoms: O_2  and  C_3 
REMARK    2  A    between atoms: N_11  and  C_12 
REMARK    3  A    between atoms: C_12  and  C_13 
REMARK    4  A    between atoms: C_13  and  C_14 
REMARK    5  A    between atoms: C_14  and  C_15 
REMARK    6  A    between atoms: C_15  and  C_16 
REMARK       I    between atoms: C_16  and  N_18 
REMARK    7  A    between atoms: C_21  and  C_22 
REMARK       I    between atoms: C_22  and  N_23 
ROOT
ATOM      1  C   UNL d   1      22.873 -17.932  -0.704  0.00  0.00     0.069 A 
ATOM      2  C   UNL d   1      23.446 -18.413   0.473  0.00  0.00     0.039 A 
ATOM      3  C   UNL d   1      24.797 -18.200   0.769  0.00  0.00     0.033 A 
ATOM      4  C   UNL d   1      25.563 -17.500  -0.162  0.00  0.00     0.045 A 
ATOM      5  N   UNL d   1      26.900 -17.150  -0.134  0.00  0.00    -0.349 N 
ATOM      6  C   UNL d   1      27.219 -16.466  -1.274  0.00  0.00     0.129 A 
ATOM      7  C   UNL d   1      28.473 -15.908  -1.673  0.00  0.00     0.279 A 
ATOM      8  O   UNL d   1      29.477 -15.999  -0.961  0.00  0.00    -0.265 OA
ATOM      9  N   UNL d   1      28.442 -15.254  -2.938  0.00  0.00    -0.289 N 
ATOM     10  C   UNL d   1      27.256 -15.174  -3.722  0.00  0.00     0.181 A 
ATOM     11  S   UNL d   1      26.906 -14.487  -5.220  0.00  0.00    -0.040 SA
ATOM     12  N   UNL d   1      26.127 -15.753  -3.216  0.00  0.00    -0.330 N 
ATOM     13  C   UNL d   1      26.086 -16.389  -2.023  0.00  0.00     0.079 A 
ATOM     14  C   UNL d   1      25.022 -17.027  -1.360  0.00  0.00     0.022 A 
ATOM     15  C   UNL d   1      23.659 -17.257  -1.645  0.00  0.00     0.053 A 
ATOM     16  H   UNL d   1      27.548 -17.363   0.613  0.00  0.00     0.166 HD
ATOM     17  H   UNL d   1      25.294 -15.687  -3.787  0.00  0.00     0.168 HD
ENDROOT
BRANCH   9  18
ATOM     18  C   UNL d   1      29.770 -14.691  -3.304  0.00  0.00     0.135 C 
BRANCH  18  19
ATOM     19  C   UNL d   1      30.041 -13.297  -2.788  0.00  0.00     0.021 C 
BRANCH  19  20
ATOM     20  C   UNL d   1      29.449 -12.138  -3.543  0.00  0.00     0.011 C 
BRANCH  20  21
ATOM     21  C   UNL d   1      29.006 -11.065  -2.532  0.00  0.00     0.103 C 
BRANCH  21  22
ATOM     22  C   UNL d   1      27.763 -11.524  -1.792  0.00  0.00     0.219 C 
ATOM     23  O   UNL d   1      26.635 -11.265  -2.205  0.00  0.00    -0.273 OA
ATOM     24  N   UNL d   1      27.978 -12.372  -0.721  0.00  0.00    -0.352 N 
ATOM     25  C   UNL d   1      27.020 -13.435  -0.441  0.00  0.00     0.126 C 
ATOM     26  C   UNL d   1      28.949 -12.109   0.324  0.00  0.00     0.126 C 
ATOM     27  C   UNL d   1      26.280 -13.207   0.872  0.00  0.00     0.034 C 
ATOM     28  C   UNL d   1      27.273 -12.986   2.029  0.00  0.00     0.081 C 
ATOM     29  C   UNL d   1      28.239 -11.848   1.665  0.00  0.00     0.034 C 
BRANCH  28  30
ATOM     30  C   UNL d   1      27.961 -14.304   2.407  0.00  0.00     0.219 C 
ATOM     31  N   UNL d   1      28.763 -14.905   1.485  0.00  0.00    -0.370 N 
ATOM     32  H   UNL d   1      28.982 -14.542   0.570  0.00  0.00     0.159 HD
ATOM     33  H   UNL d   1      29.164 -15.804   1.723  0.00  0.00     0.159 HD
ATOM     34  O   UNL d   1      27.810 -14.834   3.504  0.00  0.00    -0.273 OA
ENDBRANCH  28  30
ENDBRANCH  21  22
ENDBRANCH  20  21
ENDBRANCH  19  20
ENDBRANCH  18  19
ENDBRANCH   9  18
BRANCH   1  35
ATOM     35  O   UNL d   1      21.564 -18.149  -1.049  0.00  0.00    -0.356 OA
ATOM     36  C   UNL d   1      20.976 -19.297  -0.437  0.00  0.00     0.210 C 
ENDBRANCH   1  35
TORSDOF 7
ENDMDL
MODEL 9
REMARK VINA RESULT:    -5.879      4.225      6.603
REMARK INTER + INTRA:         -10.704
REMARK INTER:                  -7.967
REMARK INTRA:                  -2.738
REMARK CONF_INDEPENDENT:        2.088
REMARK UNBOUND:                -2.738
REMARK  7 active torsions:
REMARK  status: ('A' for Active; 'I' for Inactive)
REMARK    1  A    between atoms: O_2  and  C_3 
REMARK    2  A    between atoms: N_11  and  C_12 
REMARK    3  A    between atoms: C_12  and  C_13 
REMARK    4  A    between atoms: C_13  and  C_14 
REMARK    5  A    between atoms: C_14  and  C_15 
REMARK    6  A    between atoms: C_15  and  C_16 
REMARK       I    between atoms: C_16  and  N_18 
REMARK    7  A    between atoms: C_21  and  C_22 
REMARK       I    between atoms: C_22  and  N_23 
ROOT
ATOM      1  C   UNL d   1      24.810 -17.873  -0.259  0.00  0.00     0.069 A 
ATOM      2  C   UNL d   1      24.308 -16.644  -0.686  0.00  0.00     0.039 A 
ATOM      3  C   UNL d   1      25.155 -15.620  -1.126  0.00  0.00     0.033 A 
ATOM      4  C   UNL d   1      26.528 -15.863  -1.110  0.00  0.00     0.045 A 
ATOM      5  N   UNL d   1      27.582 -15.048  -1.482  0.00  0.00    -0.349 N 
ATOM      6  C   UNL d   1      28.762 -15.709  -1.292  0.00  0.00     0.129 A 
ATOM      7  C   UNL d   1      30.097 -15.266  -1.542  0.00  0.00     0.279 A 
ATOM      8  O   UNL d   1      30.331 -14.143  -1.995  0.00  0.00    -0.265 OA
ATOM      9  N   UNL d   1      31.099 -16.230  -1.227  0.00  0.00    -0.289 N 
ATOM     10  C   UNL d   1      30.776 -17.516  -0.707  0.00  0.00     0.181 A 
ATOM     11  S   UNL d   1      31.708 -18.842  -0.246  0.00  0.00    -0.040 SA
ATOM     12  N   UNL d   1      29.455 -17.806  -0.517  0.00  0.00    -0.330 N 
ATOM     13  C   UNL d   1      28.455 -16.939  -0.796  0.00  0.00     0.079 A 
ATOM     14  C   UNL d   1      27.061 -17.076  -0.667  0.00  0.00     0.022 A 
ATOM     15  C   UNL d   1      26.192 -18.094  -0.220  0.00  0.00     0.053 A 
ATOM     16  H   UNL d   1      27.497 -14.106  -1.841  0.00  0.00     0.166 HD
ATOM     17  H   UNL d   1      29.245 -18.724  -0.148  0.00  0.00     0.168 HD
ENDROOT
BRANCH   9  18
ATOM     18  C   UNL d   1      32.468 -15.719  -1.507  0.00  0.00     0.135 C 
BRANCH  18  19
ATOM     19  C   UNL d   1      33.123 -16.284  -2.746  0.00  0.00     0.021 C 
BRANCH  19  20
ATOM     20  C   UNL d   1      32.233 -16.847  -3.820  0.00  0.00     0.011 C 
BRANCH  20  21
ATOM     21  C   UNL d   1      31.656 -15.682  -4.644  0.00  0.00     0.103 C 
BRANCH  21  22
ATOM     22  C   UNL d   1      30.243 -16.009  -5.093  0.00  0.00     0.219 C 
ATOM     23  O   UNL d   1      29.969 -17.079  -5.631  0.00  0.00    -0.273 OA
ATOM     24  N   UNL d   1      29.268 -15.099  -4.726  0.00  0.00    -0.352 N 
ATOM     25  C   UNL d   1      27.933 -15.575  -4.382  0.00  0.00     0.126 C 
ATOM     26  C   UNL d   1      29.394 -13.668  -4.926  0.00  0.00     0.126 C 
ATOM     27  C   UNL d   1      26.888 -15.126  -5.396  0.00  0.00     0.034 C 
ATOM     28  C   UNL d   1      26.938 -13.600  -5.596  0.00  0.00     0.081 C 
ATOM     29  C   UNL d   1      28.369 -13.179  -5.965  0.00  0.00     0.034 C 
BRANCH  28  30
ATOM     30  C   UNL d   1      26.360 -12.877  -4.372  0.00  0.00     0.219 C 
ATOM     31  N   UNL d   1      25.155 -12.255  -4.495  0.00  0.00    -0.370 N 
ATOM     32  H   UNL d   1      24.576 -12.254  -5.320  0.00  0.00     0.159 HD
ATOM     33  H   UNL d   1      24.812 -11.732  -3.700  0.00  0.00     0.159 HD
ATOM     34  O   UNL d   1      26.947 -12.838  -3.294  0.00  0.00    -0.273 OA
ENDBRANCH  28  30
ENDBRANCH  21  22
ENDBRANCH  20  21
ENDBRANCH  19  20
ENDBRANCH  18  19
ENDBRANCH   9  18
BRANCH   1  35
ATOM     35  O   UNL d   1      24.019 -18.888   0.212  0.00  0.00    -0.356 OA
ATOM     36  C   UNL d   1      22.953 -19.259  -0.661  0.00  0.00     0.210 C 
ENDBRANCH   1  35
TORSDOF 7
ENDMDL
