MODEL 1
REMARK VINA RESULT:    -8.157      0.000      0.000
REMARK INTER + INTRA:         -11.547
REMARK INTER:                 -10.842
REMARK INTRA:                  -0.705
REMARK CONF_INDEPENDENT:        2.685
REMARK UNBOUND:                -0.705
REMARK  9 active torsions:
REMARK  status: ('A' for Active; 'I' for Inactive)
REMARK    1  A    between atoms: C_2  and  C_3 
REMARK       I    between atoms: C_2  and  N_12 
REMARK    2  A    between atoms: C_3  and  C_4 
REMARK    3  A    between atoms: C_4  and  C_5 
REMARK    4  A    between atoms: C_5  and  N_6 
REMARK       I    between atoms: N_6  and  C_7 
REMARK    5  A    between atoms: C_7  and  C_9 
REMARK    6  A    between atoms: N_12  and  C_13 
REMARK    7  A    between atoms: C_14  and  C_13 
REMARK    8  A    between atoms: C_14  and  C_16 
REMARK    9  A    between atoms: C_14  and  O_15 
ROOT
ATOM      1  O   UNL d   1      26.276 -17.469  -0.663  0.00  0.00    -0.274 OA
ATOM      2  C   UNL d   1      25.334 -16.766  -1.014  0.00  0.00     0.217 C 
ATOM      3  N   UNL d   1      25.556 -15.865  -1.968  0.00  0.00    -0.359 N 
ATOM      4  H   UNL d   1      26.543 -16.002  -2.008  0.00  0.00     0.162 HD
ENDROOT
BRANCH   2   5
ATOM      5  C   UNL d   1      23.967 -16.826  -0.503  0.00  0.00     0.104 C 
BRANCH   5   6
ATOM      6  C   UNL d   1      23.661 -18.275  -0.269  0.00  0.00     0.029 C 
BRANCH   6   7
ATOM      7  C   UNL d   1      22.320 -18.539  -0.876  0.00  0.00     0.123 C 
BRANCH   7   8
ATOM      8  N   UNL d   1      21.564 -19.410  -0.035  0.00  0.00    -0.361 N 
ATOM      9  C   UNL d   1      20.382 -19.932  -0.493  0.00  0.00     0.221 C 
ATOM     10  O   UNL d   1      19.928 -19.706  -1.598  0.00  0.00    -0.273 OA
ATOM     11  H   UNL d   1      21.922 -19.646   0.877  0.00  0.00     0.162 HD
BRANCH   9  12
ATOM     12  C   UNL d   1      19.651 -20.812   0.455  0.00  0.00     0.078 A 
ATOM     13  C   UNL d   1      19.546 -20.451   1.918  0.00  0.00     0.015 A 
ATOM     14  C   UNL d   1      18.311 -20.467   1.062  0.00  0.00     0.015 A 
ENDBRANCH   9  12
ENDBRANCH   7   8
ENDBRANCH   6   7
ENDBRANCH   5   6
ENDBRANCH   2   5
BRANCH   3  15
ATOM     15  C   UNL d   1      24.827 -14.662  -2.377  0.00  0.00     0.154 C 
BRANCH  15  16
ATOM     16  C   UNL d   1      25.294 -13.853  -3.645  0.00  0.00     0.140 C 
BRANCH  16  17
ATOM     17  C   UNL d   1      26.790 -13.894  -4.125  0.00  0.00     0.016 C 
ATOM     18  C   UNL d   1      27.217 -15.301  -4.439  0.00  0.00     0.007 C 
ATOM     19  C   UNL d   1      28.533 -15.637  -5.052  0.00  0.00     0.000 C 
ATOM     20  C   UNL d   1      28.663 -14.810  -6.307  0.00  0.00     0.000 C 
ATOM     21  C   UNL d   1      28.442 -13.333  -5.971  0.00  0.00     0.000 C 
ATOM     22  C   UNL d   1      27.056 -13.051  -5.379  0.00  0.00     0.007 C 
ENDBRANCH  16  17
BRANCH  16  23
ATOM     23  O   UNL d   1      24.405 -14.182  -4.724  0.00  0.00    -0.394 OA
ATOM     24  H   UNL d   1      23.624 -13.607  -4.647  0.00  0.00     0.210 HD
ENDBRANCH  16  23
ENDBRANCH  15  16
ENDBRANCH   3  15
TORSDOF 9
ENDMDL
MODEL 2
REMARK VINA RESULT:    -7.739      1.835      2.507
REMARK INTER + INTRA:         -11.640
REMARK INTER:                 -10.423
REMARK INTRA:                  -1.217
REMARK CONF_INDEPENDENT:        2.685
REMARK UNBOUND:                -1.217
REMARK  9 active torsions:
REMARK  status: ('A' for Active; 'I' for Inactive)
REMARK    1  A    between atoms: C_2  and  C_3 
REMARK       I    between atoms: C_2  and  N_12 
REMARK    2  A    between atoms: C_3  and  C_4 
REMARK    3  A    between atoms: C_4  and  C_5 
REMARK    4  A    between atoms: C_5  and  N_6 
REMARK       I    between atoms: N_6  and  C_7 
REMARK    5  A    between atoms: C_7  and  C_9 
REMARK    6  A    between atoms: N_12  and  C_13 
REMARK    7  A    between atoms: C_14  and  C_13 
REMARK    8  A    between atoms: C_14  and  C_16 
REMARK    9  A    between atoms: C_14  and  O_15 
ROOT
ATOM      1  O   UNL d   1      24.496 -18.389   1.181  0.00  0.00    -0.274 OA
ATOM      2  C   UNL d   1      25.015 -18.029   0.129  0.00  0.00     0.217 C 
ATOM      3  N   UNL d   1      26.342 -17.961   0.086  0.00  0.00    -0.359 N 
ATOM      4  H   UNL d   1      26.484 -18.141   1.056  0.00  0.00     0.162 HD
ENDROOT
BRANCH   2   5
ATOM      5  C   UNL d   1      24.320 -17.678  -1.107  0.00  0.00     0.104 C 
BRANCH   5   6
ATOM      6  C   UNL d   1      23.280 -18.736  -1.329  0.00  0.00     0.029 C 
BRANCH   6   7
ATOM      7  C   UNL d   1      21.992 -18.197  -0.794  0.00  0.00     0.123 C 
BRANCH   7   8
ATOM      8  N   UNL d   1      21.380 -19.154   0.068  0.00  0.00    -0.361 N 
ATOM      9  C   UNL d   1      20.278 -19.845  -0.364  0.00  0.00     0.221 C 
ATOM     10  O   UNL d   1      19.779 -19.700  -1.464  0.00  0.00    -0.273 OA
ATOM     11  H   UNL d   1      21.780 -19.325   0.977  0.00  0.00     0.162 HD
BRANCH   9  12
ATOM     12  C   UNL d   1      19.693 -20.807   0.605  0.00  0.00     0.078 A 
ATOM     13  C   UNL d   1      18.790 -20.329   1.718  0.00  0.00     0.015 A 
ATOM     14  C   UNL d   1      18.233 -21.199   0.627  0.00  0.00     0.015 A 
ENDBRANCH   9  12
ENDBRANCH   7   8
ENDBRANCH   6   7
ENDBRANCH   5   6
ENDBRANCH   2   5
BRANCH   3  15
ATOM     15  C   UNL d   1      27.266 -17.265  -0.814  0.00  0.00     0.154 C 
BRANCH  15  16
ATOM     16  C   UNL d   1      27.279 -15.690  -0.863  0.00  0.00     0.140 C 
BRANCH  16  17
ATOM     17  C   UNL d   1      26.927 -14.921  -2.187  0.00  0.00     0.016 C 
ATOM     18  C   UNL d   1      27.639 -15.522  -3.367  0.00  0.00     0.007 C 
ATOM     19  C   UNL d   1      27.391 -15.099  -4.774  0.00  0.00     0.000 C 
ATOM     20  C   UNL d   1      25.905 -15.200  -5.014  0.00  0.00     0.000 C 
ATOM     21  C   UNL d   1      25.158 -14.409  -3.937  0.00  0.00     0.000 C 
ATOM     22  C   UNL d   1      25.429 -14.920  -2.518  0.00  0.00     0.007 C 
ENDBRANCH  16  17
BRANCH  16  23
ATOM     23  O   UNL d   1      26.481 -15.212   0.230  0.00  0.00    -0.394 OA
ATOM     24  H   UNL d   1      27.068 -15.106   0.998  0.00  0.00     0.210 HD
ENDBRANCH  16  23
ENDBRANCH  15  16
ENDBRANCH   3  15
TORSDOF 9
ENDMDL
MODEL 3
REMARK VINA RESULT:    -7.636      4.036      5.675
REMARK INTER + INTRA:         -11.231
REMARK INTER:                 -10.320
REMARK INTRA:                  -0.910
REMARK CONF_INDEPENDENT:        2.685
REMARK UNBOUND:                -0.910
REMARK  9 active torsions:
REMARK  status: ('A' for Active; 'I' for Inactive)
REMARK    1  A    between atoms: C_2  and  C_3 
REMARK       I    between atoms: C_2  and  N_12 
REMARK    2  A    between atoms: C_3  and  C_4 
REMARK    3  A    between atoms: C_4  and  C_5 
REMARK    4  A    between atoms: C_5  and  N_6 
REMARK       I    between atoms: N_6  and  C_7 
REMARK    5  A    between atoms: C_7  and  C_9 
REMARK    6  A    between atoms: N_12  and  C_13 
REMARK    7  A    between atoms: C_14  and  C_13 
REMARK    8  A    between atoms: C_14  and  C_16 
REMARK    9  A    between atoms: C_14  and  O_15 
ROOT
ATOM      1  O   UNL d   1      26.822 -18.567  -0.153  0.00  0.00    -0.274 OA
ATOM      2  C   UNL d   1      26.281 -17.466  -0.157  0.00  0.00     0.217 C 
ATOM      3  N   UNL d   1      27.044 -16.401   0.072  0.00  0.00    -0.359 N 
ATOM      4  H   UNL d   1      27.867 -16.913   0.300  0.00  0.00     0.162 HD
ENDROOT
BRANCH   2   5
ATOM      5  C   UNL d   1      24.868 -17.193  -0.408  0.00  0.00     0.104 C 
BRANCH   5   6
ATOM      6  C   UNL d   1      24.111 -18.407   0.044  0.00  0.00     0.029 C 
BRANCH   6   7
ATOM      7  C   UNL d   1      22.734 -18.299  -0.531  0.00  0.00     0.123 C 
BRANCH   7   8
ATOM      8  N   UNL d   1      21.839 -19.153   0.179  0.00  0.00    -0.361 N 
ATOM      9  C   UNL d   1      20.771 -19.707  -0.478  0.00  0.00     0.221 C 
ATOM     10  O   UNL d   1      20.534 -19.522  -1.656  0.00  0.00    -0.273 OA
ATOM     11  H   UNL d   1      22.017 -19.355   1.151  0.00  0.00     0.162 HD
BRANCH   9  12
ATOM     12  C   UNL d   1      19.879 -20.567   0.342  0.00  0.00     0.078 A 
ATOM     13  C   UNL d   1      19.036 -19.973   1.446  0.00  0.00     0.015 A 
ATOM     14  C   UNL d   1      18.371 -20.562   0.234  0.00  0.00     0.015 A 
ENDBRANCH   9  12
ENDBRANCH   7   8
ENDBRANCH   6   7
ENDBRANCH   5   6
ENDBRANCH   2   5
BRANCH   3  15
ATOM     15  C   UNL d   1      26.727 -15.032   0.488  0.00  0.00     0.154 C 
BRANCH  15  16
ATOM     16  C   UNL d   1      27.758 -14.215   1.356  0.00  0.00     0.140 C 
BRANCH  16  17
ATOM     17  C   UNL d   1      27.454 -13.869   2.858  0.00  0.00     0.016 C 
ATOM     18  C   UNL d   1      28.149 -14.828   3.784  0.00  0.00     0.007 C 
ATOM     19  C   UNL d   1      28.167 -14.666   5.265  0.00  0.00     0.000 C 
ATOM     20  C   UNL d   1      28.672 -13.274   5.555  0.00  0.00     0.000 C 
ATOM     21  C   UNL d   1      27.833 -12.254   4.782  0.00  0.00     0.000 C 
ATOM     22  C   UNL d   1      27.889 -12.455   3.263  0.00  0.00     0.007 C 
ENDBRANCH  16  17
BRANCH  16  23
ATOM     23  O   UNL d   1      29.037 -14.855   1.231  0.00  0.00    -0.394 OA
ATOM     24  H   UNL d   1      29.021 -15.654   1.785  0.00  0.00     0.210 HD
ENDBRANCH  16  23
ENDBRANCH  15  16
ENDBRANCH   3  15
TORSDOF 9
ENDMDL
MODEL 4
REMARK VINA RESULT:    -7.459      1.151      1.873
REMARK INTER + INTRA:         -10.884
REMARK INTER:                 -10.144
REMARK INTRA:                  -0.740
REMARK CONF_INDEPENDENT:        2.685
REMARK UNBOUND:                -0.740
REMARK  9 active torsions:
REMARK  status: ('A' for Active; 'I' for Inactive)
REMARK    1  A    between atoms: C_2  and  C_3 
REMARK       I    between atoms: C_2  and  N_12 
REMARK    2  A    between atoms: C_3  and  C_4 
REMARK    3  A    between atoms: C_4  and  C_5 
REMARK    4  A    between atoms: C_5  and  N_6 
REMARK       I    between atoms: N_6  and  C_7 
REMARK    5  A    between atoms: C_7  and  C_9 
REMARK    6  A    between atoms: N_12  and  C_13 
REMARK    7  A    between atoms: C_14  and  C_13 
REMARK    8  A    between atoms: C_14  and  C_16 
REMARK    9  A    between atoms: C_14  and  O_15 
ROOT
ATOM      1  O   UNL d   1      26.364 -17.960   0.227  0.00  0.00    -0.274 OA
ATOM      2  C   UNL d   1      25.723 -17.202  -0.495  0.00  0.00     0.217 C 
ATOM      3  N   UNL d   1      26.376 -16.196  -1.070  0.00  0.00    -0.359 N 
ATOM      4  H   UNL d   1      27.236 -16.345  -0.588  0.00  0.00     0.162 HD
ENDROOT
BRANCH   2   5
ATOM      5  C   UNL d   1      24.300 -17.300  -0.811  0.00  0.00     0.104 C 
BRANCH   5   6
ATOM      6  C   UNL d   1      23.737 -18.369   0.078  0.00  0.00     0.029 C 
BRANCH   6   7
ATOM      7  C   UNL d   1      22.742 -19.132  -0.737  0.00  0.00     0.123 C 
BRANCH   7   8
ATOM      8  N   UNL d   1      21.553 -19.352   0.021  0.00  0.00    -0.361 N 
ATOM      9  C   UNL d   1      20.378 -19.623  -0.631  0.00  0.00     0.221 C 
ATOM     10  O   UNL d   1      20.280 -19.700  -1.840  0.00  0.00    -0.273 OA
ATOM     11  H   UNL d   1      21.600 -19.326   1.027  0.00  0.00     0.162 HD
BRANCH   9  12
ATOM     12  C   UNL d   1      19.187 -19.819   0.235  0.00  0.00     0.078 A 
ATOM     13  C   UNL d   1      18.790 -21.201   0.701  0.00  0.00     0.015 A 
ATOM     14  C   UNL d   1      19.260 -20.182   1.700  0.00  0.00     0.015 A 
ENDBRANCH   9  12
ENDBRANCH   7   8
ENDBRANCH   6   7
ENDBRANCH   5   6
ENDBRANCH   2   5
BRANCH   3  15
ATOM     15  C   UNL d   1      25.921 -14.940  -1.669  0.00  0.00     0.154 C 
BRANCH  15  16
ATOM     16  C   UNL d   1      25.155 -14.956  -3.046  0.00  0.00     0.140 C 
BRANCH  16  17
ATOM     17  C   UNL d   1      25.524 -13.942  -4.188  0.00  0.00     0.016 C 
ATOM     18  C   UNL d   1      25.533 -12.529  -3.673  0.00  0.00     0.007 C 
ATOM     19  C   UNL d   1      25.988 -11.367  -4.486  0.00  0.00     0.000 C 
ATOM     20  C   UNL d   1      27.368 -11.694  -4.999  0.00  0.00     0.000 C 
ATOM     21  C   UNL d   1      27.338 -13.043  -5.722  0.00  0.00     0.000 C 
ATOM     22  C   UNL d   1      26.898 -14.201  -4.820  0.00  0.00     0.007 C 
ENDBRANCH  16  17
BRANCH  16  23
ATOM     23  O   UNL d   1      25.173 -16.305  -3.540  0.00  0.00    -0.394 OA
ATOM     24  H   UNL d   1      25.582 -16.862  -2.855  0.00  0.00     0.210 HD
ENDBRANCH  16  23
ENDBRANCH  15  16
ENDBRANCH   3  15
TORSDOF 9
ENDMDL
MODEL 5
REMARK VINA RESULT:    -7.294      2.320      3.124
REMARK INTER + INTRA:         -10.649
REMARK INTER:                  -9.979
REMARK INTRA:                  -0.670
REMARK CONF_INDEPENDENT:        2.685
REMARK UNBOUND:                -0.670
REMARK  9 active torsions:
REMARK  status: ('A' for Active; 'I' for Inactive)
REMARK    1  A    between atoms: C_2  and  C_3 
REMARK       I    between atoms: C_2  and  N_12 
REMARK    2  A    between atoms: C_3  and  C_4 
REMARK    3  A    between atoms: C_4  and  C_5 
REMARK    4  A    between atoms: C_5  and  N_6 
REMARK       I    between atoms: N_6  and  C_7 
REMARK    5  A    between atoms: C_7  and  C_9 
REMARK    6  A    between atoms: N_12  and  C_13 
REMARK    7  A    between atoms: C_14  and  C_13 
REMARK    8  A    between atoms: C_14  and  C_16 
REMARK    9  A    between atoms: C_14  and  O_15 
ROOT
ATOM      1  O   UNL d   1      26.241 -18.521   0.544  0.00  0.00    -0.274 OA
ATOM      2  C   UNL d   1      25.294 -18.116  -0.125  0.00  0.00     0.217 C 
ATOM      3  N   UNL d   1      25.562 -17.559  -1.302  0.00  0.00    -0.359 N 
ATOM      4  H   UNL d   1      26.553 -17.558  -1.191  0.00  0.00     0.162 HD
ENDROOT
BRANCH   2   5
ATOM      5  C   UNL d   1      23.880 -18.200   0.231  0.00  0.00     0.104 C 
BRANCH   5   6
ATOM      6  C   UNL d   1      23.211 -18.988  -0.856  0.00  0.00     0.029 C 
BRANCH   6   7
ATOM      7  C   UNL d   1      21.747 -18.692  -0.768  0.00  0.00     0.123 C 
BRANCH   7   8
ATOM      8  N   UNL d   1      21.100 -19.662   0.054  0.00  0.00    -0.361 N 
ATOM      9  C   UNL d   1      19.841 -20.093  -0.275  0.00  0.00     0.221 C 
ATOM     10  O   UNL d   1      19.227 -19.702  -1.249  0.00  0.00    -0.273 OA
ATOM     11  H   UNL d   1      21.587 -20.033   0.855  0.00  0.00     0.162 HD
BRANCH   9  12
ATOM     12  C   UNL d   1      19.234 -21.088   0.647  0.00  0.00     0.078 A 
ATOM     13  C   UNL d   1      18.277 -20.651   1.732  0.00  0.00     0.015 A 
ATOM     14  C   UNL d   1      17.782 -21.505   0.599  0.00  0.00     0.015 A 
ENDBRANCH   9  12
ENDBRANCH   7   8
ENDBRANCH   6   7
ENDBRANCH   5   6
ENDBRANCH   2   5
BRANCH   3  15
ATOM     15  C   UNL d   1      24.785 -16.677  -2.176  0.00  0.00     0.154 C 
BRANCH  15  16
ATOM     16  C   UNL d   1      25.297 -15.218  -2.478  0.00  0.00     0.140 C 
BRANCH  16  17
ATOM     17  C   UNL d   1      26.495 -14.598  -1.671  0.00  0.00     0.016 C 
ATOM     18  C   UNL d   1      26.477 -13.097  -1.746  0.00  0.00     0.007 C 
ATOM     19  C   UNL d   1      27.400 -12.229  -0.963  0.00  0.00     0.000 C 
ATOM     20  C   UNL d   1      27.272 -12.634   0.484  0.00  0.00     0.000 C 
ATOM     21  C   UNL d   1      27.502 -14.142   0.615  0.00  0.00     0.000 C 
ATOM     22  C   UNL d   1      26.495 -14.976  -0.184  0.00  0.00     0.007 C 
ENDBRANCH  16  17
BRANCH  16  23
ATOM     23  O   UNL d   1      25.533 -15.122  -3.891  0.00  0.00    -0.394 OA
ATOM     24  H   UNL d   1      25.443 -14.186  -4.141  0.00  0.00     0.210 HD
ENDBRANCH  16  23
ENDBRANCH  15  16
ENDBRANCH   3  15
TORSDOF 9
ENDMDL
MODEL 6
REMARK VINA RESULT:    -7.095      1.889      2.570
REMARK INTER + INTRA:         -10.620
REMARK INTER:                  -9.779
REMARK INTRA:                  -0.841
REMARK CONF_INDEPENDENT:        2.685
REMARK UNBOUND:                -0.841
REMARK  9 active torsions:
REMARK  status: ('A' for Active; 'I' for Inactive)
REMARK    1  A    between atoms: C_2  and  C_3 
REMARK       I    between atoms: C_2  and  N_12 
REMARK    2  A    between atoms: C_3  and  C_4 
REMARK    3  A    between atoms: C_4  and  C_5 
REMARK    4  A    between atoms: C_5  and  N_6 
REMARK       I    between atoms: N_6  and  C_7 
REMARK    5  A    between atoms: C_7  and  C_9 
REMARK    6  A    between atoms: N_12  and  C_13 
REMARK    7  A    between atoms: C_14  and  C_13 
REMARK    8  A    between atoms: C_14  and  C_16 
REMARK    9  A    between atoms: C_14  and  O_15 
ROOT
ATOM      1  O   UNL d   1      26.673 -18.230   1.133  0.00  0.00    -0.274 OA
ATOM      2  C   UNL d   1      26.585 -17.527   0.131  0.00  0.00     0.217 C 
ATOM      3  N   UNL d   1      27.688 -16.922  -0.298  0.00  0.00    -0.359 N 
ATOM      4  H   UNL d   1      28.255 -17.181   0.479  0.00  0.00     0.162 HD
ENDROOT
BRANCH   2   5
ATOM      5  C   UNL d   1      25.382 -17.296  -0.665  0.00  0.00     0.104 C 
BRANCH   5   6
ATOM      6  C   UNL d   1      24.236 -17.872   0.113  0.00  0.00     0.029 C 
BRANCH   6   7
ATOM      7  C   UNL d   1      23.283 -18.452  -0.883  0.00  0.00     0.123 C 
BRANCH   7   8
ATOM      8  N   UNL d   1      22.400 -19.370  -0.239  0.00  0.00    -0.361 N 
ATOM      9  C   UNL d   1      21.046 -19.173  -0.320  0.00  0.00     0.221 C 
ATOM     10  O   UNL d   1      20.533 -18.252  -0.926  0.00  0.00    -0.273 OA
ATOM     11  H   UNL d   1      22.785 -20.163   0.249  0.00  0.00     0.162 HD
BRANCH   9  12
ATOM     12  C   UNL d   1      20.202 -20.164   0.396  0.00  0.00     0.078 A 
ATOM     13  C   UNL d   1      19.124 -19.712   1.353  0.00  0.00     0.015 A 
ATOM     14  C   UNL d   1      18.746 -20.416   0.080  0.00  0.00     0.015 A 
ENDBRANCH   9  12
ENDBRANCH   7   8
ENDBRANCH   6   7
ENDBRANCH   5   6
ENDBRANCH   2   5
BRANCH   3  15
ATOM     15  C   UNL d   1      27.903 -15.778  -1.188  0.00  0.00     0.154 C 
BRANCH  15  16
ATOM     16  C   UNL d   1      27.900 -15.984  -2.750  0.00  0.00     0.140 C 
BRANCH  16  17
ATOM     17  C   UNL d   1      26.993 -15.100  -3.680  0.00  0.00     0.016 C 
ATOM     18  C   UNL d   1      25.604 -14.974  -3.119  0.00  0.00     0.007 C 
ATOM     19  C   UNL d   1      24.565 -14.080  -3.703  0.00  0.00     0.000 C 
ATOM     20  C   UNL d   1      25.167 -12.700  -3.797  0.00  0.00     0.000 C 
ATOM     21  C   UNL d   1      26.492 -12.770  -4.560  0.00  0.00     0.000 C 
ATOM     22  C   UNL d   1      27.528 -13.676  -3.886  0.00  0.00     0.007 C 
ENDBRANCH  16  17
BRANCH  16  23
ATOM     23  O   UNL d   1      29.264 -15.957  -3.197  0.00  0.00    -0.394 OA
ATOM     24  H   UNL d   1      29.349 -16.600  -3.922  0.00  0.00     0.210 HD
ENDBRANCH  16  23
ENDBRANCH  15  16
ENDBRANCH   3  15
TORSDOF 9
ENDMDL
MODEL 7
REMARK VINA RESULT:    -5.952      3.382      7.518
REMARK INTER + INTRA:         -10.718
REMARK INTER:                  -8.637
REMARK INTRA:                  -2.081
REMARK CONF_INDEPENDENT:        2.685
REMARK UNBOUND:                -2.081
REMARK  9 active torsions:
REMARK  status: ('A' for Active; 'I' for Inactive)
REMARK    1  A    between atoms: C_2  and  C_3 
REMARK       I    between atoms: C_2  and  N_12 
REMARK    2  A    between atoms: C_3  and  C_4 
REMARK    3  A    between atoms: C_4  and  C_5 
REMARK    4  A    between atoms: C_5  and  N_6 
REMARK       I    between atoms: N_6  and  C_7 
REMARK    5  A    between atoms: C_7  and  C_9 
REMARK    6  A    between atoms: N_12  and  C_13 
REMARK    7  A    between atoms: C_14  and  C_13 
REMARK    8  A    between atoms: C_14  and  C_16 
REMARK    9  A    between atoms: C_14  and  O_15 
ROOT
ATOM      1  O   UNL d   1      31.063 -16.420  -0.201  0.00  0.00    -0.274 OA
ATOM      2  C   UNL d   1      29.996 -16.792  -0.679  0.00  0.00     0.217 C 
ATOM      3  N   UNL d   1      28.957 -16.909   0.144  0.00  0.00    -0.359 N 
ATOM      4  H   UNL d   1      29.472 -16.743   0.981  0.00  0.00     0.162 HD
ENDROOT
BRANCH   2   5
ATOM      5  C   UNL d   1      29.734 -17.106  -2.082  0.00  0.00     0.104 C 
BRANCH   5   6
ATOM      6  C   UNL d   1      29.820 -15.810  -2.833  0.00  0.00     0.029 C 
BRANCH   6   7
ATOM      7  C   UNL d   1      28.891 -15.922  -4.000  0.00  0.00     0.123 C 
BRANCH   7   8
ATOM      8  N   UNL d   1      27.671 -15.237  -3.722  0.00  0.00    -0.361 N 
ATOM      9  C   UNL d   1      26.726 -15.114  -4.708  0.00  0.00     0.221 C 
ATOM     10  O   UNL d   1      26.857 -15.569  -5.828  0.00  0.00    -0.273 OA
ATOM     11  H   UNL d   1      27.512 -14.870  -2.796  0.00  0.00     0.162 HD
BRANCH   9  12
ATOM     12  C   UNL d   1      25.496 -14.368  -4.338  0.00  0.00     0.078 A 
ATOM     13  C   UNL d   1      25.301 -13.849  -2.932  0.00  0.00     0.015 A 
ATOM     14  C   UNL d   1      25.460 -12.881  -4.070  0.00  0.00     0.015 A 
ENDBRANCH   9  12
ENDBRANCH   7   8
ENDBRANCH   6   7
ENDBRANCH   5   6
ENDBRANCH   2   5
BRANCH   3  15
ATOM     15  C   UNL d   1      27.688 -17.632   0.032  0.00  0.00     0.154 C 
BRANCH  15  16
ATOM     16  C   UNL d   1      26.472 -16.975  -0.726  0.00  0.00     0.140 C 
BRANCH  16  17
ATOM     17  C   UNL d   1      25.007 -17.113  -0.175  0.00  0.00     0.016 C 
ATOM     18  C   UNL d   1      24.038 -16.334  -1.019  0.00  0.00     0.007 C 
ATOM     19  C   UNL d   1      22.561 -16.390  -0.830  0.00  0.00     0.000 C 
ATOM     20  C   UNL d   1      22.162 -17.845  -0.869  0.00  0.00     0.000 C 
ATOM     21  C   UNL d   1      22.996 -18.630   0.147  0.00  0.00     0.000 C 
ATOM     22  C   UNL d   1      24.502 -18.561  -0.128  0.00  0.00     0.007 C 
ENDBRANCH  16  17
BRANCH  16  23
ATOM     23  O   UNL d   1      26.798 -15.597  -0.963  0.00  0.00    -0.394 OA
ATOM     24  H   UNL d   1      26.642 -15.112  -0.134  0.00  0.00     0.210 HD
ENDBRANCH  16  23
ENDBRANCH  15  16
ENDBRANCH   3  15
TORSDOF 9
ENDMDL
MODEL 8
REMARK VINA RESULT:    -5.910      3.507      7.401
REMARK INTER + INTRA:         -10.722
REMARK INTER:                  -8.595
REMARK INTRA:                  -2.127
REMARK CONF_INDEPENDENT:        2.685
REMARK UNBOUND:                -2.127
REMARK  9 active torsions:
REMARK  status: ('A' for Active; 'I' for Inactive)
REMARK    1  A    between atoms: C_2  and  C_3 
REMARK       I    between atoms: C_2  and  N_12 
REMARK    2  A    between atoms: C_3  and  C_4 
REMARK    3  A    between atoms: C_4  and  C_5 
REMARK    4  A    between atoms: C_5  and  N_6 
REMARK       I    between atoms: N_6  and  C_7 
REMARK    5  A    between atoms: C_7  and  C_9 
REMARK    6  A    between atoms: N_12  and  C_13 
REMARK    7  A    between atoms: C_14  and  C_13 
REMARK    8  A    between atoms: C_14  and  C_16 
REMARK    9  A    between atoms: C_14  and  O_15 
ROOT
ATOM      1  O   UNL d   1      28.788 -13.691  -1.373  0.00  0.00    -0.274 OA
ATOM      2  C   UNL d   1      28.766 -14.848  -0.963  0.00  0.00     0.217 C 
ATOM      3  N   UNL d   1      27.828 -15.173  -0.078  0.00  0.00    -0.359 N 
ATOM      4  H   UNL d   1      27.486 -14.245   0.052  0.00  0.00     0.162 HD
ENDROOT
BRANCH   2   5
ATOM      5  C   UNL d   1      29.664 -15.929  -1.363  0.00  0.00     0.104 C 
BRANCH   5   6
ATOM      6  C   UNL d   1      28.960 -16.689  -2.448  0.00  0.00     0.029 C 
BRANCH   6   7
ATOM      7  C   UNL d   1      28.844 -15.767  -3.619  0.00  0.00     0.123 C 
BRANCH   7   8
ATOM      8  N   UNL d   1      27.609 -15.055  -3.561  0.00  0.00    -0.361 N 
ATOM      9  C   UNL d   1      26.799 -15.017  -4.667  0.00  0.00     0.221 C 
ATOM     10  O   UNL d   1      27.064 -15.571  -5.716  0.00  0.00    -0.273 OA
ATOM     11  H   UNL d   1      27.339 -14.606  -2.700  0.00  0.00     0.162 HD
BRANCH   9  12
ATOM     12  C   UNL d   1      25.543 -14.237  -4.525  0.00  0.00     0.078 A 
ATOM     13  C   UNL d   1      25.151 -13.641  -3.193  0.00  0.00     0.015 A 
ATOM     14  C   UNL d   1      25.499 -12.737  -4.341  0.00  0.00     0.015 A 
ENDBRANCH   9  12
ENDBRANCH   7   8
ENDBRANCH   6   7
ENDBRANCH   5   6
ENDBRANCH   2   5
BRANCH   3  15
ATOM     15  C   UNL d   1      27.706 -16.285   0.867  0.00  0.00     0.154 C 
BRANCH  15  16
ATOM     16  C   UNL d   1      27.015 -17.628   0.419  0.00  0.00     0.140 C 
BRANCH  16  17
ATOM     17  C   UNL d   1      25.737 -17.613  -0.495  0.00  0.00     0.016 C 
ATOM     18  C   UNL d   1      24.698 -18.572   0.015  0.00  0.00     0.007 C 
ATOM     19  C   UNL d   1      23.326 -18.671  -0.558  0.00  0.00     0.000 C 
ATOM     20  C   UNL d   1      22.737 -17.282  -0.548  0.00  0.00     0.000 C 
ATOM     21  C   UNL d   1      23.690 -16.317  -1.258  0.00  0.00     0.000 C 
ATOM     22  C   UNL d   1      25.070 -16.235  -0.596  0.00  0.00     0.007 C 
ENDBRANCH  16  17
BRANCH  16  23
ATOM     23  O   UNL d   1      28.030 -18.475  -0.142  0.00  0.00    -0.394 OA
ATOM     24  H   UNL d   1      28.779 -18.487   0.480  0.00  0.00     0.210 HD
ENDBRANCH  16  23
ENDBRANCH  15  16
ENDBRANCH   3  15
TORSDOF 9
ENDMDL
MODEL 9
REMARK VINA RESULT:    -5.401      3.591      7.544
REMARK INTER + INTRA:         -10.454
REMARK INTER:                  -8.085
REMARK INTRA:                  -2.369
REMARK CONF_INDEPENDENT:        2.685
REMARK UNBOUND:                -2.369
REMARK  9 active torsions:
REMARK  status: ('A' for Active; 'I' for Inactive)
REMARK    1  A    between atoms: C_2  and  C_3 
REMARK       I    between atoms: C_2  and  N_12 
REMARK    2  A    between atoms: C_3  and  C_4 
REMARK    3  A    between atoms: C_4  and  C_5 
REMARK    4  A    between atoms: C_5  and  N_6 
REMARK       I    between atoms: N_6  and  C_7 
REMARK    5  A    between atoms: C_7  and  C_9 
REMARK    6  A    between atoms: N_12  and  C_13 
REMARK    7  A    between atoms: C_14  and  C_13 
REMARK    8  A    between atoms: C_14  and  C_16 
REMARK    9  A    between atoms: C_14  and  O_15 
ROOT
ATOM      1  O   UNL d   1      29.180 -13.392  -1.727  0.00  0.00    -0.274 OA
ATOM      2  C   UNL d   1      28.370 -13.754  -0.879  0.00  0.00     0.217 C 
ATOM      3  N   UNL d   1      28.701 -14.787  -0.109  0.00  0.00    -0.359 N 
ATOM      4  H   UNL d   1      29.538 -15.014  -0.599  0.00  0.00     0.162 HD
ENDROOT
BRANCH   2   5
ATOM      5  C   UNL d   1      27.067 -13.150  -0.608  0.00  0.00     0.104 C 
BRANCH   5   6
ATOM      6  C   UNL d   1      26.978 -11.923  -1.466  0.00  0.00     0.029 C 
BRANCH   6   7
ATOM      7  C   UNL d   1      26.131 -12.279  -2.646  0.00  0.00     0.123 C 
BRANCH   7   8
ATOM      8  N   UNL d   1      26.763 -13.303  -3.412  0.00  0.00    -0.361 N 
ATOM      9  C   UNL d   1      25.997 -14.148  -4.171  0.00  0.00     0.221 C 
ATOM     10  O   UNL d   1      24.786 -14.077  -4.246  0.00  0.00    -0.273 OA
ATOM     11  H   UNL d   1      27.769 -13.377  -3.399  0.00  0.00     0.162 HD
BRANCH   9  12
ATOM     12  C   UNL d   1      26.736 -15.197  -4.920  0.00  0.00     0.078 A 
ATOM     13  C   UNL d   1      27.778 -14.823  -5.948  0.00  0.00     0.015 A 
ATOM     14  C   UNL d   1      28.192 -15.531  -4.689  0.00  0.00     0.015 A 
ENDBRANCH   9  12
ENDBRANCH   7   8
ENDBRANCH   6   7
ENDBRANCH   5   6
ENDBRANCH   2   5
BRANCH   3  15
ATOM     15  C   UNL d   1      27.903 -15.695   0.719  0.00  0.00     0.154 C 
BRANCH  15  16
ATOM     16  C   UNL d   1      27.600 -17.157   0.216  0.00  0.00     0.140 C 
BRANCH  16  17
ATOM     17  C   UNL d   1      26.279 -17.483  -0.570  0.00  0.00     0.016 C 
ATOM     18  C   UNL d   1      25.290 -18.197   0.309  0.00  0.00     0.007 C 
ATOM     19  C   UNL d   1      23.895 -18.506  -0.114  0.00  0.00     0.000 C 
ATOM     20  C   UNL d   1      23.273 -17.212  -0.577  0.00  0.00     0.000 C 
ATOM     21  C   UNL d   1      24.165 -16.567  -1.640  0.00  0.00     0.000 C 
ATOM     22  C   UNL d   1      25.573 -16.240  -1.128  0.00  0.00     0.007 C 
ENDBRANCH  16  17
BRANCH  16  23
ATOM     23  O   UNL d   1      28.750 -17.616  -0.511  0.00  0.00    -0.394 OA
ATOM     24  H   UNL d   1      29.197 -18.283   0.038  0.00  0.00     0.210 HD
ENDBRANCH  16  23
ENDBRANCH  15  16
ENDBRANCH   3  15
TORSDOF 9
ENDMDL
