MODEL 1
REMARK VINA RESULT:   -28.874      0.000      0.000
REMARK INTER + INTRA:         -30.861
REMARK INTER:                 -30.068
REMARK INTRA:                  -0.793
REMARK CONF_INDEPENDENT:        1.193
REMARK UNBOUND:                -0.793
REMARK  4 active torsions:
REMARK  status: ('A' for Active; 'I' for Inactive)
REMARK    1  A    between atoms: C_4  and  C_5 
REMARK    2  A    between atoms: C_8  and  N_9 
REMARK       I    between atoms: N_9  and  C_10 
REMARK       I    between atoms: C_10  and  N_12 
REMARK    3  A    between atoms: N_15  and  C_16 
REMARK    4  A    between atoms: C_19  and  N_20 
ROOT
ATOM      1  N   UNL d   1      26.864 -14.844  -2.231  0.00  0.00    -0.309 N 
ATOM      2  C   UNL d   1      26.621 -16.162  -1.867  0.00  0.00     0.323 C 
ATOM      3  O   UNL d   1      27.474 -17.050  -1.898  0.00  0.00    -0.247 OA
ATOM      4  N   UNL d   1      25.367 -16.489  -1.350  0.00  0.00    -0.331 N 
ATOM      5  C   UNL d   1      25.294 -17.839  -0.736  0.00  0.00     0.147 C 
ATOM      6  C   UNL d   1      24.184 -17.947   0.329  0.00  0.00     0.143 C 
ATOM      7  N   UNL d   1      22.909 -17.557  -0.284  0.00  0.00    -0.377 N 
ATOM      8  C   UNL d   1      22.917 -16.214  -0.894  0.00  0.00     0.143 C 
ATOM      9  C   UNL d   1      24.071 -16.082  -1.929  0.00  0.00     0.147 C 
ATOM     10  H   UNL d   1      26.126 -14.165  -2.123  0.00  0.00     0.170 HD
ENDROOT
BRANCH   1  11
ATOM     11  C   UNL d   1      28.130 -14.361  -2.731  0.00  0.00     0.036 A 
ATOM     12  C   UNL d   1      28.800 -13.288  -2.117  0.00  0.00     0.030 A 
ATOM     13  C   UNL d   1      29.964 -12.724  -2.702  0.00  0.00     0.016 A 
ATOM     14  C   UNL d   1      30.532 -13.274  -3.860  0.00  0.00    -0.007 A 
ATOM     15  C   UNL d   1      29.901 -14.369  -4.436  0.00  0.00     0.016 A 
ATOM     16  C   UNL d   1      28.737 -14.899  -3.873  0.00  0.00     0.030 A 
BRANCH  14  17
ATOM     17  C   UNL d   1      31.787 -12.790  -4.472  0.00  0.00     0.074 A 
ATOM     18  N   UNL d   1      31.807 -12.621  -5.839  0.00  0.00    -0.235 NA
ATOM     19  C   UNL d   1      32.937 -12.298  -6.377  0.00  0.00     0.103 A 
ATOM     20  C   UNL d   1      33.063 -12.108  -7.859  0.00  0.00     0.091 C 
ATOM     21  N   UNL d   1      34.086 -12.107  -5.664  0.00  0.00    -0.312 N 
ATOM     22  C   UNL d   1      34.117 -12.229  -4.310  0.00  0.00     0.248 A 
ATOM     23  H   UNL d   1      34.943 -11.816  -6.112  0.00  0.00     0.170 HD
ATOM     24  C   UNL d   1      32.862 -12.652  -3.684  0.00  0.00     0.106 A 
ATOM     25  O   UNL d   1      35.125 -11.996  -3.643  0.00  0.00    -0.268 OA
ENDBRANCH  14  17
ENDBRANCH   1  11
BRANCH   7  26
ATOM     26  C   UNL d   1      21.786 -18.345  -0.198  0.00  0.00     0.048 A 
ATOM     27  C   UNL d   1      21.404 -18.950   1.003  0.00  0.00     0.035 A 
ATOM     28  C   UNL d   1      20.227 -19.712   1.098  0.00  0.00     0.059 A 
ATOM     29  C   UNL d   1      19.434 -19.884  -0.037  0.00  0.00     0.195 A 
ATOM     30  N   UNL d   1      19.782 -19.325  -1.230  0.00  0.00    -0.236 NA
ATOM     31  C   UNL d   1      20.922 -18.579  -1.270  0.00  0.00     0.148 A 
BRANCH  29  32
ATOM     32  N   UNL d   1      18.189 -20.697   0.112  0.00  0.00    -0.096 N 
ATOM     33  O   UNL d   1      17.963 -21.200   1.224  0.00  0.00    -0.530 OA
ATOM     34  O   UNL d   1      17.449 -20.827  -0.877  0.00  0.00    -0.530 OA
ENDBRANCH  29  32
ENDBRANCH   7  26
TORSDOF 4
ENDMDL
MODEL 2
REMARK VINA RESULT:   -27.870      3.682      4.492
REMARK INTER + INTRA:         -29.849
REMARK INTER:                 -29.064
REMARK INTRA:                  -0.785
REMARK CONF_INDEPENDENT:        1.193
REMARK UNBOUND:                -0.785
REMARK  4 active torsions:
REMARK  status: ('A' for Active; 'I' for Inactive)
REMARK    1  A    between atoms: C_4  and  C_5 
REMARK    2  A    between atoms: C_8  and  N_9 
REMARK       I    between atoms: N_9  and  C_10 
REMARK       I    between atoms: C_10  and  N_12 
REMARK    3  A    between atoms: N_15  and  C_16 
REMARK    4  A    between atoms: C_19  and  N_20 
ROOT
ATOM      1  N   UNL d   1      28.191 -16.297   0.012  0.00  0.00    -0.309 N 
ATOM      2  C   UNL d   1      26.907 -15.797   0.185  0.00  0.00     0.323 C 
ATOM      3  O   UNL d   1      26.663 -14.635   0.511  0.00  0.00    -0.247 OA
ATOM      4  N   UNL d   1      25.824 -16.625  -0.113  0.00  0.00    -0.331 N 
ATOM      5  C   UNL d   1      24.517 -15.923  -0.167  0.00  0.00     0.147 C 
ATOM      6  C   UNL d   1      23.491 -16.648  -1.063  0.00  0.00     0.143 C 
ATOM      7  N   UNL d   1      23.350 -18.029  -0.586  0.00  0.00    -0.377 N 
ATOM      8  C   UNL d   1      24.618 -18.783  -0.530  0.00  0.00     0.143 C 
ATOM      9  C   UNL d   1      25.674 -18.026   0.325  0.00  0.00     0.147 C 
ATOM     10  H   UNL d   1      28.304 -17.246  -0.311  0.00  0.00     0.170 HD
ENDROOT
BRANCH   1  11
ATOM     11  C   UNL d   1      29.396 -15.533   0.236  0.00  0.00     0.036 A 
ATOM     12  C   UNL d   1      30.486 -15.607  -0.649  0.00  0.00     0.030 A 
ATOM     13  C   UNL d   1      31.719 -14.973  -0.343  0.00  0.00     0.016 A 
ATOM     14  C   UNL d   1      31.860 -14.179   0.805  0.00  0.00    -0.007 A 
ATOM     15  C   UNL d   1      30.765 -14.060   1.651  0.00  0.00     0.016 A 
ATOM     16  C   UNL d   1      29.564 -14.715   1.361  0.00  0.00     0.030 A 
BRANCH  14  17
ATOM     17  C   UNL d   1      33.085 -13.424   1.139  0.00  0.00     0.074 A 
ATOM     18  N   UNL d   1      33.560 -13.514   2.428  0.00  0.00    -0.235 NA
ATOM     19  C   UNL d   1      34.569 -12.770   2.740  0.00  0.00     0.103 A 
ATOM     20  C   UNL d   1      35.147 -12.785   4.123  0.00  0.00     0.091 C 
ATOM     21  N   UNL d   1      35.184 -11.924   1.860  0.00  0.00    -0.312 N 
ATOM     22  C   UNL d   1      34.778 -11.818   0.567  0.00  0.00     0.248 A 
ATOM     23  H   UNL d   1      35.995 -11.386   2.125  0.00  0.00     0.170 HD
ATOM     24  C   UNL d   1      33.598 -12.608   0.206  0.00  0.00     0.106 A 
ATOM     25  O   UNL d   1      35.359 -11.114  -0.259  0.00  0.00    -0.268 OA
ENDBRANCH  14  17
ENDBRANCH   1  11
BRANCH   7  26
ATOM     26  C   UNL d   1      22.122 -18.588  -0.318  0.00  0.00     0.048 A 
ATOM     27  C   UNL d   1      21.750 -18.950   0.980  0.00  0.00     0.035 A 
ATOM     28  C   UNL d   1      20.475 -19.472   1.257  0.00  0.00     0.059 A 
ATOM     29  C   UNL d   1      19.570 -19.650   0.210  0.00  0.00     0.195 A 
ATOM     30  N   UNL d   1      19.902 -19.325  -1.071  0.00  0.00    -0.236 NA
ATOM     31  C   UNL d   1      21.143 -18.805  -1.289  0.00  0.00     0.148 A 
BRANCH  29  32
ATOM     32  N   UNL d   1      18.224 -20.202   0.553  0.00  0.00    -0.096 N 
ATOM     33  O   UNL d   1      17.575 -20.739  -0.358  0.00  0.00    -0.530 OA
ATOM     34  O   UNL d   1      17.825 -20.095   1.725  0.00  0.00    -0.530 OA
ENDBRANCH  29  32
ENDBRANCH   7  26
TORSDOF 4
ENDMDL
MODEL 3
REMARK VINA RESULT:   -27.795      3.657      4.260
REMARK INTER + INTRA:         -29.772
REMARK INTER:                 -28.988
REMARK INTRA:                  -0.784
REMARK CONF_INDEPENDENT:        1.193
REMARK UNBOUND:                -0.784
REMARK  4 active torsions:
REMARK  status: ('A' for Active; 'I' for Inactive)
REMARK    1  A    between atoms: C_4  and  C_5 
REMARK    2  A    between atoms: C_8  and  N_9 
REMARK       I    between atoms: N_9  and  C_10 
REMARK       I    between atoms: C_10  and  N_12 
REMARK    3  A    between atoms: N_15  and  C_16 
REMARK    4  A    between atoms: C_19  and  N_20 
ROOT
ATOM      1  N   UNL d   1      28.193 -16.296   0.013  0.00  0.00    -0.309 N 
ATOM      2  C   UNL d   1      26.909 -15.796   0.185  0.00  0.00     0.323 C 
ATOM      3  O   UNL d   1      26.664 -14.634   0.510  0.00  0.00    -0.247 OA
ATOM      4  N   UNL d   1      25.827 -16.624  -0.113  0.00  0.00    -0.331 N 
ATOM      5  C   UNL d   1      24.519 -15.923  -0.168  0.00  0.00     0.147 C 
ATOM      6  C   UNL d   1      23.494 -16.648  -1.063  0.00  0.00     0.143 C 
ATOM      7  N   UNL d   1      23.353 -18.029  -0.586  0.00  0.00    -0.377 N 
ATOM      8  C   UNL d   1      24.620 -18.782  -0.528  0.00  0.00     0.143 C 
ATOM      9  C   UNL d   1      25.676 -18.026   0.327  0.00  0.00     0.147 C 
ATOM     10  H   UNL d   1      28.307 -17.245  -0.310  0.00  0.00     0.170 HD
ENDROOT
BRANCH   1  11
ATOM     11  C   UNL d   1      29.398 -15.531   0.237  0.00  0.00     0.036 A 
ATOM     12  C   UNL d   1      30.489 -15.607  -0.647  0.00  0.00     0.030 A 
ATOM     13  C   UNL d   1      31.722 -14.972  -0.341  0.00  0.00     0.016 A 
ATOM     14  C   UNL d   1      31.861 -14.177   0.806  0.00  0.00    -0.007 A 
ATOM     15  C   UNL d   1      30.766 -14.057   1.651  0.00  0.00     0.016 A 
ATOM     16  C   UNL d   1      29.565 -14.712   1.361  0.00  0.00     0.030 A 
BRANCH  14  17
ATOM     17  C   UNL d   1      33.086 -13.421   1.140  0.00  0.00     0.074 A 
ATOM     18  N   UNL d   1      33.110 -12.077   0.840  0.00  0.00    -0.235 NA
ATOM     19  C   UNL d   1      34.221 -11.447   1.038  0.00  0.00     0.103 A 
ATOM     20  C   UNL d   1      34.350  -9.986   0.726  0.00  0.00     0.091 C 
ATOM     21  N   UNL d   1      35.346 -12.040   1.537  0.00  0.00    -0.312 N 
ATOM     22  C   UNL d   1      35.371 -13.355   1.880  0.00  0.00     0.248 A 
ATOM     23  H   UNL d   1      36.186 -11.510   1.717  0.00  0.00     0.170 HD
ATOM     24  C   UNL d   1      34.141 -14.104   1.608  0.00  0.00     0.106 A 
ATOM     25  O   UNL d   1      36.352 -13.892   2.393  0.00  0.00    -0.268 OA
ENDBRANCH  14  17
ENDBRANCH   1  11
BRANCH   7  26
ATOM     26  C   UNL d   1      22.125 -18.588  -0.317  0.00  0.00     0.048 A 
ATOM     27  C   UNL d   1      21.753 -18.950   0.980  0.00  0.00     0.035 A 
ATOM     28  C   UNL d   1      20.477 -19.472   1.258  0.00  0.00     0.059 A 
ATOM     29  C   UNL d   1      19.572 -19.650   0.210  0.00  0.00     0.195 A 
ATOM     30  N   UNL d   1      19.905 -19.325  -1.070  0.00  0.00    -0.236 NA
ATOM     31  C   UNL d   1      21.146 -18.805  -1.288  0.00  0.00     0.148 A 
BRANCH  29  32
ATOM     32  N   UNL d   1      18.226 -20.202   0.553  0.00  0.00    -0.096 N 
ATOM     33  O   UNL d   1      17.578 -20.739  -0.358  0.00  0.00    -0.530 OA
ATOM     34  O   UNL d   1      17.828 -20.094   1.725  0.00  0.00    -0.530 OA
ENDBRANCH  29  32
ENDBRANCH   7  26
TORSDOF 4
ENDMDL
