MODEL 1
REMARK VINA RESULT:   -28.296      0.000      0.000
REMARK INTER + INTRA:         -30.823
REMARK INTER:                 -30.086
REMARK INTRA:                  -0.737
REMARK CONF_INDEPENDENT:        1.790
REMARK UNBOUND:                -0.737
REMARK  6 active torsions:
REMARK  status: ('A' for Active; 'I' for Inactive)
REMARK    1  A    between atoms: C_2  and  C_4 
REMARK    2  A    between atoms: C_4  and  N_5 
REMARK       I    between atoms: N_5  and  C_6 
REMARK       I    between atoms: C_6  and  N_8 
REMARK    3  A    between atoms: N_8  and  N_9 
REMARK       I    between atoms: N_9  and  C_10 
REMARK    4  A    between atoms: C_10  and  C_12 
REMARK    5  A    between atoms: C_15  and  N_16 
REMARK    6  A    between atoms: N_16  and  C_17 
ROOT
ATOM      1  N   UNL d   1      24.639 -17.529  -0.656  0.00  0.00    -0.262 N 
ATOM      2  C   UNL d   1      23.371 -17.040  -0.969  0.00  0.00     0.271 C 
ATOM      3  O   UNL d   1      23.156 -15.912  -1.381  0.00  0.00    -0.266 OA
ATOM      4  H   UNL d   1      24.826 -18.490  -0.374  0.00  0.00     0.190 HD
ENDROOT
BRANCH   2   5
ATOM      5  C   UNL d   1      22.233 -17.966  -0.741  0.00  0.00     0.051 C 
ATOM      6  C   UNL d   1      22.370 -18.999   0.154  0.00  0.00     0.022 C 
ATOM      7  C   UNL d   1      21.242 -19.734   0.476  0.00  0.00     0.051 C 
ATOM      8  C   UNL d   1      20.025 -19.598  -0.178  0.00  0.00     0.123 C 
ATOM      9  N   UNL d   1      19.871 -18.583  -1.052  0.00  0.00    -0.243 NA
ATOM     10  C   UNL d   1      20.958 -17.762  -1.270  0.00  0.00     0.136 C 
BRANCH   8  11
ATOM     11  N   UNL d   1      18.960 -20.488   0.057  0.00  0.00    -0.370 N 
ATOM     12  H   UNL d   1      18.536 -20.813  -0.809  0.00  0.00     0.161 HD
BRANCH  11  13
ATOM     13  C   UNL d   1      18.461 -20.964   1.362  0.00  0.00     0.083 A 
ATOM     14  C   UNL d   1      19.153 -20.825   2.695  0.00  0.00     0.027 A 
ATOM     15  C   UNL d   1      17.958 -19.959   2.366  0.00  0.00     0.027 A 
ENDBRANCH  11  13
ENDBRANCH   8  11
ENDBRANCH   2   5
BRANCH   1  16
ATOM     16  N   UNL d   1      25.787 -16.719  -0.884  0.00  0.00    -0.249 N 
ATOM     17  C   UNL d   1      25.968 -16.142  -2.133  0.00  0.00     0.334 C 
ATOM     18  N   UNL d   1      27.117 -15.386  -2.254  0.00  0.00    -0.341 N 
ATOM     19  O   UNL d   1      25.168 -16.302  -3.051  0.00  0.00    -0.246 OA
ATOM     20  H   UNL d   1      27.730 -15.291  -1.459  0.00  0.00     0.164 HD
ATOM     21  H   UNL d   1      26.411 -16.589  -0.095  0.00  0.00     0.192 HD
BRANCH  18  22
ATOM     22  C   UNL d   1      27.455 -14.690  -3.501  0.00  0.00     0.128 C 
BRANCH  22  23
ATOM     23  C   UNL d   1      26.718 -13.348  -3.709  0.00  0.00    -0.005 C 
ATOM     24  C   UNL d   1      25.403 -13.547  -4.480  0.00  0.00     0.011 C 
ATOM     25  C   UNL d   1      26.403 -12.675  -2.373  0.00  0.00     0.011 C 
ENDBRANCH  22  23
ENDBRANCH  18  22
ENDBRANCH   1  16
TORSDOF 6
ENDMDL
MODEL 2
REMARK VINA RESULT:   -28.229      1.253      1.554
REMARK INTER + INTRA:         -31.341
REMARK INTER:                 -30.019
REMARK INTRA:                  -1.322
REMARK CONF_INDEPENDENT:        1.790
REMARK UNBOUND:                -1.322
REMARK  6 active torsions:
REMARK  status: ('A' for Active; 'I' for Inactive)
REMARK    1  A    between atoms: C_2  and  C_4 
REMARK    2  A    between atoms: C_4  and  N_5 
REMARK       I    between atoms: N_5  and  C_6 
REMARK       I    between atoms: C_6  and  N_8 
REMARK    3  A    between atoms: N_8  and  N_9 
REMARK       I    between atoms: N_9  and  C_10 
REMARK    4  A    between atoms: C_10  and  C_12 
REMARK    5  A    between atoms: C_15  and  N_16 
REMARK    6  A    between atoms: N_16  and  C_17 
ROOT
ATOM      1  N   UNL d   1      23.712 -16.790  -1.315  0.00  0.00    -0.262 N 
ATOM      2  C   UNL d   1      23.481 -17.818  -0.402  0.00  0.00     0.271 C 
ATOM      3  O   UNL d   1      24.292 -18.186   0.432  0.00  0.00    -0.266 OA
ATOM      4  H   UNL d   1      23.012 -16.439  -1.968  0.00  0.00     0.190 HD
ENDROOT
BRANCH   2   5
ATOM      5  C   UNL d   1      22.170 -18.508  -0.503  0.00  0.00     0.051 C 
ATOM      6  C   UNL d   1      21.948 -19.649   0.228  0.00  0.00     0.022 C 
ATOM      7  C   UNL d   1      20.665 -20.168   0.250  0.00  0.00     0.051 C 
ATOM      8  C   UNL d   1      19.634 -19.700  -0.555  0.00  0.00     0.123 C 
ATOM      9  N   UNL d   1      19.833 -18.575  -1.270  0.00  0.00    -0.243 NA
ATOM     10  C   UNL d   1      21.074 -17.978  -1.184  0.00  0.00     0.136 C 
BRANCH   8  11
ATOM     11  N   UNL d   1      18.399 -20.371  -0.631  0.00  0.00    -0.370 N 
ATOM     12  H   UNL d   1      18.002 -20.333  -1.568  0.00  0.00     0.161 HD
BRANCH  11  13
ATOM     13  C   UNL d   1      17.698 -21.086   0.453  0.00  0.00     0.083 A 
ATOM     14  C   UNL d   1      18.279 -22.147   1.353  0.00  0.00     0.027 A 
ATOM     15  C   UNL d   1      18.032 -20.754   1.885  0.00  0.00     0.027 A 
ENDBRANCH  11  13
ENDBRANCH   8  11
ENDBRANCH   2   5
BRANCH   1  16
ATOM     16  N   UNL d   1      24.927 -16.051  -1.258  0.00  0.00    -0.249 N 
ATOM     17  C   UNL d   1      25.130 -15.016  -2.161  0.00  0.00     0.334 C 
ATOM     18  N   UNL d   1      26.343 -14.371  -2.029  0.00  0.00    -0.341 N 
ATOM     19  O   UNL d   1      24.294 -14.712  -3.007  0.00  0.00    -0.246 OA
ATOM     20  H   UNL d   1      26.983 -14.668  -1.309  0.00  0.00     0.164 HD
ATOM     21  H   UNL d   1      25.581 -16.314  -0.529  0.00  0.00     0.192 HD
BRANCH  18  22
ATOM     22  C   UNL d   1      26.714 -13.243  -2.890  0.00  0.00     0.128 C 
BRANCH  22  23
ATOM     23  C   UNL d   1      26.848 -13.593  -4.389  0.00  0.00    -0.005 C 
ATOM     24  C   UNL d   1      27.358 -12.391  -5.199  0.00  0.00     0.011 C 
ATOM     25  C   UNL d   1      27.806 -14.765  -4.600  0.00  0.00     0.011 C 
ENDBRANCH  22  23
ENDBRANCH  18  22
ENDBRANCH   1  16
TORSDOF 6
ENDMDL
MODEL 3
REMARK VINA RESULT:   -27.836      2.397      2.864
REMARK INTER + INTRA:         -30.739
REMARK INTER:                 -29.625
REMARK INTRA:                  -1.114
REMARK CONF_INDEPENDENT:        1.790
REMARK UNBOUND:                -1.114
REMARK  6 active torsions:
REMARK  status: ('A' for Active; 'I' for Inactive)
REMARK    1  A    between atoms: C_2  and  C_4 
REMARK    2  A    between atoms: C_4  and  N_5 
REMARK       I    between atoms: N_5  and  C_6 
REMARK       I    between atoms: C_6  and  N_8 
REMARK    3  A    between atoms: N_8  and  N_9 
REMARK       I    between atoms: N_9  and  C_10 
REMARK    4  A    between atoms: C_10  and  C_12 
REMARK    5  A    between atoms: C_15  and  N_16 
REMARK    6  A    between atoms: N_16  and  C_17 
ROOT
ATOM      1  N   UNL d   1      24.730 -17.892  -0.958  0.00  0.00    -0.262 N 
ATOM      2  C   UNL d   1      23.480 -17.313  -1.179  0.00  0.00     0.271 C 
ATOM      3  O   UNL d   1      23.316 -16.161  -1.544  0.00  0.00    -0.266 OA
ATOM      4  H   UNL d   1      24.871 -18.872  -0.716  0.00  0.00     0.190 HD
ENDROOT
BRANCH   2   5
ATOM      5  C   UNL d   1      22.300 -18.173  -0.910  0.00  0.00     0.051 C 
ATOM      6  C   UNL d   1      22.448 -19.305  -0.148  0.00  0.00     0.022 C 
ATOM      7  C   UNL d   1      21.305 -19.987   0.233  0.00  0.00     0.051 C 
ATOM      8  C   UNL d   1      20.037 -19.689  -0.251  0.00  0.00     0.123 C 
ATOM      9  N   UNL d   1      19.874 -18.575  -0.992  0.00  0.00    -0.243 NA
ATOM     10  C   UNL d   1      20.996 -17.817  -1.256  0.00  0.00     0.136 C 
BRANCH   8  11
ATOM     11  N   UNL d   1      18.933 -20.519   0.021  0.00  0.00    -0.370 N 
ATOM     12  H   UNL d   1      18.487 -20.852  -0.831  0.00  0.00     0.161 HD
BRANCH  11  13
ATOM     13  C   UNL d   1      18.422 -20.927   1.345  0.00  0.00     0.083 A 
ATOM     14  C   UNL d   1      19.151 -20.825   2.661  0.00  0.00     0.027 A 
ATOM     15  C   UNL d   1      18.030 -19.864   2.338  0.00  0.00     0.027 A 
ENDBRANCH  11  13
ENDBRANCH   8  11
ENDBRANCH   2   5
BRANCH   1  16
ATOM     16  N   UNL d   1      25.913 -17.149  -1.233  0.00  0.00    -0.249 N 
ATOM     17  C   UNL d   1      27.075 -17.449  -0.535  0.00  0.00     0.334 C 
ATOM     18  N   UNL d   1      28.161 -16.665  -0.867  0.00  0.00    -0.341 N 
ATOM     19  O   UNL d   1      27.120 -18.338   0.311  0.00  0.00    -0.246 OA
ATOM     20  H   UNL d   1      28.058 -15.954  -1.574  0.00  0.00     0.164 HD
ATOM     21  H   UNL d   1      25.843 -16.441  -1.956  0.00  0.00     0.192 HD
BRANCH  18  22
ATOM     22  C   UNL d   1      29.473 -16.858  -0.239  0.00  0.00     0.128 C 
BRANCH  22  23
ATOM     23  C   UNL d   1      30.488 -15.726  -0.506  0.00  0.00    -0.005 C 
ATOM     24  C   UNL d   1      30.082 -14.430   0.215  0.00  0.00     0.011 C 
ATOM     25  C   UNL d   1      31.892 -16.119  -0.047  0.00  0.00     0.011 C 
ENDBRANCH  22  23
ENDBRANCH  18  22
ENDBRANCH   1  16
TORSDOF 6
ENDMDL
MODEL 4
REMARK VINA RESULT:   -27.792      2.257      2.905
REMARK INTER + INTRA:         -30.956
REMARK INTER:                 -29.582
REMARK INTRA:                  -1.374
REMARK CONF_INDEPENDENT:        1.790
REMARK UNBOUND:                -1.374
REMARK  6 active torsions:
REMARK  status: ('A' for Active; 'I' for Inactive)
REMARK    1  A    between atoms: C_2  and  C_4 
REMARK    2  A    between atoms: C_4  and  N_5 
REMARK       I    between atoms: N_5  and  C_6 
REMARK       I    between atoms: C_6  and  N_8 
REMARK    3  A    between atoms: N_8  and  N_9 
REMARK       I    between atoms: N_9  and  C_10 
REMARK    4  A    between atoms: C_10  and  C_12 
REMARK    5  A    between atoms: C_15  and  N_16 
REMARK    6  A    between atoms: N_16  and  C_17 
ROOT
ATOM      1  N   UNL d   1      24.673 -17.643  -0.701  0.00  0.00    -0.262 N 
ATOM      2  C   UNL d   1      23.427 -17.178  -1.121  0.00  0.00     0.271 C 
ATOM      3  O   UNL d   1      23.242 -16.086  -1.632  0.00  0.00    -0.266 OA
ATOM      4  H   UNL d   1      24.839 -18.579  -0.334  0.00  0.00     0.190 HD
ENDROOT
BRANCH   2   5
ATOM      5  C   UNL d   1      22.272 -18.081  -0.884  0.00  0.00     0.051 C 
ATOM      6  C   UNL d   1      22.440 -19.205  -0.113  0.00  0.00     0.022 C 
ATOM      7  C   UNL d   1      21.313 -19.928   0.237  0.00  0.00     0.051 C 
ATOM      8  C   UNL d   1      20.050 -19.681  -0.286  0.00  0.00     0.123 C 
ATOM      9  N   UNL d   1      19.867 -18.576  -1.036  0.00  0.00    -0.243 NA
ATOM     10  C   UNL d   1      20.967 -17.777  -1.270  0.00  0.00     0.136 C 
BRANCH   8  11
ATOM     11  N   UNL d   1      18.970 -20.551  -0.044  0.00  0.00    -0.370 N 
ATOM     12  H   UNL d   1      18.490 -20.810  -0.903  0.00  0.00     0.161 HD
BRANCH  11  13
ATOM     13  C   UNL d   1      18.528 -21.091   1.257  0.00  0.00     0.083 A 
ATOM     14  C   UNL d   1      19.156 -20.824   2.602  0.00  0.00     0.027 A 
ATOM     15  C   UNL d   1      17.842 -20.173   2.236  0.00  0.00     0.027 A 
ENDBRANCH  11  13
ENDBRANCH   8  11
ENDBRANCH   2   5
BRANCH   1  16
ATOM     16  N   UNL d   1      25.837 -16.856  -0.930  0.00  0.00    -0.249 N 
ATOM     17  C   UNL d   1      27.061 -17.309  -0.456  0.00  0.00     0.334 C 
ATOM     18  N   UNL d   1      28.123 -16.468  -0.720  0.00  0.00    -0.341 N 
ATOM     19  O   UNL d   1      27.176 -18.369   0.152  0.00  0.00    -0.246 OA
ATOM     20  H   UNL d   1      27.961 -15.613  -1.229  0.00  0.00     0.164 HD
ATOM     21  H   UNL d   1      25.706 -16.000  -1.459  0.00  0.00     0.192 HD
BRANCH  18  22
ATOM     22  C   UNL d   1      29.491 -16.800  -0.305  0.00  0.00     0.128 C 
BRANCH  22  23
ATOM     23  C   UNL d   1      30.523 -16.830  -1.455  0.00  0.00    -0.005 C 
ATOM     24  C   UNL d   1      31.510 -17.996  -1.287  0.00  0.00     0.011 C 
ATOM     25  C   UNL d   1      29.835 -16.964  -2.814  0.00  0.00     0.011 C 
ENDBRANCH  22  23
ENDBRANCH  18  22
ENDBRANCH   1  16
TORSDOF 6
ENDMDL
