MODEL 1
REMARK VINA RESULT:    -8.217      0.000      0.000
REMARK INTER + INTRA:         -12.909
REMARK INTER:                 -11.200
REMARK INTRA:                  -1.709
REMARK CONF_INDEPENDENT:        2.983
REMARK UNBOUND:                -1.709
REMARK  10 active torsions:
REMARK  status: ('A' for Active; 'I' for Inactive)
REMARK    1  A    between atoms: C_2  and  N_3 
REMARK    2  A    between atoms: N_3  and  C_4 
REMARK    3  A    between atoms: C_4  and  S_18 
REMARK    4  A    between atoms: N_5  and  C_6 
REMARK    5  A    between atoms: C_6  and  C_7 
REMARK    6  A    between atoms: C_7  and  C_8 
REMARK    7  A    between atoms: C_11  and  O_12 
REMARK    8  A    between atoms: C_14  and  O_15 
REMARK    9  A    between atoms: C_19  and  S_18 
REMARK   10  A    between atoms: N_23  and  C_24 
ROOT
ATOM      1  C   UNL d   1      25.176 -16.029  -2.091  0.00  0.00     0.136 C 
ATOM      2  N   UNL d   1      24.060 -16.686  -1.790  0.00  0.00    -0.371 N 
ATOM      3  H   UNL d   1      23.193 -16.210  -2.021  0.00  0.00     0.161 HD
ENDROOT
BRANCH   1   4
ATOM      4  N   UNL d   1      26.395 -16.496  -1.818  0.00  0.00    -0.371 N 
ATOM      5  H   UNL d   1      27.010 -16.707  -2.575  0.00  0.00     0.161 HD
BRANCH   4   6
ATOM      6  C   UNL d   1      27.067 -16.719  -0.523  0.00  0.00     0.117 C 
ATOM      7  C   UNL d   1      26.946 -18.123  -0.007  0.00  0.00     0.026 C 
ENDBRANCH   4   6
ENDBRANCH   1   4
BRANCH   1   8
ATOM      8  S   UNL d   1      24.872 -14.500  -2.900  0.00  0.00    -0.080 SA
BRANCH   8   9
ATOM      9  C   UNL d   1      26.350 -13.897  -3.781  0.00  0.00     0.157 C 
ATOM     10  C   UNL d   1      27.488 -13.537  -2.864  0.00  0.00     0.129 C 
ATOM     11  C   UNL d   1      28.705 -14.208  -3.355  0.00  0.00     0.232 C 
ATOM     12  O   UNL d   1      29.768 -14.081  -2.787  0.00  0.00    -0.273 OA
ATOM     13  N   UNL d   1      28.351 -14.960  -4.433  0.00  0.00    -0.248 N 
ATOM     14  C   UNL d   1      26.998 -14.920  -4.711  0.00  0.00     0.246 C 
ATOM     15  O   UNL d   1      26.395 -15.574  -5.551  0.00  0.00    -0.271 OA
BRANCH  13  16
ATOM     16  C   UNL d   1      29.263 -15.821  -5.052  0.00  0.00     0.084 A 
ATOM     17  C   UNL d   1      29.674 -15.558  -6.358  0.00  0.00     0.033 A 
ATOM     18  C   UNL d   1      30.553 -16.435  -6.992  0.00  0.00     0.002 A 
ATOM     19  C   UNL d   1      31.063 -17.540  -6.306  0.00  0.00     0.003 A 
ATOM     20  C   UNL d   1      30.674 -17.791  -4.991  0.00  0.00     0.044 A 
ATOM     21  C   UNL d   1      29.784 -16.927  -4.368  0.00  0.00     0.143 A 
ATOM     22  F   UNL d   1      29.376 -17.201  -3.119  0.00  0.00    -0.204 F 
ENDBRANCH  13  16
ENDBRANCH   8   9
ENDBRANCH   1   8
BRANCH   2  23
ATOM     23  C   UNL d   1      24.076 -17.991  -1.150  0.00  0.00     0.126 C 
BRANCH  23  24
ATOM     24  C   UNL d   1      23.493 -18.120   0.224  0.00  0.00     0.058 C 
BRANCH  24  25
ATOM     25  C   UNL d   1      22.089 -18.692   0.095  0.00  0.00    -0.054 A 
ATOM     26  C   UNL d   1      21.582 -18.947  -1.176  0.00  0.00     0.010 A 
ATOM     27  C   UNL d   1      20.279 -19.423  -1.331  0.00  0.00     0.040 A 
ATOM     28  C   UNL d   1      19.475 -19.727  -0.222  0.00  0.00     0.101 A 
ATOM     29  C   UNL d   1      19.956 -19.448   1.065  0.00  0.00     0.102 A 
ATOM     30  C   UNL d   1      21.258 -18.950   1.208  0.00  0.00     0.046 A 
BRANCH  28  31
ATOM     31  O   UNL d   1      18.274 -20.300  -0.556  0.00  0.00    -0.353 OA
ATOM     32  C   UNL d   1      17.763 -21.311   0.308  0.00  0.00     0.210 C 
ENDBRANCH  28  31
BRANCH  29  33
ATOM     33  O   UNL d   1      19.123 -19.661   2.125  0.00  0.00    -0.353 OA
ATOM     34  C   UNL d   1      19.530 -20.499   3.189  0.00  0.00     0.210 C 
ENDBRANCH  29  33
ENDBRANCH  24  25
ENDBRANCH  23  24
ENDBRANCH   2  23
TORSDOF 10
ENDMDL
MODEL 2
REMARK VINA RESULT:    -7.321      3.000      5.243
REMARK INTER + INTRA:         -12.477
REMARK INTER:                 -10.304
REMARK INTRA:                  -2.173
REMARK CONF_INDEPENDENT:        2.983
REMARK UNBOUND:                -2.173
REMARK  10 active torsions:
REMARK  status: ('A' for Active; 'I' for Inactive)
REMARK    1  A    between atoms: C_2  and  N_3 
REMARK    2  A    between atoms: N_3  and  C_4 
REMARK    3  A    between atoms: C_4  and  S_18 
REMARK    4  A    between atoms: N_5  and  C_6 
REMARK    5  A    between atoms: C_6  and  C_7 
REMARK    6  A    between atoms: C_7  and  C_8 
REMARK    7  A    between atoms: C_11  and  O_12 
REMARK    8  A    between atoms: C_14  and  O_15 
REMARK    9  A    between atoms: C_19  and  S_18 
REMARK   10  A    between atoms: N_23  and  C_24 
ROOT
ATOM      1  C   UNL d   1      26.638 -12.477  -5.452  0.00  0.00     0.136 C 
ATOM      2  N   UNL d   1      26.439 -13.645  -4.848  0.00  0.00    -0.371 N 
ATOM      3  H   UNL d   1      27.258 -14.239  -4.758  0.00  0.00     0.161 HD
ENDROOT
BRANCH   1   4
ATOM      4  N   UNL d   1      25.661 -11.599  -5.683  0.00  0.00    -0.371 N 
ATOM      5  H   UNL d   1      24.762 -11.940  -5.951  0.00  0.00     0.161 HD
BRANCH   4   6
ATOM      6  C   UNL d   1      25.645 -10.129  -5.555  0.00  0.00     0.117 C 
ATOM      7  C   UNL d   1      26.452  -9.609  -4.401  0.00  0.00     0.026 C 
ENDBRANCH   4   6
ENDBRANCH   1   4
BRANCH   1   8
ATOM      8  S   UNL d   1      28.318 -12.212  -5.890  0.00  0.00    -0.080 SA
BRANCH   8   9
ATOM      9  C   UNL d   1      28.917 -13.476  -7.060  0.00  0.00     0.157 C 
ATOM     10  C   UNL d   1      30.388 -13.365  -7.360  0.00  0.00     0.129 C 
ATOM     11  C   UNL d   1      30.998 -14.693  -7.174  0.00  0.00     0.232 C 
ATOM     12  O   UNL d   1      32.184 -14.874  -7.353  0.00  0.00    -0.273 OA
ATOM     13  N   UNL d   1      30.020 -15.536  -6.743  0.00  0.00    -0.248 N 
ATOM     14  C   UNL d   1      28.800 -14.914  -6.559  0.00  0.00     0.246 C 
ATOM     15  O   UNL d   1      27.784 -15.404  -6.085  0.00  0.00    -0.271 OA
BRANCH  13  16
ATOM     16  C   UNL d   1      30.309 -16.848  -6.353  0.00  0.00     0.084 A 
ATOM     17  C   UNL d   1      30.793 -17.751  -7.298  0.00  0.00     0.033 A 
ATOM     18  C   UNL d   1      31.045 -19.069  -6.923  0.00  0.00     0.002 A 
ATOM     19  C   UNL d   1      30.867 -19.472  -5.597  0.00  0.00     0.003 A 
ATOM     20  C   UNL d   1      30.406 -18.564  -4.644  0.00  0.00     0.044 A 
ATOM     21  C   UNL d   1      30.138 -17.256  -5.024  0.00  0.00     0.143 A 
ATOM     22  F   UNL d   1      29.649 -16.400  -4.112  0.00  0.00    -0.204 F 
ENDBRANCH  13  16
ENDBRANCH   8   9
ENDBRANCH   1   8
BRANCH   2  23
ATOM     23  C   UNL d   1      25.131 -14.057  -4.365  0.00  0.00     0.126 C 
BRANCH  23  24
ATOM     24  C   UNL d   1      24.793 -13.819  -2.925  0.00  0.00     0.058 C 
BRANCH  24  25
ATOM     25  C   UNL d   1      24.988 -15.125  -2.168  0.00  0.00    -0.054 A 
ATOM     26  C   UNL d   1      26.276 -15.626  -2.013  0.00  0.00     0.010 A 
ATOM     27  C   UNL d   1      26.484 -16.847  -1.369  0.00  0.00     0.040 A 
ATOM     28  C   UNL d   1      25.421 -17.561  -0.798  0.00  0.00     0.101 A 
ATOM     29  C   UNL d   1      24.112 -17.089  -0.969  0.00  0.00     0.102 A 
ATOM     30  C   UNL d   1      23.913 -15.873  -1.637  0.00  0.00     0.046 A 
BRANCH  28  31
ATOM     31  O   UNL d   1      25.820 -18.673  -0.099  0.00  0.00    -0.353 OA
ATOM     32  C   UNL d   1      27.032 -18.583   0.645  0.00  0.00     0.210 C 
ENDBRANCH  28  31
BRANCH  29  33
ATOM     33  O   UNL d   1      23.084 -17.848  -0.489  0.00  0.00    -0.353 OA
ATOM     34  C   UNL d   1      22.607 -18.949  -1.239  0.00  0.00     0.210 C 
ENDBRANCH  29  33
ENDBRANCH  24  25
ENDBRANCH  23  24
ENDBRANCH   2  23
TORSDOF 10
ENDMDL
MODEL 3
REMARK VINA RESULT:    -6.630      3.645      8.650
REMARK INTER + INTRA:         -12.278
REMARK INTER:                  -9.613
REMARK INTRA:                  -2.665
REMARK CONF_INDEPENDENT:        2.983
REMARK UNBOUND:                -2.665
REMARK  10 active torsions:
REMARK  status: ('A' for Active; 'I' for Inactive)
REMARK    1  A    between atoms: C_2  and  N_3 
REMARK    2  A    between atoms: N_3  and  C_4 
REMARK    3  A    between atoms: C_4  and  S_18 
REMARK    4  A    between atoms: N_5  and  C_6 
REMARK    5  A    between atoms: C_6  and  C_7 
REMARK    6  A    between atoms: C_7  and  C_8 
REMARK    7  A    between atoms: C_11  and  O_12 
REMARK    8  A    between atoms: C_14  and  O_15 
REMARK    9  A    between atoms: C_19  and  S_18 
REMARK   10  A    between atoms: N_23  and  C_24 
ROOT
ATOM      1  C   UNL d   1      29.592 -15.109  -6.030  0.00  0.00     0.136 C 
ATOM      2  N   UNL d   1      30.130 -15.238  -7.239  0.00  0.00    -0.371 N 
ATOM      3  H   UNL d   1      29.496 -15.099  -8.020  0.00  0.00     0.161 HD
ENDROOT
BRANCH   1   4
ATOM      4  N   UNL d   1      30.278 -15.298  -4.901  0.00  0.00    -0.371 N 
ATOM      5  H   UNL d   1      30.097 -16.119  -4.362  0.00  0.00     0.161 HD
BRANCH   4   6
ATOM      6  C   UNL d   1      31.359 -14.501  -4.293  0.00  0.00     0.117 C 
ATOM      7  C   UNL d   1      31.434 -14.613  -2.799  0.00  0.00     0.026 C 
ENDBRANCH   4   6
ENDBRANCH   1   4
BRANCH   1   8
ATOM      8  S   UNL d   1      27.898 -14.646  -6.082  0.00  0.00    -0.080 SA
BRANCH   8   9
ATOM      9  C   UNL d   1      27.276 -14.180  -4.433  0.00  0.00     0.157 C 
ATOM     10  C   UNL d   1      25.818 -13.807  -4.428  0.00  0.00     0.129 C 
ATOM     11  C   UNL d   1      25.152 -14.568  -3.356  0.00  0.00     0.232 C 
ATOM     12  O   UNL d   1      23.964 -14.449  -3.142  0.00  0.00    -0.273 OA
ATOM     13  N   UNL d   1      26.085 -15.380  -2.789  0.00  0.00    -0.248 N 
ATOM     14  C   UNL d   1      27.325 -15.298  -3.395  0.00  0.00     0.246 C 
ATOM     15  O   UNL d   1      28.310 -15.984  -3.158  0.00  0.00    -0.271 OA
BRANCH  13  16
ATOM     16  C   UNL d   1      25.736 -16.326  -1.820  0.00  0.00     0.084 A 
ATOM     17  C   UNL d   1      24.540 -17.031  -1.952  0.00  0.00     0.033 A 
ATOM     18  C   UNL d   1      24.170 -17.946  -0.968  0.00  0.00     0.002 A 
ATOM     19  C   UNL d   1      25.015 -18.198   0.115  0.00  0.00     0.003 A 
ATOM     20  C   UNL d   1      26.224 -17.513   0.236  0.00  0.00     0.044 A 
ATOM     21  C   UNL d   1      26.582 -16.588  -0.735  0.00  0.00     0.143 A 
ATOM     22  F   UNL d   1      27.724 -15.897  -0.587  0.00  0.00    -0.204 F 
ENDBRANCH  13  16
ENDBRANCH   8   9
ENDBRANCH   1   8
BRANCH   2  23
ATOM     23  C   UNL d   1      31.530 -15.579  -7.434  0.00  0.00     0.126 C 
BRANCH  23  24
ATOM     24  C   UNL d   1      31.865 -16.916  -8.022  0.00  0.00     0.058 C 
BRANCH  24  25
ATOM     25  C   UNL d   1      31.372 -17.993  -7.067  0.00  0.00    -0.054 A 
ATOM     26  C   UNL d   1      31.053 -19.249  -7.576  0.00  0.00     0.010 A 
ATOM     27  C   UNL d   1      30.549 -20.242  -6.735  0.00  0.00     0.040 A 
ATOM     28  C   UNL d   1      30.422 -20.034  -5.354  0.00  0.00     0.101 A 
ATOM     29  C   UNL d   1      30.709 -18.768  -4.826  0.00  0.00     0.102 A 
ATOM     30  C   UNL d   1      31.193 -17.770  -5.683  0.00  0.00     0.046 A 
BRANCH  28  31
ATOM     31  O   UNL d   1      30.030 -21.154  -4.664  0.00  0.00    -0.353 OA
ATOM     32  C   UNL d   1      31.015 -21.824  -3.881  0.00  0.00     0.210 C 
ENDBRANCH  28  31
BRANCH  29  33
ATOM     33  O   UNL d   1      30.486 -18.558  -3.495  0.00  0.00    -0.353 OA
ATOM     34  C   UNL d   1      31.578 -18.434  -2.605  0.00  0.00     0.210 C 
ENDBRANCH  29  33
ENDBRANCH  24  25
ENDBRANCH  23  24
ENDBRANCH   2  23
TORSDOF 10
ENDMDL
MODEL 4
REMARK VINA RESULT:    -6.433      2.757      4.536
REMARK INTER + INTRA:         -12.139
REMARK INTER:                  -9.416
REMARK INTRA:                  -2.724
REMARK CONF_INDEPENDENT:        2.983
REMARK UNBOUND:                -2.724
REMARK  10 active torsions:
REMARK  status: ('A' for Active; 'I' for Inactive)
REMARK    1  A    between atoms: C_2  and  N_3 
REMARK    2  A    between atoms: N_3  and  C_4 
REMARK    3  A    between atoms: C_4  and  S_18 
REMARK    4  A    between atoms: N_5  and  C_6 
REMARK    5  A    between atoms: C_6  and  C_7 
REMARK    6  A    between atoms: C_7  and  C_8 
REMARK    7  A    between atoms: C_11  and  O_12 
REMARK    8  A    between atoms: C_14  and  O_15 
REMARK    9  A    between atoms: C_19  and  S_18 
REMARK   10  A    between atoms: N_23  and  C_24 
ROOT
ATOM      1  C   UNL d   1      26.865 -12.509  -4.714  0.00  0.00     0.136 C 
ATOM      2  N   UNL d   1      25.966 -13.486  -4.782  0.00  0.00    -0.371 N 
ATOM      3  H   UNL d   1      25.680 -13.757  -5.718  0.00  0.00     0.161 HD
ENDROOT
BRANCH   1   4
ATOM      4  N   UNL d   1      27.316 -12.010  -3.562  0.00  0.00    -0.371 N 
ATOM      5  H   UNL d   1      26.666 -11.582  -2.937  0.00  0.00     0.161 HD
BRANCH   4   6
ATOM      6  C   UNL d   1      28.671 -12.025  -2.977  0.00  0.00     0.117 C 
ATOM      7  C   UNL d   1      29.379 -13.341  -3.115  0.00  0.00     0.026 C 
ENDBRANCH   4   6
ENDBRANCH   1   4
BRANCH   1   8
ATOM      8  S   UNL d   1      27.403 -11.965  -6.295  0.00  0.00    -0.080 SA
BRANCH   8   9
ATOM      9  C   UNL d   1      28.333 -13.264  -7.175  0.00  0.00     0.157 C 
ATOM     10  C   UNL d   1      29.811 -12.992  -7.253  0.00  0.00     0.129 C 
ATOM     11  C   UNL d   1      30.526 -14.197  -6.796  0.00  0.00     0.232 C 
ATOM     12  O   UNL d   1      31.737 -14.238  -6.761  0.00  0.00    -0.273 OA
ATOM     13  N   UNL d   1      29.589 -15.107  -6.412  0.00  0.00    -0.248 N 
ATOM     14  C   UNL d   1      28.294 -14.637  -6.508  0.00  0.00     0.246 C 
ATOM     15  O   UNL d   1      27.273 -15.200  -6.137  0.00  0.00    -0.271 OA
BRANCH  13  16
ATOM     16  C   UNL d   1      29.953 -16.316  -5.808  0.00  0.00     0.084 A 
ATOM     17  C   UNL d   1      29.654 -16.523  -4.462  0.00  0.00     0.033 A 
ATOM     18  C   UNL d   1      30.049 -17.710  -3.846  0.00  0.00     0.002 A 
ATOM     19  C   UNL d   1      30.690 -18.708  -4.583  0.00  0.00     0.003 A 
ATOM     20  C   UNL d   1      30.966 -18.513  -5.936  0.00  0.00     0.044 A 
ATOM     21  C   UNL d   1      30.589 -17.323  -6.543  0.00  0.00     0.143 A 
ATOM     22  F   UNL d   1      30.902 -17.123  -7.833  0.00  0.00    -0.204 F 
ENDBRANCH  13  16
ENDBRANCH   8   9
ENDBRANCH   1   8
BRANCH   2  23
ATOM     23  C   UNL d   1      25.410 -14.114  -3.594  0.00  0.00     0.126 C 
BRANCH  23  24
ATOM     24  C   UNL d   1      26.311 -14.954  -2.741  0.00  0.00     0.058 C 
BRANCH  24  25
ATOM     25  C   UNL d   1      25.443 -15.859  -1.879  0.00  0.00    -0.054 A 
ATOM     26  C   UNL d   1      24.062 -15.694  -1.909  0.00  0.00     0.010 A 
ATOM     27  C   UNL d   1      23.241 -16.473  -1.092  0.00  0.00     0.040 A 
ATOM     28  C   UNL d   1      23.771 -17.486  -0.279  0.00  0.00     0.101 A 
ATOM     29  C   UNL d   1      25.162 -17.648  -0.211  0.00  0.00     0.102 A 
ATOM     30  C   UNL d   1      25.978 -16.845  -1.020  0.00  0.00     0.046 A 
BRANCH  28  31
ATOM     31  O   UNL d   1      22.814 -18.233   0.360  0.00  0.00    -0.353 OA
ATOM     32  C   UNL d   1      21.861 -18.916  -0.450  0.00  0.00     0.210 C 
ENDBRANCH  28  31
BRANCH  29  33
ATOM     33  O   UNL d   1      25.662 -18.575   0.658  0.00  0.00    -0.353 OA
ATOM     34  C   UNL d   1      27.030 -18.930   0.605  0.00  0.00     0.210 C 
ENDBRANCH  29  33
ENDBRANCH  24  25
ENDBRANCH  23  24
ENDBRANCH   2  23
TORSDOF 10
ENDMDL
MODEL 5
REMARK VINA RESULT:    -5.861      3.680      7.494
REMARK INTER + INTRA:         -12.141
REMARK INTER:                  -8.844
REMARK INTRA:                  -3.297
REMARK CONF_INDEPENDENT:        2.983
REMARK UNBOUND:                -3.297
REMARK  10 active torsions:
REMARK  status: ('A' for Active; 'I' for Inactive)
REMARK    1  A    between atoms: C_2  and  N_3 
REMARK    2  A    between atoms: N_3  and  C_4 
REMARK    3  A    between atoms: C_4  and  S_18 
REMARK    4  A    between atoms: N_5  and  C_6 
REMARK    5  A    between atoms: C_6  and  C_7 
REMARK    6  A    between atoms: C_7  and  C_8 
REMARK    7  A    between atoms: C_11  and  O_12 
REMARK    8  A    between atoms: C_14  and  O_15 
REMARK    9  A    between atoms: C_19  and  S_18 
REMARK   10  A    between atoms: N_23  and  C_24 
ROOT
ATOM      1  C   UNL d   1      25.535 -17.723  -0.221  0.00  0.00     0.136 C 
ATOM      2  N   UNL d   1      25.810 -17.038  -1.326  0.00  0.00    -0.371 N 
ATOM      3  H   UNL d   1      26.787 -16.788  -1.458  0.00  0.00     0.161 HD
ENDROOT
BRANCH   1   4
ATOM      4  N   UNL d   1      24.300 -18.094   0.120  0.00  0.00    -0.371 N 
ATOM      5  H   UNL d   1      23.908 -17.735   0.965  0.00  0.00     0.161 HD
BRANCH   4   6
ATOM      6  C   UNL d   1      23.324 -18.941  -0.590  0.00  0.00     0.117 C 
ATOM      7  C   UNL d   1      21.993 -18.285  -0.811  0.00  0.00     0.026 C 
ENDBRANCH   4   6
ENDBRANCH   1   4
BRANCH   1   8
ATOM      8  S   UNL d   1      26.968 -18.103   0.722  0.00  0.00    -0.080 SA
BRANCH   8   9
ATOM      9  C   UNL d   1      28.393 -17.080   0.224  0.00  0.00     0.157 C 
ATOM     10  C   UNL d   1      28.877 -17.368  -1.173  0.00  0.00     0.129 C 
ATOM     11  C   UNL d   1      28.988 -16.087  -1.894  0.00  0.00     0.232 C 
ATOM     12  O   UNL d   1      29.358 -16.043  -3.048  0.00  0.00    -0.273 OA
ATOM     13  N   UNL d   1      28.559 -15.106  -1.054  0.00  0.00    -0.248 N 
ATOM     14  C   UNL d   1      28.111 -15.581   0.164  0.00  0.00     0.246 C 
ATOM     15  O   UNL d   1      27.581 -14.938   1.059  0.00  0.00    -0.271 OA
BRANCH  13  16
ATOM     16  C   UNL d   1      28.423 -13.783  -1.489  0.00  0.00     0.084 A 
ATOM     17  C   UNL d   1      29.454 -13.195  -2.221  0.00  0.00     0.033 A 
ATOM     18  C   UNL d   1      29.338 -11.865  -2.622  0.00  0.00     0.002 A 
ATOM     19  C   UNL d   1      28.177 -11.142  -2.343  0.00  0.00     0.003 A 
ATOM     20  C   UNL d   1      27.134 -11.736  -1.633  0.00  0.00     0.044 A 
ATOM     21  C   UNL d   1      27.258 -13.055  -1.218  0.00  0.00     0.143 A 
ATOM     22  F   UNL d   1      26.271 -13.605  -0.493  0.00  0.00    -0.204 F 
ENDBRANCH  13  16
ENDBRANCH   8   9
ENDBRANCH   1   8
BRANCH   2  23
ATOM     23  C   UNL d   1      24.780 -16.647  -2.275  0.00  0.00     0.126 C 
BRANCH  23  24
ATOM     24  C   UNL d   1      24.401 -15.201  -2.364  0.00  0.00     0.058 C 
BRANCH  24  25
ATOM     25  C   UNL d   1      25.276 -14.543  -3.421  0.00  0.00    -0.054 A 
ATOM     26  C   UNL d   1      25.094 -13.192  -3.700  0.00  0.00     0.010 A 
ATOM     27  C   UNL d   1      25.845 -12.571  -4.699  0.00  0.00     0.040 A 
ATOM     28  C   UNL d   1      26.847 -13.263  -5.395  0.00  0.00     0.101 A 
ATOM     29  C   UNL d   1      27.027 -14.632  -5.150  0.00  0.00     0.102 A 
ATOM     30  C   UNL d   1      26.252 -15.250  -4.159  0.00  0.00     0.046 A 
BRANCH  28  31
ATOM     31  O   UNL d   1      27.568 -12.469  -6.252  0.00  0.00    -0.353 OA
ATOM     32  C   UNL d   1      27.095 -11.144  -6.477  0.00  0.00     0.210 C 
ENDBRANCH  28  31
BRANCH  29  33
ATOM     33  O   UNL d   1      27.941 -15.308  -5.906  0.00  0.00    -0.353 OA
ATOM     34  C   UNL d   1      29.269 -14.829  -6.007  0.00  0.00     0.210 C 
ENDBRANCH  29  33
ENDBRANCH  24  25
ENDBRANCH  23  24
ENDBRANCH   2  23
TORSDOF 10
ENDMDL
MODEL 6
REMARK VINA RESULT:    -5.831      3.475      5.913
REMARK INTER + INTRA:         -12.334
REMARK INTER:                  -8.814
REMARK INTRA:                  -3.520
REMARK CONF_INDEPENDENT:        2.983
REMARK UNBOUND:                -3.520
REMARK  10 active torsions:
REMARK  status: ('A' for Active; 'I' for Inactive)
REMARK    1  A    between atoms: C_2  and  N_3 
REMARK    2  A    between atoms: N_3  and  C_4 
REMARK    3  A    between atoms: C_4  and  S_18 
REMARK    4  A    between atoms: N_5  and  C_6 
REMARK    5  A    between atoms: C_6  and  C_7 
REMARK    6  A    between atoms: C_7  and  C_8 
REMARK    7  A    between atoms: C_11  and  O_12 
REMARK    8  A    between atoms: C_14  and  O_15 
REMARK    9  A    between atoms: C_19  and  S_18 
REMARK   10  A    between atoms: N_23  and  C_24 
ROOT
ATOM      1  C   UNL d   1      28.991 -15.801  -3.074  0.00  0.00     0.136 C 
ATOM      2  N   UNL d   1      28.948 -14.537  -2.664  0.00  0.00    -0.371 N 
ATOM      3  H   UNL d   1      29.027 -13.834  -3.394  0.00  0.00     0.161 HD
ENDROOT
BRANCH   1   4
ATOM      4  N   UNL d   1      28.940 -16.841  -2.241  0.00  0.00    -0.371 N 
ATOM      5  H   UNL d   1      28.144 -17.443  -2.273  0.00  0.00     0.161 HD
BRANCH   4   6
ATOM      6  C   UNL d   1      29.927 -17.332  -1.261  0.00  0.00     0.117 C 
ATOM      7  C   UNL d   1      31.115 -18.010  -1.878  0.00  0.00     0.026 C 
ENDBRANCH   4   6
ENDBRANCH   1   4
BRANCH   1   8
ATOM      8  S   UNL d   1      29.102 -15.949  -4.821  0.00  0.00    -0.080 SA
BRANCH   8   9
ATOM      9  C   UNL d   1      27.844 -14.934  -5.665  0.00  0.00     0.157 C 
ATOM     10  C   UNL d   1      26.432 -15.300  -5.292  0.00  0.00     0.129 C 
ATOM     11  C   UNL d   1      25.722 -14.066  -4.914  0.00  0.00     0.232 C 
ATOM     12  O   UNL d   1      24.560 -14.087  -4.567  0.00  0.00    -0.273 OA
ATOM     13  N   UNL d   1      26.615 -13.041  -4.984  0.00  0.00    -0.248 N 
ATOM     14  C   UNL d   1      27.891 -13.447  -5.324  0.00  0.00     0.246 C 
ATOM     15  O   UNL d   1      28.902 -12.758  -5.359  0.00  0.00    -0.271 OA
BRANCH  13  16
ATOM     16  C   UNL d   1      26.278 -11.751  -4.561  0.00  0.00     0.084 A 
ATOM     17  C   UNL d   1      26.335 -11.440  -3.203  0.00  0.00     0.033 A 
ATOM     18  C   UNL d   1      25.963 -10.167  -2.773  0.00  0.00     0.002 A 
ATOM     19  C   UNL d   1      25.589  -9.191  -3.700  0.00  0.00     0.003 A 
ATOM     20  C   UNL d   1      25.557  -9.492  -5.061  0.00  0.00     0.044 A 
ATOM     21  C   UNL d   1      25.909 -10.766  -5.486  0.00  0.00     0.143 A 
ATOM     22  F   UNL d   1      25.829 -11.063  -6.793  0.00  0.00    -0.204 F 
ENDBRANCH  13  16
ENDBRANCH   8   9
ENDBRANCH   1   8
BRANCH   2  23
ATOM     23  C   UNL d   1      28.819 -14.179  -1.261  0.00  0.00     0.126 C 
BRANCH  23  24
ATOM     24  C   UNL d   1      27.472 -13.765  -0.750  0.00  0.00     0.058 C 
BRANCH  24  25
ATOM     25  C   UNL d   1      26.529 -14.952  -0.877  0.00  0.00    -0.054 A 
ATOM     26  C   UNL d   1      25.495 -14.894  -1.806  0.00  0.00     0.010 A 
ATOM     27  C   UNL d   1      24.582 -15.944  -1.911  0.00  0.00     0.040 A 
ATOM     28  C   UNL d   1      24.721 -17.111  -1.145  0.00  0.00     0.101 A 
ATOM     29  C   UNL d   1      25.737 -17.178  -0.182  0.00  0.00     0.102 A 
ATOM     30  C   UNL d   1      26.635 -16.107  -0.070  0.00  0.00     0.046 A 
BRANCH  28  31
ATOM     31  O   UNL d   1      23.811 -18.088  -1.464  0.00  0.00    -0.353 OA
ATOM     32  C   UNL d   1      22.511 -17.991  -0.890  0.00  0.00     0.210 C 
ENDBRANCH  28  31
BRANCH  29  33
ATOM     33  O   UNL d   1      25.795 -18.282   0.619  0.00  0.00    -0.353 OA
ATOM     34  C   UNL d   1      27.030 -18.940   0.829  0.00  0.00     0.210 C 
ENDBRANCH  29  33
ENDBRANCH  24  25
ENDBRANCH  23  24
ENDBRANCH   2  23
TORSDOF 10
ENDMDL
MODEL 7
REMARK VINA RESULT:    -5.805      5.426      8.860
REMARK INTER + INTRA:         -12.177
REMARK INTER:                  -8.788
REMARK INTRA:                  -3.390
REMARK CONF_INDEPENDENT:        2.983
REMARK UNBOUND:                -3.390
REMARK  10 active torsions:
REMARK  status: ('A' for Active; 'I' for Inactive)
REMARK    1  A    between atoms: C_2  and  N_3 
REMARK    2  A    between atoms: N_3  and  C_4 
REMARK    3  A    between atoms: C_4  and  S_18 
REMARK    4  A    between atoms: N_5  and  C_6 
REMARK    5  A    between atoms: C_6  and  C_7 
REMARK    6  A    between atoms: C_7  and  C_8 
REMARK    7  A    between atoms: C_11  and  O_12 
REMARK    8  A    between atoms: C_14  and  O_15 
REMARK    9  A    between atoms: C_19  and  S_18 
REMARK   10  A    between atoms: N_23  and  C_24 
ROOT
ATOM      1  C   UNL d   1      30.774 -14.185   3.134  0.00  0.00     0.136 C 
ATOM      2  N   UNL d   1      29.860 -14.825   3.858  0.00  0.00    -0.371 N 
ATOM      3  H   UNL d   1      29.353 -15.561   3.375  0.00  0.00     0.161 HD
ENDROOT
BRANCH   1   4
ATOM      4  N   UNL d   1      31.497 -13.168   3.605  0.00  0.00    -0.371 N 
ATOM      5  H   UNL d   1      32.330 -13.368   4.117  0.00  0.00     0.161 HD
BRANCH   4   6
ATOM      6  C   UNL d   1      31.316 -11.712   3.450  0.00  0.00     0.117 C 
ATOM      7  C   UNL d   1      30.551 -11.320   2.220  0.00  0.00     0.026 C 
ENDBRANCH   4   6
ENDBRANCH   1   4
BRANCH   1   8
ATOM      8  S   UNL d   1      30.936 -14.835   1.510  0.00  0.00    -0.080 SA
BRANCH   8   9
ATOM      9  C   UNL d   1      29.503 -14.406   0.466  0.00  0.00     0.157 C 
ATOM     10  C   UNL d   1      29.685 -14.779  -0.981  0.00  0.00     0.129 C 
ATOM     11  C   UNL d   1      28.497 -15.536  -1.413  0.00  0.00     0.232 C 
ATOM     12  O   UNL d   1      28.395 -15.957  -2.546  0.00  0.00    -0.273 OA
ATOM     13  N   UNL d   1      27.685 -15.677  -0.331  0.00  0.00    -0.248 N 
ATOM     14  C   UNL d   1      28.212 -15.136   0.827  0.00  0.00     0.246 C 
ATOM     15  O   UNL d   1      27.747 -15.209   1.956  0.00  0.00    -0.271 OA
BRANCH  13  16
ATOM     16  C   UNL d   1      26.529 -16.463  -0.384  0.00  0.00     0.084 A 
ATOM     17  C   UNL d   1      26.490 -17.670   0.313  0.00  0.00     0.033 A 
ATOM     18  C   UNL d   1      25.354 -18.474   0.230  0.00  0.00     0.002 A 
ATOM     19  C   UNL d   1      24.241 -18.051  -0.500  0.00  0.00     0.003 A 
ATOM     20  C   UNL d   1      24.268 -16.832  -1.177  0.00  0.00     0.044 A 
ATOM     21  C   UNL d   1      25.407 -16.041  -1.109  0.00  0.00     0.143 A 
ATOM     22  F   UNL d   1      25.444 -14.892  -1.803  0.00  0.00    -0.204 F 
ENDBRANCH  13  16
ENDBRANCH   8   9
ENDBRANCH   1   8
BRANCH   2  23
ATOM     23  C   UNL d   1      29.585 -14.479   5.243  0.00  0.00     0.126 C 
BRANCH  23  24
ATOM     24  C   UNL d   1      28.199 -14.042   5.608  0.00  0.00     0.058 C 
BRANCH  24  25
ATOM     25  C   UNL d   1      27.876 -12.780   4.822  0.00  0.00    -0.054 A 
ATOM     26  C   UNL d   1      28.037 -11.543   5.439  0.00  0.00     0.010 A 
ATOM     27  C   UNL d   1      27.700 -10.369   4.763  0.00  0.00     0.040 A 
ATOM     28  C   UNL d   1      27.265 -10.394   3.430  0.00  0.00     0.101 A 
ATOM     29  C   UNL d   1      27.067 -11.631   2.800  0.00  0.00     0.102 A 
ATOM     30  C   UNL d   1      27.388 -12.804   3.496  0.00  0.00     0.046 A 
BRANCH  28  31
ATOM     31  O   UNL d   1      27.098  -9.146   2.884  0.00  0.00    -0.353 OA
ATOM     32  C   UNL d   1      25.928  -8.919   2.103  0.00  0.00     0.210 C 
ENDBRANCH  28  31
BRANCH  29  33
ATOM     33  O   UNL d   1      26.552 -11.635   1.536  0.00  0.00    -0.353 OA
ATOM     34  C   UNL d   1      27.406 -11.824   0.424  0.00  0.00     0.210 C 
ENDBRANCH  29  33
ENDBRANCH  24  25
ENDBRANCH  23  24
ENDBRANCH   2  23
TORSDOF 10
ENDMDL
MODEL 8
REMARK VINA RESULT:    -5.646      4.906      7.052
REMARK INTER + INTRA:         -12.210
REMARK INTER:                  -8.629
REMARK INTRA:                  -3.581
REMARK CONF_INDEPENDENT:        2.983
REMARK UNBOUND:                -3.581
REMARK  10 active torsions:
REMARK  status: ('A' for Active; 'I' for Inactive)
REMARK    1  A    between atoms: C_2  and  N_3 
REMARK    2  A    between atoms: N_3  and  C_4 
REMARK    3  A    between atoms: C_4  and  S_18 
REMARK    4  A    between atoms: N_5  and  C_6 
REMARK    5  A    between atoms: C_6  and  C_7 
REMARK    6  A    between atoms: C_7  and  C_8 
REMARK    7  A    between atoms: C_11  and  O_12 
REMARK    8  A    between atoms: C_14  and  O_15 
REMARK    9  A    between atoms: C_19  and  S_18 
REMARK   10  A    between atoms: N_23  and  C_24 
ROOT
ATOM      1  C   UNL d   1      28.256 -14.166   1.623  0.00  0.00     0.136 C 
ATOM      2  N   UNL d   1      27.837 -14.914   0.607  0.00  0.00    -0.371 N 
ATOM      3  H   UNL d   1      27.814 -14.454  -0.299  0.00  0.00     0.161 HD
ENDROOT
BRANCH   1   4
ATOM      4  N   UNL d   1      28.308 -14.606   2.881  0.00  0.00    -0.371 N 
ATOM      5  H   UNL d   1      28.858 -15.413   3.085  0.00  0.00     0.161 HD
BRANCH   4   6
ATOM      6  C   UNL d   1      27.713 -14.054   4.113  0.00  0.00     0.117 C 
ATOM      7  C   UNL d   1      28.252 -14.661   5.375  0.00  0.00     0.026 C 
ENDBRANCH   4   6
ENDBRANCH   1   4
BRANCH   1   8
ATOM      8  S   UNL d   1      28.748 -12.555   1.127  0.00  0.00    -0.080 SA
BRANCH   8   9
ATOM      9  C   UNL d   1      27.408 -11.681   0.250  0.00  0.00     0.157 C 
ATOM     10  C   UNL d   1      27.710 -10.229  -0.007  0.00  0.00     0.129 C 
ATOM     11  C   UNL d   1      27.459  -9.952  -1.433  0.00  0.00     0.232 C 
ATOM     12  O   UNL d   1      27.629  -8.846  -1.901  0.00  0.00    -0.273 OA
ATOM     13  N   UNL d   1      27.097 -11.125  -2.020  0.00  0.00    -0.248 N 
ATOM     14  C   UNL d   1      27.121 -12.203  -1.155  0.00  0.00     0.246 C 
ATOM     15  O   UNL d   1      26.942 -13.380  -1.436  0.00  0.00    -0.271 OA
BRANCH  13  16
ATOM     16  C   UNL d   1      26.912 -11.221  -3.403  0.00  0.00     0.084 A 
ATOM     17  C   UNL d   1      25.915 -10.463  -4.014  0.00  0.00     0.033 A 
ATOM     18  C   UNL d   1      25.702 -10.585  -5.386  0.00  0.00     0.002 A 
ATOM     19  C   UNL d   1      26.518 -11.419  -6.155  0.00  0.00     0.003 A 
ATOM     20  C   UNL d   1      27.533 -12.158  -5.550  0.00  0.00     0.044 A 
ATOM     21  C   UNL d   1      27.732 -12.050  -4.181  0.00  0.00     0.143 A 
ATOM     22  F   UNL d   1      28.679 -12.802  -3.598  0.00  0.00    -0.204 F 
ENDBRANCH  13  16
ENDBRANCH   8   9
ENDBRANCH   1   8
BRANCH   2  23
ATOM     23  C   UNL d   1      27.416 -16.295   0.781  0.00  0.00     0.126 C 
BRANCH  23  24
ATOM     24  C   UNL d   1      26.356 -16.839  -0.128  0.00  0.00     0.058 C 
BRANCH  24  25
ATOM     25  C   UNL d   1      26.653 -16.365  -1.543  0.00  0.00    -0.054 A 
ATOM     26  C   UNL d   1      27.962 -16.424  -2.011  0.00  0.00     0.010 A 
ATOM     27  C   UNL d   1      28.277 -15.949  -3.285  0.00  0.00     0.040 A 
ATOM     28  C   UNL d   1      27.282 -15.474  -4.153  0.00  0.00     0.101 A 
ATOM     29  C   UNL d   1      25.962 -15.379  -3.691  0.00  0.00     0.102 A 
ATOM     30  C   UNL d   1      25.662 -15.838  -2.401  0.00  0.00     0.046 A 
BRANCH  28  31
ATOM     31  O   UNL d   1      27.750 -15.166  -5.406  0.00  0.00    -0.353 OA
ATOM     32  C   UNL d   1      29.128 -15.411  -5.675  0.00  0.00     0.210 C 
ENDBRANCH  28  31
BRANCH  29  33
ATOM     33  O   UNL d   1      25.028 -14.824  -4.517  0.00  0.00    -0.353 OA
ATOM     34  C   UNL d   1      24.307 -13.679  -4.103  0.00  0.00     0.210 C 
ENDBRANCH  29  33
ENDBRANCH  24  25
ENDBRANCH  23  24
ENDBRANCH   2  23
TORSDOF 10
ENDMDL
MODEL 9
REMARK VINA RESULT:    -5.433      3.770      8.330
REMARK INTER + INTRA:         -12.439
REMARK INTER:                  -8.416
REMARK INTRA:                  -4.023
REMARK CONF_INDEPENDENT:        2.983
REMARK UNBOUND:                -4.023
REMARK  10 active torsions:
REMARK  status: ('A' for Active; 'I' for Inactive)
REMARK    1  A    between atoms: C_2  and  N_3 
REMARK    2  A    between atoms: N_3  and  C_4 
REMARK    3  A    between atoms: C_4  and  S_18 
REMARK    4  A    between atoms: N_5  and  C_6 
REMARK    5  A    between atoms: C_6  and  C_7 
REMARK    6  A    between atoms: C_7  and  C_8 
REMARK    7  A    between atoms: C_11  and  O_12 
REMARK    8  A    between atoms: C_14  and  O_15 
REMARK    9  A    between atoms: C_19  and  S_18 
REMARK   10  A    between atoms: N_23  and  C_24 
ROOT
ATOM      1  C   UNL d   1      29.503 -13.471  -1.599  0.00  0.00     0.136 C 
ATOM      2  N   UNL d   1      29.221 -14.349  -0.642  0.00  0.00    -0.371 N 
ATOM      3  H   UNL d   1      28.435 -14.111  -0.044  0.00  0.00     0.161 HD
ENDROOT
BRANCH   1   4
ATOM      4  N   UNL d   1      30.526 -13.614  -2.443  0.00  0.00    -0.371 N 
ATOM      5  H   UNL d   1      31.384 -13.991  -2.098  0.00  0.00     0.161 HD
BRANCH   4   6
ATOM      6  C   UNL d   1      30.614 -13.358  -3.893  0.00  0.00     0.117 C 
ATOM      7  C   UNL d   1      31.907 -12.730  -4.325  0.00  0.00     0.026 C 
ENDBRANCH   4   6
ENDBRANCH   1   4
BRANCH   1   8
ATOM      8  S   UNL d   1      28.379 -12.122  -1.642  0.00  0.00    -0.080 SA
BRANCH   8   9
ATOM      9  C   UNL d   1      26.650 -12.689  -1.766  0.00  0.00     0.157 C 
ATOM     10  C   UNL d   1      26.295 -13.234  -3.124  0.00  0.00     0.129 C 
ATOM     11  C   UNL d   1      25.656 -14.549  -2.939  0.00  0.00     0.232 C 
ATOM     12  O   UNL d   1      25.275 -15.204  -3.886  0.00  0.00    -0.273 OA
ATOM     13  N   UNL d   1      25.667 -14.826  -1.607  0.00  0.00    -0.248 N 
ATOM     14  C   UNL d   1      26.296 -13.857  -0.849  0.00  0.00     0.246 C 
ATOM     15  O   UNL d   1      26.538 -13.897   0.350  0.00  0.00    -0.271 OA
BRANCH  13  16
ATOM     16  C   UNL d   1      25.242 -16.066  -1.117  0.00  0.00     0.084 A 
ATOM     17  C   UNL d   1      26.183 -16.953  -0.597  0.00  0.00     0.033 A 
ATOM     18  C   UNL d   1      25.770 -18.205  -0.143  0.00  0.00     0.002 A 
ATOM     19  C   UNL d   1      24.416 -18.549  -0.158  0.00  0.00     0.003 A 
ATOM     20  C   UNL d   1      23.470 -17.653  -0.654  0.00  0.00     0.044 A 
ATOM     21  C   UNL d   1      23.886 -16.414  -1.123  0.00  0.00     0.143 A 
ATOM     22  F   UNL d   1      22.976 -15.576  -1.644  0.00  0.00    -0.204 F 
ENDBRANCH  13  16
ENDBRANCH   8   9
ENDBRANCH   1   8
BRANCH   2  23
ATOM     23  C   UNL d   1      29.998 -15.563  -0.446  0.00  0.00     0.126 C 
BRANCH  23  24
ATOM     24  C   UNL d   1      29.507 -16.834  -1.069  0.00  0.00     0.058 C 
BRANCH  24  25
ATOM     25  C   UNL d   1      29.532 -16.664  -2.581  0.00  0.00    -0.054 A 
ATOM     26  C   UNL d   1      30.635 -17.127  -3.291  0.00  0.00     0.010 A 
ATOM     27  C   UNL d   1      30.713 -16.941  -4.672  0.00  0.00     0.040 A 
ATOM     28  C   UNL d   1      29.659 -16.356  -5.390  0.00  0.00     0.101 A 
ATOM     29  C   UNL d   1      28.552 -15.856  -4.690  0.00  0.00     0.102 A 
ATOM     30  C   UNL d   1      28.495 -16.029  -3.301  0.00  0.00     0.046 A 
BRANCH  28  31
ATOM     31  O   UNL d   1      29.850 -16.365  -6.749  0.00  0.00    -0.353 OA
ATOM     32  C   UNL d   1      31.192 -16.415  -7.226  0.00  0.00     0.210 C 
ENDBRANCH  28  31
BRANCH  29  33
ATOM     33  O   UNL d   1      27.583 -15.204  -5.397  0.00  0.00    -0.353 OA
ATOM     34  C   UNL d   1      27.913 -14.063  -6.166  0.00  0.00     0.210 C 
ENDBRANCH  29  33
ENDBRANCH  24  25
ENDBRANCH  23  24
ENDBRANCH   2  23
TORSDOF 10
ENDMDL
