MODEL 1
REMARK VINA RESULT:   -10.314      0.000      0.000
REMARK INTER + INTRA:         -14.731
REMARK INTER:                 -13.595
REMARK INTRA:                  -1.136
REMARK CONF_INDEPENDENT:        3.281
REMARK UNBOUND:                -1.136
REMARK  11 active torsions:
REMARK  status: ('A' for Active; 'I' for Inactive)
REMARK    1  A    between atoms: C_2  and  C_3 
REMARK    2  A    between atoms: C_3  and  C_4 
REMARK    3  A    between atoms: C_4  and  O_5 
REMARK    4  A    between atoms: O_5  and  C_6 
REMARK    5  A    between atoms: C_6  and  C_8 
REMARK    6  A    between atoms: C_11  and  N_12 
REMARK    7  A    between atoms: N_12  and  C_13 
REMARK    8  A    between atoms: C_13  and  N_15 
REMARK       I    between atoms: N_15  and  C_16 
REMARK    9  A    between atoms: C_16  and  C_18 
REMARK   10  A    between atoms: C_21  and  N_22 
REMARK   11  A    between atoms: C_27  and  N_28 
ROOT
ATOM      1  N   UNL d   1      28.145 -15.202   1.487  0.00  0.00    -0.299 N 
ATOM      2  C   UNL d   1      27.585 -14.186   2.311  0.00  0.00     0.257 C 
ATOM      3  O   UNL d   1      26.594 -13.497   2.075  0.00  0.00    -0.267 OA
ATOM      4  H   UNL d   1      28.960 -15.688   1.833  0.00  0.00     0.171 HD
ENDROOT
BRANCH   1   5
ATOM      5  C   UNL d   1      27.610 -15.553   0.221  0.00  0.00     0.179 C 
ATOM      6  S   UNL d   1      27.757 -14.439  -1.042  0.00  0.00    -0.040 SA
BRANCH   5   7
ATOM      7  N   UNL d   1      26.993 -16.846   0.131  0.00  0.00    -0.333 N 
ATOM      8  H   UNL d   1      27.568 -17.677   0.236  0.00  0.00     0.168 HD
BRANCH   7   9
ATOM      9  C   UNL d   1      25.600 -17.129  -0.252  0.00  0.00     0.034 A 
ATOM     10  C   UNL d   1      24.780 -16.217  -0.939  0.00  0.00     0.030 A 
ATOM     11  C   UNL d   1      23.390 -16.505  -1.164  0.00  0.00     0.020 A 
ATOM     12  C   UNL d   1      22.809 -17.714  -0.744  0.00  0.00     0.039 A 
ATOM     13  C   UNL d   1      23.620 -18.633  -0.129  0.00  0.00     0.020 A 
ATOM     14  C   UNL d   1      24.966 -18.338   0.051  0.00  0.00     0.030 A 
BRANCH  12  15
ATOM     15  C   UNL d   1      21.433 -18.138  -1.089  0.00  0.00     0.293 C 
ATOM     16  O   UNL d   1      20.525 -17.329  -1.270  0.00  0.00    -0.259 OA
BRANCH  15  17
ATOM     17  O   UNL d   1      21.336 -19.492  -1.210  0.00  0.00    -0.318 OA
BRANCH  17  18
ATOM     18  C   UNL d   1      20.217 -20.072  -0.510  0.00  0.00     0.179 C 
BRANCH  18  19
ATOM     19  C   UNL d   1      20.253 -19.685   0.970  0.00  0.00     0.026 C 
BRANCH  19  20
ATOM     20  C   UNL d   1      19.058 -20.264   1.736  0.00  0.00    -0.002 C 
ATOM     21  C   UNL d   1      18.416 -21.418   0.980  0.00  0.00     0.005 C 
ENDBRANCH  19  20
ENDBRANCH  18  19
ENDBRANCH  17  18
ENDBRANCH  15  17
ENDBRANCH  12  15
ENDBRANCH   7   9
ENDBRANCH   5   7
ENDBRANCH   1   5
BRANCH   2  22
ATOM     22  C   UNL d   1      28.168 -13.809   3.602  0.00  0.00     0.035 A 
ATOM     23  C   UNL d   1      28.506 -14.830   4.498  0.00  0.00     0.019 A 
ATOM     24  C   UNL d   1      28.827 -14.531   5.827  0.00  0.00     0.033 A 
ATOM     25  C   UNL d   1      28.865 -13.207   6.322  0.00  0.00     0.063 A 
ATOM     26  C   UNL d   1      28.448 -12.200   5.405  0.00  0.00     0.130 A 
ATOM     27  C   UNL d   1      28.100 -12.509   4.061  0.00  0.00     0.055 A 
BRANCH  25  28
ATOM     28  N   UNL d   1      29.299 -13.067   7.623  0.00  0.00    -0.379 N 
ATOM     29  C   UNL d   1      30.632 -13.362   8.132  0.00  0.00     0.123 C 
ATOM     30  C   UNL d   1      30.349 -14.145   9.411  0.00  0.00     0.021 C 
ATOM     31  C   UNL d   1      29.137 -13.420   9.979  0.00  0.00     0.021 C 
ATOM     32  C   UNL d   1      28.353 -12.938   8.745  0.00  0.00     0.123 C 
ENDBRANCH  25  28
BRANCH  26  33
ATOM     33  N   UNL d   1      28.373 -10.760   5.715  0.00  0.00    -0.113 N 
ATOM     34  O   UNL d   1      28.533 -10.358   6.866  0.00  0.00    -0.532 OA
ATOM     35  O   UNL d   1      28.184  -9.986   4.761  0.00  0.00    -0.532 OA
ENDBRANCH  26  33
ENDBRANCH   2  22
TORSDOF 11
ENDMDL
MODEL 2
REMARK VINA RESULT:    -9.955      1.623      2.086
REMARK INTER + INTRA:         -14.901
REMARK INTER:                 -13.236
REMARK INTRA:                  -1.665
REMARK CONF_INDEPENDENT:        3.281
REMARK UNBOUND:                -1.665
REMARK  11 active torsions:
REMARK  status: ('A' for Active; 'I' for Inactive)
REMARK    1  A    between atoms: C_2  and  C_3 
REMARK    2  A    between atoms: C_3  and  C_4 
REMARK    3  A    between atoms: C_4  and  O_5 
REMARK    4  A    between atoms: O_5  and  C_6 
REMARK    5  A    between atoms: C_6  and  C_8 
REMARK    6  A    between atoms: C_11  and  N_12 
REMARK    7  A    between atoms: N_12  and  C_13 
REMARK    8  A    between atoms: C_13  and  N_15 
REMARK       I    between atoms: N_15  and  C_16 
REMARK    9  A    between atoms: C_16  and  C_18 
REMARK   10  A    between atoms: C_21  and  N_22 
REMARK   11  A    between atoms: C_27  and  N_28 
ROOT
ATOM      1  N   UNL d   1      27.521 -15.542   1.267  0.00  0.00    -0.299 N 
ATOM      2  C   UNL d   1      27.048 -14.213   1.448  0.00  0.00     0.257 C 
ATOM      3  O   UNL d   1      26.252 -13.601   0.737  0.00  0.00    -0.267 OA
ATOM      4  H   UNL d   1      28.169 -15.905   1.952  0.00  0.00     0.171 HD
ENDROOT
BRANCH   1   5
ATOM      5  C   UNL d   1      27.122 -16.365   0.182  0.00  0.00     0.179 C 
ATOM      6  S   UNL d   1      28.093 -17.693  -0.209  0.00  0.00    -0.040 SA
BRANCH   5   7
ATOM      7  N   UNL d   1      25.907 -15.989  -0.484  0.00  0.00    -0.333 N 
ATOM      8  H   UNL d   1      25.814 -15.043  -0.846  0.00  0.00     0.168 HD
BRANCH   7   9
ATOM      9  C   UNL d   1      24.676 -16.791  -0.585  0.00  0.00     0.034 A 
ATOM     10  C   UNL d   1      23.419 -16.250  -0.908  0.00  0.00     0.030 A 
ATOM     11  C   UNL d   1      22.236 -17.065  -0.858  0.00  0.00     0.020 A 
ATOM     12  C   UNL d   1      22.293 -18.430  -0.526  0.00  0.00     0.039 A 
ATOM     13  C   UNL d   1      23.525 -18.975  -0.272  0.00  0.00     0.020 A 
ATOM     14  C   UNL d   1      24.654 -18.168  -0.353  0.00  0.00     0.030 A 
BRANCH  12  15
ATOM     15  C   UNL d   1      21.140 -19.355  -0.618  0.00  0.00     0.293 C 
ATOM     16  O   UNL d   1      20.469 -19.464  -1.641  0.00  0.00    -0.259 OA
BRANCH  15  17
ATOM     17  O   UNL d   1      20.969 -20.064   0.533  0.00  0.00    -0.318 OA
BRANCH  17  18
ATOM     18  C   UNL d   1      20.292 -19.340   1.581  0.00  0.00     0.179 C 
BRANCH  18  19
ATOM     19  C   UNL d   1      18.785 -19.595   1.521  0.00  0.00     0.026 C 
BRANCH  19  20
ATOM     20  C   UNL d   1      18.424 -20.589   0.411  0.00  0.00    -0.002 C 
ATOM     21  C   UNL d   1      18.054 -21.951   0.979  0.00  0.00     0.005 C 
ENDBRANCH  19  20
ENDBRANCH  18  19
ENDBRANCH  17  18
ENDBRANCH  15  17
ENDBRANCH  12  15
ENDBRANCH   7   9
ENDBRANCH   5   7
ENDBRANCH   1   5
BRANCH   2  22
ATOM     22  C   UNL d   1      27.495 -13.361   2.555  0.00  0.00     0.035 A 
ATOM     23  C   UNL d   1      27.963 -13.982   3.719  0.00  0.00     0.019 A 
ATOM     24  C   UNL d   1      28.165 -13.240   4.888  0.00  0.00     0.033 A 
ATOM     25  C   UNL d   1      27.948 -11.844   4.950  0.00  0.00     0.063 A 
ATOM     26  C   UNL d   1      27.406 -11.257   3.771  0.00  0.00     0.130 A 
ATOM     27  C   UNL d   1      27.180 -12.018   2.591  0.00  0.00     0.055 A 
BRANCH  25  28
ATOM     28  N   UNL d   1      28.289 -11.238   6.140  0.00  0.00    -0.379 N 
ATOM     29  C   UNL d   1      29.081 -10.026   6.304  0.00  0.00     0.123 C 
ATOM     30  C   UNL d   1      30.059 -10.399   7.415  0.00  0.00     0.021 C 
ATOM     31  C   UNL d   1      29.193 -11.230   8.351  0.00  0.00     0.021 C 
ATOM     32  C   UNL d   1      28.195 -11.951   7.427  0.00  0.00     0.123 C 
ENDBRANCH  25  28
BRANCH  26  33
ATOM     33  N   UNL d   1      27.066  -9.829   3.623  0.00  0.00    -0.113 N 
ATOM     34  O   UNL d   1      25.931  -9.486   3.294  0.00  0.00    -0.532 OA
ATOM     35  O   UNL d   1      27.959  -9.006   3.884  0.00  0.00    -0.532 OA
ENDBRANCH  26  33
ENDBRANCH   2  22
TORSDOF 11
ENDMDL
MODEL 3
REMARK VINA RESULT:    -9.486      2.379      3.127
REMARK INTER + INTRA:         -14.165
REMARK INTER:                 -12.767
REMARK INTRA:                  -1.398
REMARK CONF_INDEPENDENT:        3.281
REMARK UNBOUND:                -1.398
REMARK  11 active torsions:
REMARK  status: ('A' for Active; 'I' for Inactive)
REMARK    1  A    between atoms: C_2  and  C_3 
REMARK    2  A    between atoms: C_3  and  C_4 
REMARK    3  A    between atoms: C_4  and  O_5 
REMARK    4  A    between atoms: O_5  and  C_6 
REMARK    5  A    between atoms: C_6  and  C_8 
REMARK    6  A    between atoms: C_11  and  N_12 
REMARK    7  A    between atoms: N_12  and  C_13 
REMARK    8  A    between atoms: C_13  and  N_15 
REMARK       I    between atoms: N_15  and  C_16 
REMARK    9  A    between atoms: C_16  and  C_18 
REMARK   10  A    between atoms: C_21  and  N_22 
REMARK   11  A    between atoms: C_27  and  N_28 
ROOT
ATOM      1  N   UNL d   1      26.596 -13.936  -0.055  0.00  0.00    -0.299 N 
ATOM      2  C   UNL d   1      27.148 -14.046   1.252  0.00  0.00     0.257 C 
ATOM      3  O   UNL d   1      27.404 -15.080   1.868  0.00  0.00    -0.267 OA
ATOM      4  H   UNL d   1      26.458 -13.006  -0.427  0.00  0.00     0.171 HD
ENDROOT
BRANCH   1   5
ATOM      5  C   UNL d   1      26.242 -15.061  -0.843  0.00  0.00     0.179 C 
ATOM      6  S   UNL d   1      26.350 -14.921  -2.524  0.00  0.00    -0.040 SA
BRANCH   5   7
ATOM      7  N   UNL d   1      25.827 -16.232  -0.124  0.00  0.00    -0.333 N 
ATOM      8  H   UNL d   1      26.469 -16.661   0.536  0.00  0.00     0.168 HD
BRANCH   7   9
ATOM      9  C   UNL d   1      24.590 -17.002  -0.340  0.00  0.00     0.034 A 
ATOM     10  C   UNL d   1      24.549 -18.405  -0.414  0.00  0.00     0.030 A 
ATOM     11  C   UNL d   1      23.332 -19.086  -0.759  0.00  0.00     0.020 A 
ATOM     12  C   UNL d   1      22.135 -18.386  -0.997  0.00  0.00     0.039 A 
ATOM     13  C   UNL d   1      22.157 -17.022  -0.864  0.00  0.00     0.020 A 
ATOM     14  C   UNL d   1      23.343 -16.393  -0.504  0.00  0.00     0.030 A 
BRANCH  12  15
ATOM     15  C   UNL d   1      20.819 -19.035  -1.194  0.00  0.00     0.293 C 
ATOM     16  O   UNL d   1      20.561 -19.702  -2.194  0.00  0.00    -0.259 OA
BRANCH  15  17
ATOM     17  O   UNL d   1      19.990 -18.827  -0.132  0.00  0.00    -0.318 OA
BRANCH  17  18
ATOM     18  C   UNL d   1      20.506 -19.307   1.126  0.00  0.00     0.179 C 
BRANCH  18  19
ATOM     19  C   UNL d   1      19.659 -20.472   1.642  0.00  0.00     0.026 C 
BRANCH  19  20
ATOM     20  C   UNL d   1      18.556 -20.853   0.647  0.00  0.00    -0.002 C 
ATOM     21  C   UNL d   1      17.407 -21.575   1.336  0.00  0.00     0.005 C 
ENDBRANCH  19  20
ENDBRANCH  18  19
ENDBRANCH  17  18
ENDBRANCH  15  17
ENDBRANCH  12  15
ENDBRANCH   7   9
ENDBRANCH   5   7
ENDBRANCH   1   5
BRANCH   2  22
ATOM     22  C   UNL d   1      27.479 -12.875   2.069  0.00  0.00     0.035 A 
ATOM     23  C   UNL d   1      28.393 -13.038   3.118  0.00  0.00     0.019 A 
ATOM     24  C   UNL d   1      28.558 -12.033   4.078  0.00  0.00     0.033 A 
ATOM     25  C   UNL d   1      27.854 -10.808   4.027  0.00  0.00     0.063 A 
ATOM     26  C   UNL d   1      26.884 -10.704   2.990  0.00  0.00     0.130 A 
ATOM     27  C   UNL d   1      26.701 -11.736   2.028  0.00  0.00     0.055 A 
BRANCH  25  28
ATOM     28  N   UNL d   1      28.201  -9.879   4.984  0.00  0.00    -0.379 N 
ATOM     29  C   UNL d   1      28.466  -8.463   4.767  0.00  0.00     0.123 C 
ATOM     30  C   UNL d   1      29.745  -8.223   5.566  0.00  0.00     0.021 C 
ATOM     31  C   UNL d   1      29.524  -9.079   6.805  0.00  0.00     0.021 C 
ATOM     32  C   UNL d   1      28.702 -10.283   6.310  0.00  0.00     0.123 C 
ENDBRANCH  25  28
BRANCH  26  33
ATOM     33  N   UNL d   1      26.010  -9.535   2.770  0.00  0.00    -0.113 N 
ATOM     34  O   UNL d   1      24.979  -9.640   2.107  0.00  0.00    -0.532 OA
ATOM     35  O   UNL d   1      26.345  -8.470   3.314  0.00  0.00    -0.532 OA
ENDBRANCH  26  33
ENDBRANCH   2  22
TORSDOF 11
ENDMDL
MODEL 4
REMARK VINA RESULT:    -9.153      6.097      9.303
REMARK INTER + INTRA:         -13.603
REMARK INTER:                 -12.434
REMARK INTRA:                  -1.170
REMARK CONF_INDEPENDENT:        3.281
REMARK UNBOUND:                -1.170
REMARK  11 active torsions:
REMARK  status: ('A' for Active; 'I' for Inactive)
REMARK    1  A    between atoms: C_2  and  C_3 
REMARK    2  A    between atoms: C_3  and  C_4 
REMARK    3  A    between atoms: C_4  and  O_5 
REMARK    4  A    between atoms: O_5  and  C_6 
REMARK    5  A    between atoms: C_6  and  C_8 
REMARK    6  A    between atoms: C_11  and  N_12 
REMARK    7  A    between atoms: N_12  and  C_13 
REMARK    8  A    between atoms: C_13  and  N_15 
REMARK       I    between atoms: N_15  and  C_16 
REMARK    9  A    between atoms: C_16  and  C_18 
REMARK   10  A    between atoms: C_21  and  N_22 
REMARK   11  A    between atoms: C_27  and  N_28 
ROOT
ATOM      1  N   UNL d   1      27.060 -15.206  -2.091  0.00  0.00    -0.299 N 
ATOM      2  C   UNL d   1      26.240 -15.187  -3.253  0.00  0.00     0.257 C 
ATOM      3  O   UNL d   1      25.173 -15.776  -3.422  0.00  0.00    -0.267 OA
ATOM      4  H   UNL d   1      27.906 -14.654  -2.107  0.00  0.00     0.171 HD
ENDROOT
BRANCH   1   5
ATOM      5  C   UNL d   1      26.741 -15.956  -0.931  0.00  0.00     0.179 C 
ATOM      6  S   UNL d   1      27.941 -16.944  -0.265  0.00  0.00    -0.040 SA
BRANCH   5   7
ATOM      7  N   UNL d   1      25.409 -15.796  -0.420  0.00  0.00    -0.333 N 
ATOM      8  H   UNL d   1      25.186 -14.970   0.129  0.00  0.00     0.168 HD
BRANCH   7   9
ATOM      9  C   UNL d   1      24.322 -16.788  -0.472  0.00  0.00     0.034 A 
ATOM     10  C   UNL d   1      24.525 -18.173  -0.339  0.00  0.00     0.030 A 
ATOM     11  C   UNL d   1      23.441 -19.095  -0.533  0.00  0.00     0.020 A 
ATOM     12  C   UNL d   1      22.138 -18.653  -0.825  0.00  0.00     0.039 A 
ATOM     13  C   UNL d   1      21.923 -17.300  -0.894  0.00  0.00     0.020 A 
ATOM     14  C   UNL d   1      22.986 -16.432  -0.676  0.00  0.00     0.030 A 
BRANCH  12  15
ATOM     15  C   UNL d   1      20.952 -19.538  -0.874  0.00  0.00     0.293 C 
ATOM     16  O   UNL d   1      20.285 -19.683  -1.896  0.00  0.00    -0.259 OA
BRANCH  15  17
ATOM     17  O   UNL d   1      20.744 -20.170   0.316  0.00  0.00    -0.318 OA
BRANCH  17  18
ATOM     18  C   UNL d   1      19.950 -19.419   1.256  0.00  0.00     0.179 C 
BRANCH  18  19
ATOM     19  C   UNL d   1      19.264 -20.360   2.249  0.00  0.00     0.026 C 
BRANCH  19  20
ATOM     20  C   UNL d   1      18.188 -21.213   1.568  0.00  0.00    -0.002 C 
ATOM     21  C   UNL d   1      18.023 -20.840   0.103  0.00  0.00     0.005 C 
ENDBRANCH  19  20
ENDBRANCH  18  19
ENDBRANCH  17  18
ENDBRANCH  15  17
ENDBRANCH  12  15
ENDBRANCH   7   9
ENDBRANCH   5   7
ENDBRANCH   1   5
BRANCH   2  22
ATOM     22  C   UNL d   1      26.599 -14.434  -4.459  0.00  0.00     0.035 A 
ATOM     23  C   UNL d   1      27.668 -14.900  -5.235  0.00  0.00     0.019 A 
ATOM     24  C   UNL d   1      28.213 -14.100  -6.245  0.00  0.00     0.033 A 
ATOM     25  C   UNL d   1      27.706 -12.818  -6.559  0.00  0.00     0.063 A 
ATOM     26  C   UNL d   1      26.666 -12.347  -5.706  0.00  0.00     0.130 A 
ATOM     27  C   UNL d   1      26.128 -13.154  -4.665  0.00  0.00     0.055 A 
BRANCH  25  28
ATOM     28  N   UNL d   1      28.282 -12.196  -7.646  0.00  0.00    -0.379 N 
ATOM     29  C   UNL d   1      27.649 -11.227  -8.530  0.00  0.00     0.123 C 
ATOM     30  C   UNL d   1      28.040 -11.720  -9.921  0.00  0.00     0.021 C 
ATOM     31  C   UNL d   1      29.475 -12.183  -9.714  0.00  0.00     0.021 C 
ATOM     32  C   UNL d   1      29.513 -12.711  -8.269  0.00  0.00     0.123 C 
ENDBRANCH  25  28
BRANCH  26  33
ATOM     33  N   UNL d   1      26.015 -11.029  -5.824  0.00  0.00    -0.113 N 
ATOM     34  O   UNL d   1      25.504 -10.675  -6.885  0.00  0.00    -0.532 OA
ATOM     35  O   UNL d   1      25.974 -10.326  -4.799  0.00  0.00    -0.532 OA
ENDBRANCH  26  33
ENDBRANCH   2  22
TORSDOF 11
ENDMDL
MODEL 5
REMARK VINA RESULT:    -8.593      5.815      8.168
REMARK INTER + INTRA:         -13.293
REMARK INTER:                 -11.874
REMARK INTRA:                  -1.419
REMARK CONF_INDEPENDENT:        3.281
REMARK UNBOUND:                -1.419
REMARK  11 active torsions:
REMARK  status: ('A' for Active; 'I' for Inactive)
REMARK    1  A    between atoms: C_2  and  C_3 
REMARK    2  A    between atoms: C_3  and  C_4 
REMARK    3  A    between atoms: C_4  and  O_5 
REMARK    4  A    between atoms: O_5  and  C_6 
REMARK    5  A    between atoms: C_6  and  C_8 
REMARK    6  A    between atoms: C_11  and  N_12 
REMARK    7  A    between atoms: N_12  and  C_13 
REMARK    8  A    between atoms: C_13  and  N_15 
REMARK       I    between atoms: N_15  and  C_16 
REMARK    9  A    between atoms: C_16  and  C_18 
REMARK   10  A    between atoms: C_21  and  N_22 
REMARK   11  A    between atoms: C_27  and  N_28 
ROOT
ATOM      1  N   UNL d   1      26.612 -14.701  -1.666  0.00  0.00    -0.299 N 
ATOM      2  C   UNL d   1      26.066 -14.509  -2.965  0.00  0.00     0.257 C 
ATOM      3  O   UNL d   1      25.741 -15.378  -3.773  0.00  0.00    -0.267 OA
ATOM      4  H   UNL d   1      26.815 -13.876  -1.118  0.00  0.00     0.171 HD
ENDROOT
BRANCH   1   5
ATOM      5  C   UNL d   1      26.873 -15.983  -1.118  0.00  0.00     0.179 C 
ATOM      6  S   UNL d   1      28.186 -16.857  -1.728  0.00  0.00    -0.040 SA
BRANCH   5   7
ATOM      7  N   UNL d   1      25.988 -16.418  -0.076  0.00  0.00    -0.333 N 
ATOM      8  H   UNL d   1      26.276 -16.314   0.894  0.00  0.00     0.168 HD
BRANCH   7   9
ATOM      9  C   UNL d   1      24.726 -17.159  -0.247  0.00  0.00     0.034 A 
ATOM     10  C   UNL d   1      24.626 -18.558  -0.161  0.00  0.00     0.030 A 
ATOM     11  C   UNL d   1      23.392 -19.226  -0.471  0.00  0.00     0.020 A 
ATOM     12  C   UNL d   1      22.236 -18.511  -0.832  0.00  0.00     0.039 A 
ATOM     13  C   UNL d   1      22.313 -17.143  -0.855  0.00  0.00     0.020 A 
ATOM     14  C   UNL d   1      23.512 -16.524  -0.526  0.00  0.00     0.030 A 
BRANCH  12  15
ATOM     15  C   UNL d   1      20.900 -19.126  -1.001  0.00  0.00     0.293 C 
ATOM     16  O   UNL d   1      20.543 -19.635  -2.062  0.00  0.00    -0.259 OA
BRANCH  15  17
ATOM     17  O   UNL d   1      20.174 -19.082   0.152  0.00  0.00    -0.318 OA
BRANCH  17  18
ATOM     18  C   UNL d   1      20.418 -20.184   1.049  0.00  0.00     0.179 C 
BRANCH  18  19
ATOM     19  C   UNL d   1      19.408 -20.173   2.198  0.00  0.00     0.026 C 
BRANCH  19  20
ATOM     20  C   UNL d   1      18.046 -20.722   1.758  0.00  0.00    -0.002 C 
ATOM     21  C   UNL d   1      18.078 -21.208   0.317  0.00  0.00     0.005 C 
ENDBRANCH  19  20
ENDBRANCH  18  19
ENDBRANCH  17  18
ENDBRANCH  15  17
ENDBRANCH  12  15
ENDBRANCH   7   9
ENDBRANCH   5   7
ENDBRANCH   1   5
BRANCH   2  22
ATOM     22  C   UNL d   1      25.833 -13.177  -3.534  0.00  0.00     0.035 A 
ATOM     23  C   UNL d   1      25.720 -13.063  -4.924  0.00  0.00     0.019 A 
ATOM     24  C   UNL d   1      25.747 -11.806  -5.538  0.00  0.00     0.033 A 
ATOM     25  C   UNL d   1      25.852 -10.602  -4.804  0.00  0.00     0.063 A 
ATOM     26  C   UNL d   1      26.036 -10.758  -3.400  0.00  0.00     0.130 A 
ATOM     27  C   UNL d   1      26.030 -12.038  -2.781  0.00  0.00     0.055 A 
BRANCH  25  28
ATOM     28  N   UNL d   1      25.761  -9.441  -5.542  0.00  0.00    -0.379 N 
ATOM     29  C   UNL d   1      26.864  -8.701  -6.140  0.00  0.00     0.123 C 
ATOM     30  C   UNL d   1      26.555  -7.255  -5.765  0.00  0.00     0.021 C 
ATOM     31  C   UNL d   1      25.041  -7.194  -5.907  0.00  0.00     0.021 C 
ATOM     32  C   UNL d   1      24.552  -8.599  -5.514  0.00  0.00     0.123 C 
ENDBRANCH  25  28
BRANCH  26  33
ATOM     33  N   UNL d   1      26.204  -9.645  -2.446  0.00  0.00    -0.113 N 
ATOM     34  O   UNL d   1      25.294  -8.840  -2.255  0.00  0.00    -0.532 OA
ATOM     35  O   UNL d   1      27.280  -9.590  -1.827  0.00  0.00    -0.532 OA
ENDBRANCH  26  33
ENDBRANCH   2  22
TORSDOF 11
ENDMDL
MODEL 6
REMARK VINA RESULT:    -8.389      6.021     10.091
REMARK INTER + INTRA:         -12.981
REMARK INTER:                 -11.670
REMARK INTRA:                  -1.311
REMARK CONF_INDEPENDENT:        3.281
REMARK UNBOUND:                -1.311
REMARK  11 active torsions:
REMARK  status: ('A' for Active; 'I' for Inactive)
REMARK    1  A    between atoms: C_2  and  C_3 
REMARK    2  A    between atoms: C_3  and  C_4 
REMARK    3  A    between atoms: C_4  and  O_5 
REMARK    4  A    between atoms: O_5  and  C_6 
REMARK    5  A    between atoms: C_6  and  C_8 
REMARK    6  A    between atoms: C_11  and  N_12 
REMARK    7  A    between atoms: N_12  and  C_13 
REMARK    8  A    between atoms: C_13  and  N_15 
REMARK       I    between atoms: N_15  and  C_16 
REMARK    9  A    between atoms: C_16  and  C_18 
REMARK   10  A    between atoms: C_21  and  N_22 
REMARK   11  A    between atoms: C_27  and  N_28 
ROOT
ATOM      1  N   UNL d   1      29.004 -16.200  -2.085  0.00  0.00    -0.299 N 
ATOM      2  C   UNL d   1      28.743 -15.959  -3.463  0.00  0.00     0.257 C 
ATOM      3  O   UNL d   1      27.808 -15.320  -3.944  0.00  0.00    -0.267 OA
ATOM      4  H   UNL d   1      29.828 -16.737  -1.853  0.00  0.00     0.171 HD
ENDROOT
BRANCH   1   5
ATOM      5  C   UNL d   1      28.169 -15.721  -1.044  0.00  0.00     0.179 C 
ATOM      6  S   UNL d   1      28.041 -14.048  -0.832  0.00  0.00    -0.040 SA
BRANCH   5   7
ATOM      7  N   UNL d   1      27.495 -16.718  -0.263  0.00  0.00    -0.333 N 
ATOM      8  H   UNL d   1      28.041 -17.322   0.346  0.00  0.00     0.168 HD
BRANCH   7   9
ATOM      9  C   UNL d   1      26.071 -17.085  -0.345  0.00  0.00     0.034 A 
ATOM     10  C   UNL d   1      25.560 -18.323   0.081  0.00  0.00     0.030 A 
ATOM     11  C   UNL d   1      24.184 -18.667  -0.151  0.00  0.00     0.020 A 
ATOM     12  C   UNL d   1      23.294 -17.775  -0.774  0.00  0.00     0.039 A 
ATOM     13  C   UNL d   1      23.774 -16.542  -1.135  0.00  0.00     0.020 A 
ATOM     14  C   UNL d   1      25.102 -16.227  -0.874  0.00  0.00     0.030 A 
BRANCH  12  15
ATOM     15  C   UNL d   1      21.836 -18.004  -0.892  0.00  0.00     0.293 C 
ATOM     16  O   UNL d   1      21.031 -17.077  -0.957  0.00  0.00    -0.259 OA
BRANCH  15  17
ATOM     17  O   UNL d   1      21.537 -19.332  -0.958  0.00  0.00    -0.318 OA
BRANCH  17  18
ATOM     18  C   UNL d   1      20.157 -19.614  -1.270  0.00  0.00     0.179 C 
BRANCH  18  19
ATOM     19  C   UNL d   1      19.304 -19.582  -0.001  0.00  0.00     0.026 C 
BRANCH  19  20
ATOM     20  C   UNL d   1      19.687 -20.709   0.966  0.00  0.00    -0.002 C 
ATOM     21  C   UNL d   1      19.162 -20.444   2.369  0.00  0.00     0.005 C 
ENDBRANCH  19  20
ENDBRANCH  18  19
ENDBRANCH  17  18
ENDBRANCH  15  17
ENDBRANCH  12  15
ENDBRANCH   7   9
ENDBRANCH   5   7
ENDBRANCH   1   5
BRANCH   2  22
ATOM     22  C   UNL d   1      29.596 -16.488  -4.532  0.00  0.00     0.035 A 
ATOM     23  C   UNL d   1      29.698 -15.754  -5.720  0.00  0.00     0.019 A 
ATOM     24  C   UNL d   1      30.287 -16.321  -6.856  0.00  0.00     0.033 A 
ATOM     25  C   UNL d   1      30.833 -17.625  -6.860  0.00  0.00     0.063 A 
ATOM     26  C   UNL d   1      30.649 -18.368  -5.659  0.00  0.00     0.130 A 
ATOM     27  C   UNL d   1      30.030 -17.798  -4.512  0.00  0.00     0.055 A 
BRANCH  25  28
ATOM     28  N   UNL d   1      31.470 -18.003  -8.022  0.00  0.00    -0.379 N 
ATOM     29  C   UNL d   1      31.154 -19.158  -8.852  0.00  0.00     0.123 C 
ATOM     30  C   UNL d   1      32.524 -19.769  -9.134  0.00  0.00     0.021 C 
ATOM     31  C   UNL d   1      33.400 -18.539  -9.324  0.00  0.00     0.021 C 
ATOM     32  C   UNL d   1      32.799 -17.479  -8.382  0.00  0.00     0.123 C 
ENDBRANCH  25  28
BRANCH  26  33
ATOM     33  N   UNL d   1      31.103 -19.757  -5.451  0.00  0.00    -0.113 N 
ATOM     34  O   UNL d   1      32.301 -20.016  -5.348  0.00  0.00    -0.532 OA
ATOM     35  O   UNL d   1      30.223 -20.628  -5.346  0.00  0.00    -0.532 OA
ENDBRANCH  26  33
ENDBRANCH   2  22
TORSDOF 11
ENDMDL
MODEL 7
REMARK VINA RESULT:    -8.318      3.111      3.677
REMARK INTER + INTRA:         -13.056
REMARK INTER:                 -11.600
REMARK INTRA:                  -1.457
REMARK CONF_INDEPENDENT:        3.281
REMARK UNBOUND:                -1.457
REMARK  11 active torsions:
REMARK  status: ('A' for Active; 'I' for Inactive)
REMARK    1  A    between atoms: C_2  and  C_3 
REMARK    2  A    between atoms: C_3  and  C_4 
REMARK    3  A    between atoms: C_4  and  O_5 
REMARK    4  A    between atoms: O_5  and  C_6 
REMARK    5  A    between atoms: C_6  and  C_8 
REMARK    6  A    between atoms: C_11  and  N_12 
REMARK    7  A    between atoms: N_12  and  C_13 
REMARK    8  A    between atoms: C_13  and  N_15 
REMARK       I    between atoms: N_15  and  C_16 
REMARK    9  A    between atoms: C_16  and  C_18 
REMARK   10  A    between atoms: C_21  and  N_22 
REMARK   11  A    between atoms: C_27  and  N_28 
ROOT
ATOM      1  N   UNL d   1      28.212 -13.451   0.228  0.00  0.00    -0.299 N 
ATOM      2  C   UNL d   1      28.036 -13.172   1.612  0.00  0.00     0.257 C 
ATOM      3  O   UNL d   1      27.750 -13.971   2.503  0.00  0.00    -0.267 OA
ATOM      4  H   UNL d   1      28.460 -12.679  -0.376  0.00  0.00     0.171 HD
ENDROOT
BRANCH   1   5
ATOM      5  C   UNL d   1      28.059 -14.748  -0.326  0.00  0.00     0.179 C 
ATOM      6  S   UNL d   1      28.729 -15.046  -1.850  0.00  0.00    -0.040 SA
BRANCH   5   7
ATOM      7  N   UNL d   1      27.346 -15.699   0.478  0.00  0.00    -0.333 N 
ATOM      8  H   UNL d   1      27.751 -16.005   1.358  0.00  0.00     0.168 HD
BRANCH   7   9
ATOM      9  C   UNL d   1      26.121 -16.424   0.101  0.00  0.00     0.034 A 
ATOM     10  C   UNL d   1      25.832 -17.736   0.517  0.00  0.00     0.030 A 
ATOM     11  C   UNL d   1      24.685 -18.432   0.004  0.00  0.00     0.020 A 
ATOM     12  C   UNL d   1      23.792 -17.824  -0.896  0.00  0.00     0.039 A 
ATOM     13  C   UNL d   1      24.036 -16.523  -1.255  0.00  0.00     0.020 A 
ATOM     14  C   UNL d   1      25.140 -15.866  -0.723  0.00  0.00     0.030 A 
BRANCH  12  15
ATOM     15  C   UNL d   1      22.511 -18.426  -1.329  0.00  0.00     0.293 C 
ATOM     16  O   UNL d   1      22.461 -19.327  -2.163  0.00  0.00    -0.259 OA
BRANCH  15  17
ATOM     17  O   UNL d   1      21.449 -17.886  -0.667  0.00  0.00    -0.318 OA
BRANCH  17  18
ATOM     18  C   UNL d   1      20.200 -18.570  -0.891  0.00  0.00     0.179 C 
BRANCH  18  19
ATOM     19  C   UNL d   1      20.260 -19.991  -0.326  0.00  0.00     0.026 C 
BRANCH  19  20
ATOM     20  C   UNL d   1      19.711 -20.055   1.104  0.00  0.00    -0.002 C 
ATOM     21  C   UNL d   1      18.462 -20.919   1.184  0.00  0.00     0.005 C 
ENDBRANCH  19  20
ENDBRANCH  18  19
ENDBRANCH  17  18
ENDBRANCH  15  17
ENDBRANCH  12  15
ENDBRANCH   7   9
ENDBRANCH   5   7
ENDBRANCH   1   5
BRANCH   2  22
ATOM     22  C   UNL d   1      28.164 -11.821   2.167  0.00  0.00     0.035 A 
ATOM     23  C   UNL d   1      29.216 -11.569   3.056  0.00  0.00     0.019 A 
ATOM     24  C   UNL d   1      29.244 -10.386   3.804  0.00  0.00     0.033 A 
ATOM     25  C   UNL d   1      28.255  -9.383   3.682  0.00  0.00     0.063 A 
ATOM     26  C   UNL d   1      27.165  -9.703   2.823  0.00  0.00     0.130 A 
ATOM     27  C   UNL d   1      27.126 -10.916   2.080  0.00  0.00     0.055 A 
BRANCH  25  28
ATOM     28  N   UNL d   1      28.477  -8.233   4.407  0.00  0.00    -0.379 N 
ATOM     29  C   UNL d   1      29.769  -7.687   4.800  0.00  0.00     0.123 C 
ATOM     30  C   UNL d   1      29.563  -7.330   6.270  0.00  0.00     0.021 C 
ATOM     31  C   UNL d   1      28.140  -6.791   6.281  0.00  0.00     0.021 C 
ATOM     32  C   UNL d   1      27.406  -7.594   5.193  0.00  0.00     0.123 C 
ENDBRANCH  25  28
BRANCH  26  33
ATOM     33  N   UNL d   1      26.005  -8.825   2.574  0.00  0.00    -0.113 N 
ATOM     34  O   UNL d   1      24.885  -9.302   2.397  0.00  0.00    -0.532 OA
ATOM     35  O   UNL d   1      26.210  -7.600   2.595  0.00  0.00    -0.532 OA
ENDBRANCH  26  33
ENDBRANCH   2  22
TORSDOF 11
ENDMDL
MODEL 8
REMARK VINA RESULT:    -8.307      5.624      9.111
REMARK INTER + INTRA:         -12.940
REMARK INTER:                 -11.588
REMARK INTRA:                  -1.352
REMARK CONF_INDEPENDENT:        3.281
REMARK UNBOUND:                -1.352
REMARK  11 active torsions:
REMARK  status: ('A' for Active; 'I' for Inactive)
REMARK    1  A    between atoms: C_2  and  C_3 
REMARK    2  A    between atoms: C_3  and  C_4 
REMARK    3  A    between atoms: C_4  and  O_5 
REMARK    4  A    between atoms: O_5  and  C_6 
REMARK    5  A    between atoms: C_6  and  C_8 
REMARK    6  A    between atoms: C_11  and  N_12 
REMARK    7  A    between atoms: N_12  and  C_13 
REMARK    8  A    between atoms: C_13  and  N_15 
REMARK       I    between atoms: N_15  and  C_16 
REMARK    9  A    between atoms: C_16  and  C_18 
REMARK   10  A    between atoms: C_21  and  N_22 
REMARK   11  A    between atoms: C_27  and  N_28 
ROOT
ATOM      1  N   UNL d   1      27.910 -15.692  -1.655  0.00  0.00    -0.299 N 
ATOM      2  C   UNL d   1      28.826 -16.736  -1.961  0.00  0.00     0.257 C 
ATOM      3  O   UNL d   1      29.168 -17.666  -1.230  0.00  0.00    -0.267 OA
ATOM      4  H   UNL d   1      27.726 -15.006  -2.374  0.00  0.00     0.171 HD
ENDROOT
BRANCH   1   5
ATOM      5  C   UNL d   1      27.254 -15.580  -0.402  0.00  0.00     0.179 C 
ATOM      6  S   UNL d   1      27.244 -14.069   0.358  0.00  0.00    -0.040 SA
BRANCH   5   7
ATOM      7  N   UNL d   1      26.645 -16.777   0.103  0.00  0.00    -0.333 N 
ATOM      8  H   UNL d   1      27.222 -17.456   0.592  0.00  0.00     0.168 HD
BRANCH   7   9
ATOM      9  C   UNL d   1      25.263 -17.227  -0.133  0.00  0.00     0.034 A 
ATOM     10  C   UNL d   1      24.856 -18.570  -0.050  0.00  0.00     0.030 A 
ATOM     11  C   UNL d   1      23.524 -18.958  -0.424  0.00  0.00     0.020 A 
ATOM     12  C   UNL d   1      22.572 -18.014  -0.848  0.00  0.00     0.039 A 
ATOM     13  C   UNL d   1      22.946 -16.695  -0.870  0.00  0.00     0.020 A 
ATOM     14  C   UNL d   1      24.233 -16.347  -0.479  0.00  0.00     0.030 A 
BRANCH  12  15
ATOM     15  C   UNL d   1      21.144 -18.325  -1.087  0.00  0.00     0.293 C 
ATOM     16  O   UNL d   1      20.305 -17.446  -1.270  0.00  0.00    -0.259 OA
BRANCH  15  17
ATOM     17  O   UNL d   1      20.918 -19.669  -1.114  0.00  0.00    -0.318 OA
BRANCH  17  18
ATOM     18  C   UNL d   1      19.690 -20.076  -0.477  0.00  0.00     0.179 C 
BRANCH  18  19
ATOM     19  C   UNL d   1      19.836 -20.028   1.046  0.00  0.00     0.026 C 
BRANCH  19  20
ATOM     20  C   UNL d   1      18.559 -20.500   1.751  0.00  0.00    -0.002 C 
ATOM     21  C   UNL d   1      17.912 -21.664   1.016  0.00  0.00     0.005 C 
ENDBRANCH  19  20
ENDBRANCH  18  19
ENDBRANCH  17  18
ENDBRANCH  15  17
ENDBRANCH  12  15
ENDBRANCH   7   9
ENDBRANCH   5   7
ENDBRANCH   1   5
BRANCH   2  22
ATOM     22  C   UNL d   1      29.523 -16.822  -3.248  0.00  0.00     0.035 A 
ATOM     23  C   UNL d   1      30.757 -17.482  -3.288  0.00  0.00     0.019 A 
ATOM     24  C   UNL d   1      31.580 -17.382  -4.415  0.00  0.00     0.033 A 
ATOM     25  C   UNL d   1      31.205 -16.654  -5.569  0.00  0.00     0.063 A 
ATOM     26  C   UNL d   1      29.978 -15.939  -5.467  0.00  0.00     0.130 A 
ATOM     27  C   UNL d   1      29.154 -16.024  -4.311  0.00  0.00     0.055 A 
BRANCH  25  28
ATOM     28  N   UNL d   1      32.075 -16.735  -6.635  0.00  0.00    -0.379 N 
ATOM     29  C   UNL d   1      31.721 -16.951  -8.032  0.00  0.00     0.123 C 
ATOM     30  C   UNL d   1      32.717 -18.016  -8.481  0.00  0.00     0.021 C 
ATOM     31  C   UNL d   1      33.994 -17.596  -7.766  0.00  0.00     0.021 C 
ATOM     32  C   UNL d   1      33.516 -16.973  -6.443  0.00  0.00     0.123 C 
ENDBRANCH  25  28
BRANCH  26  33
ATOM     33  N   UNL d   1      29.411 -15.087  -6.531  0.00  0.00    -0.113 N 
ATOM     34  O   UNL d   1      28.231 -15.198  -6.860  0.00  0.00    -0.532 OA
ATOM     35  O   UNL d   1      30.166 -14.238  -7.036  0.00  0.00    -0.532 OA
ENDBRANCH  26  33
ENDBRANCH   2  22
TORSDOF 11
ENDMDL
MODEL 9
REMARK VINA RESULT:    -8.169      5.977     10.720
REMARK INTER + INTRA:         -12.475
REMARK INTER:                 -11.450
REMARK INTRA:                  -1.025
REMARK CONF_INDEPENDENT:        3.281
REMARK UNBOUND:                -1.025
REMARK  11 active torsions:
REMARK  status: ('A' for Active; 'I' for Inactive)
REMARK    1  A    between atoms: C_2  and  C_3 
REMARK    2  A    between atoms: C_3  and  C_4 
REMARK    3  A    between atoms: C_4  and  O_5 
REMARK    4  A    between atoms: O_5  and  C_6 
REMARK    5  A    between atoms: C_6  and  C_8 
REMARK    6  A    between atoms: C_11  and  N_12 
REMARK    7  A    between atoms: N_12  and  C_13 
REMARK    8  A    between atoms: C_13  and  N_15 
REMARK       I    between atoms: N_15  and  C_16 
REMARK    9  A    between atoms: C_16  and  C_18 
REMARK   10  A    between atoms: C_21  and  N_22 
REMARK   11  A    between atoms: C_27  and  N_28 
ROOT
ATOM      1  N   UNL d   1      30.508 -17.860  -0.356  0.00  0.00    -0.299 N 
ATOM      2  C   UNL d   1      29.750 -16.881  -1.056  0.00  0.00     0.257 C 
ATOM      3  O   UNL d   1      30.182 -15.953  -1.740  0.00  0.00    -0.267 OA
ATOM      4  H   UNL d   1      29.999 -18.569   0.153  0.00  0.00     0.171 HD
ENDROOT
BRANCH   1   5
ATOM      5  C   UNL d   1      31.926 -17.882  -0.349  0.00  0.00     0.179 C 
ATOM      6  S   UNL d   1      32.746 -16.511  -0.905  0.00  0.00    -0.040 SA
BRANCH   5   7
ATOM      7  N   UNL d   1      32.539 -19.081   0.146  0.00  0.00    -0.333 N 
ATOM      8  H   UNL d   1      33.087 -19.655  -0.489  0.00  0.00     0.168 HD
BRANCH   7   9
ATOM      9  C   UNL d   1      32.345 -19.683   1.476  0.00  0.00     0.034 A 
ATOM     10  C   UNL d   1      31.845 -20.981   1.678  0.00  0.00     0.030 A 
ATOM     11  C   UNL d   1      31.554 -21.457   3.003  0.00  0.00     0.020 A 
ATOM     12  C   UNL d   1      31.791 -20.666   4.141  0.00  0.00     0.039 A 
ATOM     13  C   UNL d   1      32.337 -19.423   3.951  0.00  0.00     0.020 A 
ATOM     14  C   UNL d   1      32.632 -18.999   2.661  0.00  0.00     0.030 A 
BRANCH  12  15
ATOM     15  C   UNL d   1      31.668 -21.156   5.532  0.00  0.00     0.293 C 
ATOM     16  O   UNL d   1      30.637 -21.675   5.955  0.00  0.00    -0.259 OA
BRANCH  15  17
ATOM     17  O   UNL d   1      32.827 -20.990   6.230  0.00  0.00    -0.318 OA
BRANCH  17  18
ATOM     18  C   UNL d   1      33.794 -22.041   6.031  0.00  0.00     0.179 C 
BRANCH  18  19
ATOM     19  C   UNL d   1      35.028 -21.804   6.905  0.00  0.00     0.026 C 
BRANCH  19  20
ATOM     20  C   UNL d   1      35.167 -22.879   7.989  0.00  0.00    -0.002 C 
ATOM     21  C   UNL d   1      34.533 -24.193   7.558  0.00  0.00     0.005 C 
ENDBRANCH  19  20
ENDBRANCH  18  19
ENDBRANCH  17  18
ENDBRANCH  15  17
ENDBRANCH  12  15
ENDBRANCH   7   9
ENDBRANCH   5   7
ENDBRANCH   1   5
BRANCH   2  22
ATOM     22  C   UNL d   1      28.285 -16.850  -1.029  0.00  0.00     0.035 A 
ATOM     23  C   UNL d   1      27.621 -17.746  -0.182  0.00  0.00     0.019 A 
ATOM     24  C   UNL d   1      26.239 -17.937  -0.294  0.00  0.00     0.033 A 
ATOM     25  C   UNL d   1      25.445 -17.225  -1.221  0.00  0.00     0.063 A 
ATOM     26  C   UNL d   1      26.160 -16.375  -2.113  0.00  0.00     0.130 A 
ATOM     27  C   UNL d   1      27.568 -16.200  -2.013  0.00  0.00     0.055 A 
BRANCH  25  28
ATOM     28  N   UNL d   1      24.086 -17.447  -1.140  0.00  0.00    -0.379 N 
ATOM     29  C   UNL d   1      23.174 -16.901  -0.144  0.00  0.00     0.123 C 
ATOM     30  C   UNL d   1      22.342 -18.114   0.265  0.00  0.00     0.021 C 
ATOM     31  C   UNL d   1      22.151 -18.844  -1.056  0.00  0.00     0.021 C 
ATOM     32  C   UNL d   1      23.441 -18.565  -1.849  0.00  0.00     0.123 C 
ENDBRANCH  25  28
BRANCH  26  33
ATOM     33  N   UNL d   1      25.543 -15.568  -3.183  0.00  0.00    -0.113 N 
ATOM     34  O   UNL d   1      25.794 -15.798  -4.365  0.00  0.00    -0.532 OA
ATOM     35  O   UNL d   1      24.739 -14.688  -2.832  0.00  0.00    -0.532 OA
ENDBRANCH  26  33
ENDBRANCH   2  22
TORSDOF 11
ENDMDL
