MODEL 1
REMARK VINA RESULT:    -8.473      0.000      0.000
REMARK INTER + INTRA:         -12.353
REMARK INTER:                 -10.561
REMARK INTRA:                  -1.792
REMARK CONF_INDEPENDENT:        2.088
REMARK UNBOUND:                -1.792
REMARK  7 active torsions:
REMARK  status: ('A' for Active; 'I' for Inactive)
REMARK    1  A    between atoms: O_2  and  C_3 
REMARK    2  A    between atoms: C_9  and  C_10 
REMARK       I    between atoms: C_10  and  N_12 
REMARK    3  A    between atoms: N_12  and  C_13 
REMARK    4  A    between atoms: C_13  and  C_14 
REMARK    5  A    between atoms: C_20  and  N_21 
REMARK    6  A    between atoms: N_21  and  N_22 
REMARK       I    between atoms: N_22  and  C_23 
REMARK    7  A    between atoms: C_23  and  C_25 
ROOT
ATOM      1  C   UNL d   1      28.256 -13.900  -6.627  0.00  0.00     0.102 C 
ATOM      2  C   UNL d   1      29.306 -13.673  -7.512  0.00  0.00     0.040 C 
ATOM      3  C   UNL d   1      29.524 -12.389  -8.021  0.00  0.00     0.004 C 
ATOM      4  C   UNL d   1      28.620 -11.361  -7.754  0.00  0.00     0.014 C 
ATOM      5  C   UNL d   1      27.656 -11.535  -6.764  0.00  0.00     0.002 A 
ATOM      6  C   UNL d   1      26.855 -10.420  -6.259  0.00  0.00     0.035 A 
ATOM      7  C   UNL d   1      26.027 -10.564  -5.204  0.00  0.00     0.085 A 
ATOM      8  C   UNL d   1      25.943 -11.917  -4.627  0.00  0.00     0.178 A 
ATOM      9  O   UNL d   1      26.611 -12.997  -5.133  0.00  0.00    -0.288 OA
ATOM     10  C   UNL d   1      27.503 -12.801  -6.201  0.00  0.00     0.121 A 
ENDROOT
BRANCH   8  11
ATOM     11  N   UNL d   1      25.232 -12.210  -3.618  0.00  0.00    -0.276 N 
ATOM     12  H   UNL d   1      24.442 -11.621  -3.429  0.00  0.00     0.189 HD
BRANCH  11  13
ATOM     13  N   UNL d   1      25.337 -13.231  -2.703  0.00  0.00    -0.264 N 
ATOM     14  C   UNL d   1      25.070 -14.491  -3.218  0.00  0.00     0.270 C 
ATOM     15  O   UNL d   1      24.782 -14.645  -4.407  0.00  0.00    -0.266 OA
ATOM     16  H   UNL d   1      25.653 -13.030  -1.760  0.00  0.00     0.190 HD
BRANCH  14  17
ATOM     17  C   UNL d   1      25.188 -15.611  -2.280  0.00  0.00     0.036 C 
ATOM     18  C   UNL d   1      24.030 -16.069  -1.644  0.00  0.00     0.017 C 
ATOM     19  C   UNL d   1      24.126 -17.044  -0.658  0.00  0.00     0.004 C 
ATOM     20  C   UNL d   1      25.381 -17.475  -0.236  0.00  0.00     0.042 C 
ATOM     21  C   UNL d   1      26.522 -17.040  -0.906  0.00  0.00     0.117 C 
ATOM     22  F   UNL d   1      27.725 -17.450  -0.484  0.00  0.00    -0.206 F 
ATOM     23  C   UNL d   1      26.434 -16.165  -1.981  0.00  0.00     0.059 C 
ENDBRANCH  14  17
ENDBRANCH  11  13
ENDBRANCH   8  11
BRANCH   7  24
ATOM     24  C   UNL d   1      25.280  -9.322  -4.727  0.00  0.00     0.256 C 
ATOM     25  O   UNL d   1      24.779  -9.313  -3.606  0.00  0.00    -0.268 OA
ATOM     26  N   UNL d   1      25.168  -8.216  -5.546  0.00  0.00    -0.352 N 
ATOM     27  H   UNL d   1      25.442  -8.019  -6.475  0.00  0.00     0.163 HD
BRANCH  26  28
ATOM     28  C   UNL d   1      24.497  -6.986  -5.146  0.00  0.00     0.161 C 
BRANCH  28  29
ATOM     29  C   UNL d   1      23.268  -6.815  -6.034  0.00  0.00    -0.041 A 
ATOM     30  C   UNL d   1      23.380  -6.922  -7.427  0.00  0.00     0.009 A 
ATOM     31  C   UNL d   1      22.319  -6.554  -8.261  0.00  0.00     0.001 A 
ATOM     32  C   UNL d   1      21.097  -6.170  -7.715  0.00  0.00     0.000 A 
ATOM     33  C   UNL d   1      20.934  -6.159  -6.332  0.00  0.00     0.001 A 
ATOM     34  C   UNL d   1      22.026  -6.423  -5.497  0.00  0.00     0.009 A 
ENDBRANCH  28  29
ENDBRANCH  26  28
ENDBRANCH   7  24
BRANCH   1  35
ATOM     35  O   UNL d   1      27.863 -15.127  -6.171  0.00  0.00    -0.353 OA
ATOM     36  C   UNL d   1      28.398 -15.528  -4.914  0.00  0.00     0.210 C 
ENDBRANCH   1  35
TORSDOF 7
ENDMDL
MODEL 2
REMARK VINA RESULT:    -8.431      2.875      6.731
REMARK INTER + INTRA:         -12.451
REMARK INTER:                 -10.519
REMARK INTRA:                  -1.931
REMARK CONF_INDEPENDENT:        2.088
REMARK UNBOUND:                -1.931
REMARK  7 active torsions:
REMARK  status: ('A' for Active; 'I' for Inactive)
REMARK    1  A    between atoms: O_2  and  C_3 
REMARK    2  A    between atoms: C_9  and  C_10 
REMARK       I    between atoms: C_10  and  N_12 
REMARK    3  A    between atoms: N_12  and  C_13 
REMARK    4  A    between atoms: C_13  and  C_14 
REMARK    5  A    between atoms: C_20  and  N_21 
REMARK    6  A    between atoms: N_21  and  N_22 
REMARK       I    between atoms: N_22  and  C_23 
REMARK    7  A    between atoms: C_23  and  C_25 
ROOT
ATOM      1  C   UNL d   1      25.386 -17.841   0.038  0.00  0.00     0.102 C 
ATOM      2  C   UNL d   1      24.152 -18.368   0.407  0.00  0.00     0.040 C 
ATOM      3  C   UNL d   1      22.976 -17.827  -0.121  0.00  0.00     0.004 C 
ATOM      4  C   UNL d   1      23.021 -16.679  -0.912  0.00  0.00     0.014 C 
ATOM      5  C   UNL d   1      24.245 -16.230  -1.402  0.00  0.00     0.002 A 
ATOM      6  C   UNL d   1      24.334 -15.200  -2.436  0.00  0.00     0.035 A 
ATOM      7  C   UNL d   1      25.510 -14.872  -3.010  0.00  0.00     0.085 A 
ATOM      8  C   UNL d   1      26.698 -15.577  -2.499  0.00  0.00     0.178 A 
ATOM      9  O   UNL d   1      26.658 -16.480  -1.473  0.00  0.00    -0.288 OA
ATOM     10  C   UNL d   1      25.410 -16.835  -0.933  0.00  0.00     0.121 A 
ENDROOT
BRANCH   8  11
ATOM     11  N   UNL d   1      27.870 -15.402  -2.951  0.00  0.00    -0.276 N 
ATOM     12  H   UNL d   1      28.256 -14.479  -2.875  0.00  0.00     0.189 HD
BRANCH  11  13
ATOM     13  N   UNL d   1      28.753 -16.278  -3.539  0.00  0.00    -0.264 N 
ATOM     14  C   UNL d   1      28.911 -16.100  -4.905  0.00  0.00     0.270 C 
ATOM     15  O   UNL d   1      28.307 -15.209  -5.505  0.00  0.00    -0.266 OA
ATOM     16  H   UNL d   1      29.268 -16.934  -2.962  0.00  0.00     0.190 HD
BRANCH  14  17
ATOM     17  C   UNL d   1      29.858 -17.001  -5.569  0.00  0.00     0.036 C 
ATOM     18  C   UNL d   1      30.485 -16.560  -6.738  0.00  0.00     0.017 C 
ATOM     19  C   UNL d   1      31.290 -17.435  -7.458  0.00  0.00     0.004 C 
ATOM     20  C   UNL d   1      31.376 -18.770  -7.070  0.00  0.00     0.042 C 
ATOM     21  C   UNL d   1      30.780 -19.184  -5.882  0.00  0.00     0.117 C 
ATOM     22  F   UNL d   1      30.857 -20.471  -5.524  0.00  0.00    -0.206 F 
ATOM     23  C   UNL d   1      30.080 -18.290  -5.080  0.00  0.00     0.059 C 
ENDBRANCH  14  17
ENDBRANCH  11  13
ENDBRANCH   8  11
BRANCH   7  24
ATOM     24  C   UNL d   1      25.479 -13.821  -4.115  0.00  0.00     0.256 C 
ATOM     25  O   UNL d   1      24.398 -13.461  -4.576  0.00  0.00    -0.268 OA
ATOM     26  N   UNL d   1      26.654 -13.276  -4.595  0.00  0.00    -0.352 N 
ATOM     27  H   UNL d   1      27.611 -13.442  -4.414  0.00  0.00     0.163 HD
BRANCH  26  28
ATOM     28  C   UNL d   1      26.698 -12.247  -5.626  0.00  0.00     0.161 C 
BRANCH  28  29
ATOM     29  C   UNL d   1      26.048 -10.989  -5.056  0.00  0.00    -0.041 A 
ATOM     30  C   UNL d   1      25.534 -10.007  -5.913  0.00  0.00     0.009 A 
ATOM     31  C   UNL d   1      25.139  -8.760  -5.418  0.00  0.00     0.001 A 
ATOM     32  C   UNL d   1      25.156  -8.511  -4.048  0.00  0.00     0.000 A 
ATOM     33  C   UNL d   1      25.564  -9.513  -3.171  0.00  0.00     0.001 A 
ATOM     34  C   UNL d   1      26.061 -10.722  -3.673  0.00  0.00     0.009 A 
ENDBRANCH  28  29
ENDBRANCH  26  28
ENDBRANCH   7  24
BRANCH   1  35
ATOM     35  O   UNL d   1      26.588 -18.194   0.586  0.00  0.00    -0.353 OA
ATOM     36  C   UNL d   1      27.434 -17.119   0.980  0.00  0.00     0.210 C 
ENDBRANCH   1  35
TORSDOF 7
ENDMDL
MODEL 3
REMARK VINA RESULT:    -8.394      4.209      8.423
REMARK INTER + INTRA:         -12.389
REMARK INTER:                 -10.482
REMARK INTRA:                  -1.907
REMARK CONF_INDEPENDENT:        2.088
REMARK UNBOUND:                -1.907
REMARK  7 active torsions:
REMARK  status: ('A' for Active; 'I' for Inactive)
REMARK    1  A    between atoms: O_2  and  C_3 
REMARK    2  A    between atoms: C_9  and  C_10 
REMARK       I    between atoms: C_10  and  N_12 
REMARK    3  A    between atoms: N_12  and  C_13 
REMARK    4  A    between atoms: C_13  and  C_14 
REMARK    5  A    between atoms: C_20  and  N_21 
REMARK    6  A    between atoms: N_21  and  N_22 
REMARK       I    between atoms: N_22  and  C_23 
REMARK    7  A    between atoms: C_23  and  C_25 
ROOT
ATOM      1  C   UNL d   1      31.254 -19.391  -7.936  0.00  0.00     0.102 C 
ATOM      2  C   UNL d   1      31.489 -20.733  -7.653  0.00  0.00     0.040 C 
ATOM      3  C   UNL d   1      31.430 -21.188  -6.333  0.00  0.00     0.004 C 
ATOM      4  C   UNL d   1      31.268 -20.286  -5.282  0.00  0.00     0.014 C 
ATOM      5  C   UNL d   1      30.892 -18.973  -5.555  0.00  0.00     0.002 A 
ATOM      6  C   UNL d   1      30.457 -18.056  -4.502  0.00  0.00     0.035 A 
ATOM      7  C   UNL d   1      29.957 -16.836  -4.787  0.00  0.00     0.085 A 
ATOM      8  C   UNL d   1      29.924 -16.468  -6.213  0.00  0.00     0.178 A 
ATOM      9  O   UNL d   1      30.405 -17.267  -7.212  0.00  0.00    -0.288 OA
ATOM     10  C   UNL d   1      30.872 -18.552  -6.884  0.00  0.00     0.121 A 
ENDROOT
BRANCH   8  11
ATOM     11  N   UNL d   1      29.460 -15.369  -6.646  0.00  0.00    -0.276 N 
ATOM     12  H   UNL d   1      29.465 -15.232  -7.640  0.00  0.00     0.189 HD
BRANCH  11  13
ATOM     13  N   UNL d   1      28.917 -14.292  -5.985  0.00  0.00    -0.264 N 
ATOM     14  C   UNL d   1      27.605 -14.473  -5.576  0.00  0.00     0.270 C 
ATOM     15  O   UNL d   1      27.012 -15.532  -5.790  0.00  0.00    -0.266 OA
ATOM     16  H   UNL d   1      29.496 -13.484  -5.782  0.00  0.00     0.190 HD
BRANCH  14  17
ATOM     17  C   UNL d   1      26.994 -13.355  -4.851  0.00  0.00     0.036 C 
ATOM     18  C   UNL d   1      26.113 -13.646  -3.804  0.00  0.00     0.017 C 
ATOM     19  C   UNL d   1      25.423 -12.614  -3.180  0.00  0.00     0.004 C 
ATOM     20  C   UNL d   1      25.529 -11.316  -3.674  0.00  0.00     0.042 C 
ATOM     21  C   UNL d   1      26.440 -11.036  -4.690  0.00  0.00     0.117 C 
ATOM     22  F   UNL d   1      26.526  -9.789  -5.167  0.00  0.00    -0.206 F 
ATOM     23  C   UNL d   1      27.236 -12.036  -5.237  0.00  0.00     0.059 C 
ENDBRANCH  14  17
ENDBRANCH  11  13
ENDBRANCH   8  11
BRANCH   7  24
ATOM     24  C   UNL d   1      29.485 -15.983  -3.614  0.00  0.00     0.256 C 
ATOM     25  O   UNL d   1      29.902 -14.833  -3.498  0.00  0.00    -0.268 OA
ATOM     26  N   UNL d   1      28.595 -16.495  -2.690  0.00  0.00    -0.352 N 
ATOM     27  H   UNL d   1      28.175 -17.380  -2.560  0.00  0.00     0.163 HD
BRANCH  26  28
ATOM     28  C   UNL d   1      28.077 -15.729  -1.565  0.00  0.00     0.161 C 
BRANCH  28  29
ATOM     29  C   UNL d   1      26.803 -16.415  -1.081  0.00  0.00    -0.041 A 
ATOM     30  C   UNL d   1      26.866 -17.420  -0.106  0.00  0.00     0.009 A 
ATOM     31  C   UNL d   1      25.746 -18.205   0.186  0.00  0.00     0.001 A 
ATOM     32  C   UNL d   1      24.520 -17.933  -0.416  0.00  0.00     0.000 A 
ATOM     33  C   UNL d   1      24.414 -16.870  -1.309  0.00  0.00     0.001 A 
ATOM     34  C   UNL d   1      25.557 -16.153  -1.683  0.00  0.00     0.009 A 
ENDBRANCH  28  29
ENDBRANCH  26  28
ENDBRANCH   7  24
BRANCH   1  35
ATOM     35  O   UNL d   1      31.416 -18.805  -9.160  0.00  0.00    -0.353 OA
ATOM     36  C   UNL d   1      32.603 -19.150  -9.867  0.00  0.00     0.210 C 
ENDBRANCH   1  35
TORSDOF 7
ENDMDL
MODEL 4
REMARK VINA RESULT:    -8.045      2.935      7.627
REMARK INTER + INTRA:         -12.532
REMARK INTER:                 -10.133
REMARK INTRA:                  -2.399
REMARK CONF_INDEPENDENT:        2.088
REMARK UNBOUND:                -2.399
REMARK  7 active torsions:
REMARK  status: ('A' for Active; 'I' for Inactive)
REMARK    1  A    between atoms: O_2  and  C_3 
REMARK    2  A    between atoms: C_9  and  C_10 
REMARK       I    between atoms: C_10  and  N_12 
REMARK    3  A    between atoms: N_12  and  C_13 
REMARK    4  A    between atoms: C_13  and  C_14 
REMARK    5  A    between atoms: C_20  and  N_21 
REMARK    6  A    between atoms: N_21  and  N_22 
REMARK       I    between atoms: N_22  and  C_23 
REMARK    7  A    between atoms: C_23  and  C_25 
ROOT
ATOM      1  C   UNL d   1      27.037 -10.432  -8.349  0.00  0.00     0.102 C 
ATOM      2  C   UNL d   1      27.553 -10.254  -9.629  0.00  0.00     0.040 C 
ATOM      3  C   UNL d   1      28.517 -11.137 -10.122  0.00  0.00     0.004 C 
ATOM      4  C   UNL d   1      29.064 -12.117  -9.295  0.00  0.00     0.014 C 
ATOM      5  C   UNL d   1      28.463 -12.397  -8.070  0.00  0.00     0.002 A 
ATOM      6  C   UNL d   1      28.824 -13.574  -7.280  0.00  0.00     0.035 A 
ATOM      7  C   UNL d   1      28.141 -13.919  -6.170  0.00  0.00     0.085 A 
ATOM      8  C   UNL d   1      27.047 -13.014  -5.777  0.00  0.00     0.178 A 
ATOM      9  O   UNL d   1      26.742 -11.860  -6.444  0.00  0.00    -0.288 OA
ATOM     10  C   UNL d   1      27.442 -11.558  -7.625  0.00  0.00     0.121 A 
ENDROOT
BRANCH   8  11
ATOM     11  N   UNL d   1      26.294 -13.213  -4.775  0.00  0.00    -0.276 N 
ATOM     12  H   UNL d   1      25.478 -12.634  -4.696  0.00  0.00     0.189 HD
BRANCH  11  13
ATOM     13  N   UNL d   1      26.382 -14.116  -3.742  0.00  0.00    -0.264 N 
ATOM     14  C   UNL d   1      25.159 -14.508  -3.219  0.00  0.00     0.270 C 
ATOM     15  O   UNL d   1      24.101 -14.075  -3.679  0.00  0.00    -0.266 OA
ATOM     16  H   UNL d   1      27.288 -14.482  -3.470  0.00  0.00     0.190 HD
BRANCH  14  17
ATOM     17  C   UNL d   1      25.207 -15.484  -2.126  0.00  0.00     0.036 C 
ATOM     18  C   UNL d   1      26.459 -15.882  -1.646  0.00  0.00     0.017 C 
ATOM     19  C   UNL d   1      26.542 -16.896  -0.699  0.00  0.00     0.004 C 
ATOM     20  C   UNL d   1      25.389 -17.580  -0.320  0.00  0.00     0.042 C 
ATOM     21  C   UNL d   1      24.147 -17.147  -0.775  0.00  0.00     0.117 C 
ATOM     22  F   UNL d   1      23.047 -17.819  -0.416  0.00  0.00    -0.206 F 
ATOM     23  C   UNL d   1      24.034 -16.050  -1.621  0.00  0.00     0.059 C 
ENDBRANCH  14  17
ENDBRANCH  11  13
ENDBRANCH   8  11
BRANCH   7  24
ATOM     24  C   UNL d   1      28.570 -15.195  -5.454  0.00  0.00     0.256 C 
ATOM     25  O   UNL d   1      27.712 -15.950  -5.001  0.00  0.00    -0.268 OA
ATOM     26  N   UNL d   1      29.909 -15.503  -5.314  0.00  0.00    -0.352 N 
ATOM     27  H   UNL d   1      30.748 -15.037  -5.549  0.00  0.00     0.163 HD
BRANCH  26  28
ATOM     28  C   UNL d   1      30.390 -16.718  -4.670  0.00  0.00     0.161 C 
BRANCH  28  29
ATOM     29  C   UNL d   1      30.531 -17.791  -5.746  0.00  0.00    -0.041 A 
ATOM     30  C   UNL d   1      30.404 -19.147  -5.415  0.00  0.00     0.009 A 
ATOM     31  C   UNL d   1      30.746 -20.143  -6.336  0.00  0.00     0.001 A 
ATOM     32  C   UNL d   1      31.122 -19.802  -7.633  0.00  0.00     0.000 A 
ATOM     33  C   UNL d   1      31.151 -18.462  -8.012  0.00  0.00     0.001 A 
ATOM     34  C   UNL d   1      30.914 -17.462  -7.061  0.00  0.00     0.009 A 
ENDBRANCH  28  29
ENDBRANCH  26  28
ENDBRANCH   7  24
BRANCH   1  35
ATOM     35  O   UNL d   1      26.197  -9.562  -7.710  0.00  0.00    -0.353 OA
ATOM     36  C   UNL d   1      26.745  -8.870  -6.593  0.00  0.00     0.210 C 
ENDBRANCH   1  35
TORSDOF 7
ENDMDL
MODEL 5
REMARK VINA RESULT:    -7.934      5.217     10.055
REMARK INTER + INTRA:         -12.642
REMARK INTER:                 -10.022
REMARK INTRA:                  -2.620
REMARK CONF_INDEPENDENT:        2.088
REMARK UNBOUND:                -2.620
REMARK  7 active torsions:
REMARK  status: ('A' for Active; 'I' for Inactive)
REMARK    1  A    between atoms: O_2  and  C_3 
REMARK    2  A    between atoms: C_9  and  C_10 
REMARK       I    between atoms: C_10  and  N_12 
REMARK    3  A    between atoms: N_12  and  C_13 
REMARK    4  A    between atoms: C_13  and  C_14 
REMARK    5  A    between atoms: C_20  and  N_21 
REMARK    6  A    between atoms: N_21  and  N_22 
REMARK       I    between atoms: N_22  and  C_23 
REMARK    7  A    between atoms: C_23  and  C_25 
ROOT
ATOM      1  C   UNL d   1      28.390 -11.790   5.652  0.00  0.00     0.102 C 
ATOM      2  C   UNL d   1      28.899 -12.412   6.788  0.00  0.00     0.040 C 
ATOM      3  C   UNL d   1      29.021 -13.804   6.825  0.00  0.00     0.004 C 
ATOM      4  C   UNL d   1      28.515 -14.585   5.786  0.00  0.00     0.014 C 
ATOM      5  C   UNL d   1      28.137 -13.977   4.591  0.00  0.00     0.002 A 
ATOM      6  C   UNL d   1      27.848 -14.752   3.386  0.00  0.00     0.035 A 
ATOM      7  C   UNL d   1      27.625 -14.156   2.197  0.00  0.00     0.085 A 
ATOM      8  C   UNL d   1      27.641 -12.683   2.199  0.00  0.00     0.178 A 
ATOM      9  O   UNL d   1      27.820 -11.930   3.326  0.00  0.00    -0.288 OA
ATOM     10  C   UNL d   1      28.100 -12.584   4.538  0.00  0.00     0.121 A 
ENDROOT
BRANCH   8  11
ATOM     11  N   UNL d   1      27.476 -11.974   1.159  0.00  0.00    -0.276 N 
ATOM     12  H   UNL d   1      27.787 -11.021   1.202  0.00  0.00     0.189 HD
BRANCH  11  13
ATOM     13  N   UNL d   1      26.939 -12.282  -0.070  0.00  0.00    -0.264 N 
ATOM     14  C   UNL d   1      27.406 -11.495  -1.111  0.00  0.00     0.270 C 
ATOM     15  O   UNL d   1      28.246 -10.614  -0.916  0.00  0.00    -0.266 OA
ATOM     16  H   UNL d   1      26.309 -13.072  -0.159  0.00  0.00     0.190 HD
BRANCH  14  17
ATOM     17  C   UNL d   1      26.873 -11.801  -2.442  0.00  0.00     0.036 C 
ATOM     18  C   UNL d   1      26.530 -10.736  -3.280  0.00  0.00     0.017 C 
ATOM     19  C   UNL d   1      25.907 -10.991  -4.496  0.00  0.00     0.004 C 
ATOM     20  C   UNL d   1      25.532 -12.293  -4.818  0.00  0.00     0.042 C 
ATOM     21  C   UNL d   1      25.916 -13.347  -3.993  0.00  0.00     0.117 C 
ATOM     22  F   UNL d   1      25.539 -14.593  -4.304  0.00  0.00    -0.206 F 
ATOM     23  C   UNL d   1      26.655 -13.122  -2.838  0.00  0.00     0.059 C 
ENDBRANCH  14  17
ENDBRANCH  11  13
ENDBRANCH   8  11
BRANCH   7  24
ATOM     24  C   UNL d   1      27.385 -15.062   0.994  0.00  0.00     0.256 C 
ATOM     25  O   UNL d   1      26.499 -14.779   0.191  0.00  0.00    -0.268 OA
ATOM     26  N   UNL d   1      28.157 -16.192   0.804  0.00  0.00    -0.352 N 
ATOM     27  H   UNL d   1      28.872 -16.629   1.327  0.00  0.00     0.163 HD
BRANCH  26  28
ATOM     28  C   UNL d   1      28.006 -17.085  -0.337  0.00  0.00     0.161 C 
BRANCH  28  29
ATOM     29  C   UNL d   1      26.517 -17.380  -0.503  0.00  0.00    -0.041 A 
ATOM     30  C   UNL d   1      25.811 -16.864  -1.597  0.00  0.00     0.009 A 
ATOM     31  C   UNL d   1      24.414 -16.939  -1.647  0.00  0.00     0.001 A 
ATOM     32  C   UNL d   1      23.711 -17.619  -0.656  0.00  0.00     0.000 A 
ATOM     33  C   UNL d   1      24.406 -18.230   0.385  0.00  0.00     0.001 A 
ATOM     34  C   UNL d   1      25.792 -18.064   0.493  0.00  0.00     0.009 A 
ENDBRANCH  28  29
ENDBRANCH  26  28
ENDBRANCH   7  24
BRANCH   1  35
ATOM     35  O   UNL d   1      28.099 -10.458   5.548  0.00  0.00    -0.353 OA
ATOM     36  C   UNL d   1      29.131  -9.632   5.019  0.00  0.00     0.210 C 
ENDBRANCH   1  35
TORSDOF 7
ENDMDL
MODEL 6
REMARK VINA RESULT:    -7.905      2.584      3.899
REMARK INTER + INTRA:         -12.633
REMARK INTER:                  -9.993
REMARK INTRA:                  -2.641
REMARK CONF_INDEPENDENT:        2.088
REMARK UNBOUND:                -2.641
REMARK  7 active torsions:
REMARK  status: ('A' for Active; 'I' for Inactive)
REMARK    1  A    between atoms: O_2  and  C_3 
REMARK    2  A    between atoms: C_9  and  C_10 
REMARK       I    between atoms: C_10  and  N_12 
REMARK    3  A    between atoms: N_12  and  C_13 
REMARK    4  A    between atoms: C_13  and  C_14 
REMARK    5  A    between atoms: C_20  and  N_21 
REMARK    6  A    between atoms: N_21  and  N_22 
REMARK       I    between atoms: N_22  and  C_23 
REMARK    7  A    between atoms: C_23  and  C_25 
ROOT
ATOM      1  C   UNL d   1      30.486 -16.814  -6.011  0.00  0.00     0.102 C 
ATOM      2  C   UNL d   1      31.755 -16.717  -6.574  0.00  0.00     0.040 C 
ATOM      3  C   UNL d   1      32.108 -15.580  -7.307  0.00  0.00     0.004 C 
ATOM      4  C   UNL d   1      31.157 -14.601  -7.592  0.00  0.00     0.014 C 
ATOM      5  C   UNL d   1      29.936 -14.614  -6.921  0.00  0.00     0.002 A 
ATOM      6  C   UNL d   1      29.009 -13.485  -6.979  0.00  0.00     0.035 A 
ATOM      7  C   UNL d   1      27.898 -13.441  -6.215  0.00  0.00     0.085 A 
ATOM      8  C   UNL d   1      27.652 -14.617  -5.363  0.00  0.00     0.178 A 
ATOM      9  O   UNL d   1      28.453 -15.725  -5.353  0.00  0.00    -0.288 OA
ATOM     10  C   UNL d   1      29.629 -15.715  -6.124  0.00  0.00     0.121 A 
ENDROOT
BRANCH   8  11
ATOM     11  N   UNL d   1      26.668 -14.718  -4.569  0.00  0.00    -0.276 N 
ATOM     12  H   UNL d   1      25.897 -14.093  -4.715  0.00  0.00     0.189 HD
BRANCH  11  13
ATOM     13  N   UNL d   1      26.444 -15.566  -3.509  0.00  0.00    -0.264 N 
ATOM     14  C   UNL d   1      25.254 -15.337  -2.835  0.00  0.00     0.270 C 
ATOM     15  O   UNL d   1      24.478 -14.450  -3.195  0.00  0.00    -0.266 OA
ATOM     16  H   UNL d   1      27.096 -16.320  -3.323  0.00  0.00     0.190 HD
BRANCH  14  17
ATOM     17  C   UNL d   1      24.968 -16.231  -1.708  0.00  0.00     0.036 C 
ATOM     18  C   UNL d   1      26.032 -16.925  -1.125  0.00  0.00     0.017 C 
ATOM     19  C   UNL d   1      25.778 -17.872  -0.140  0.00  0.00     0.004 C 
ATOM     20  C   UNL d   1      24.462 -18.199   0.178  0.00  0.00     0.042 C 
ATOM     21  C   UNL d   1      23.415 -17.471  -0.381  0.00  0.00     0.117 C 
ATOM     22  F   UNL d   1      22.154 -17.802  -0.080  0.00  0.00    -0.206 F 
ATOM     23  C   UNL d   1      23.657 -16.431  -1.270  0.00  0.00     0.059 C 
ENDBRANCH  14  17
ENDBRANCH  11  13
ENDBRANCH   8  11
BRANCH   7  24
ATOM     24  C   UNL d   1      27.029 -12.191  -6.316  0.00  0.00     0.256 C 
ATOM     25  O   UNL d   1      25.977 -12.135  -5.684  0.00  0.00    -0.268 OA
ATOM     26  N   UNL d   1      27.420 -11.129  -7.108  0.00  0.00    -0.352 N 
ATOM     27  H   UNL d   1      28.179 -10.974  -7.722  0.00  0.00     0.163 HD
BRANCH  26  28
ATOM     28  C   UNL d   1      26.658  -9.893  -7.226  0.00  0.00     0.161 C 
BRANCH  28  29
ATOM     29  C   UNL d   1      26.363  -9.391  -5.816  0.00  0.00    -0.041 A 
ATOM     30  C   UNL d   1      27.353  -9.439  -4.825  0.00  0.00     0.009 A 
ATOM     31  C   UNL d   1      27.037  -9.193  -3.485  0.00  0.00     0.001 A 
ATOM     32  C   UNL d   1      25.752  -8.795  -3.127  0.00  0.00     0.000 A 
ATOM     33  C   UNL d   1      24.780  -8.639  -4.113  0.00  0.00     0.001 A 
ATOM     34  C   UNL d   1      25.066  -8.989  -5.438  0.00  0.00     0.009 A 
ENDBRANCH  28  29
ENDBRANCH  26  28
ENDBRANCH   7  24
BRANCH   1  35
ATOM     35  O   UNL d   1      29.983 -17.924  -5.393  0.00  0.00    -0.353 OA
ATOM     36  C   UNL d   1      30.455 -19.178  -5.877  0.00  0.00     0.210 C 
ENDBRANCH   1  35
TORSDOF 7
ENDMDL
MODEL 7
REMARK VINA RESULT:    -7.602      1.944      7.058
REMARK INTER + INTRA:         -12.492
REMARK INTER:                  -9.690
REMARK INTRA:                  -2.802
REMARK CONF_INDEPENDENT:        2.088
REMARK UNBOUND:                -2.802
REMARK  7 active torsions:
REMARK  status: ('A' for Active; 'I' for Inactive)
REMARK    1  A    between atoms: O_2  and  C_3 
REMARK    2  A    between atoms: C_9  and  C_10 
REMARK       I    between atoms: C_10  and  N_12 
REMARK    3  A    between atoms: N_12  and  C_13 
REMARK    4  A    between atoms: C_13  and  C_14 
REMARK    5  A    between atoms: C_20  and  N_21 
REMARK    6  A    between atoms: N_21  and  N_22 
REMARK       I    between atoms: N_22  and  C_23 
REMARK    7  A    between atoms: C_23  and  C_25 
ROOT
ATOM      1  C   UNL d   1      25.631  -9.036  -5.954  0.00  0.00     0.102 C 
ATOM      2  C   UNL d   1      26.045  -8.170  -6.962  0.00  0.00     0.040 C 
ATOM      3  C   UNL d   1      27.055  -8.560  -7.846  0.00  0.00     0.004 C 
ATOM      4  C   UNL d   1      27.744  -9.756  -7.646  0.00  0.00     0.014 C 
ATOM      5  C   UNL d   1      27.251 -10.689  -6.738  0.00  0.00     0.002 A 
ATOM      6  C   UNL d   1      27.771 -12.054  -6.670  0.00  0.00     0.035 A 
ATOM      7  C   UNL d   1      27.195 -12.994  -5.893  0.00  0.00     0.085 A 
ATOM      8  C   UNL d   1      26.048 -12.550  -5.083  0.00  0.00     0.178 A 
ATOM      9  O   UNL d   1      25.594 -11.260  -5.058  0.00  0.00    -0.288 OA
ATOM     10  C   UNL d   1      26.186 -10.319  -5.918  0.00  0.00     0.121 A 
ENDROOT
BRANCH   8  11
ATOM     11  N   UNL d   1      25.382 -13.317  -4.323  0.00  0.00    -0.276 N 
ATOM     12  H   UNL d   1      24.398 -13.138  -4.241  0.00  0.00     0.189 HD
BRANCH  11  13
ATOM     13  N   UNL d   1      25.768 -14.400  -3.568  0.00  0.00    -0.264 N 
ATOM     14  C   UNL d   1      24.766 -14.925  -2.766  0.00  0.00     0.270 C 
ATOM     15  O   UNL d   1      23.631 -14.445  -2.770  0.00  0.00    -0.266 OA
ATOM     16  H   UNL d   1      26.702 -14.782  -3.678  0.00  0.00     0.190 HD
BRANCH  14  17
ATOM     17  C   UNL d   1      25.130 -16.092  -1.957  0.00  0.00     0.036 C 
ATOM     18  C   UNL d   1      24.109 -16.944  -1.524  0.00  0.00     0.017 C 
ATOM     19  C   UNL d   1      24.406 -17.986  -0.654  0.00  0.00     0.004 C 
ATOM     20  C   UNL d   1      25.693 -18.106  -0.136  0.00  0.00     0.042 C 
ATOM     21  C   UNL d   1      26.707 -17.276  -0.607  0.00  0.00     0.117 C 
ATOM     22  F   UNL d   1      27.938 -17.389  -0.093  0.00  0.00    -0.206 F 
ATOM     23  C   UNL d   1      26.455 -16.312  -1.576  0.00  0.00     0.059 C 
ENDBRANCH  14  17
ENDBRANCH  11  13
ENDBRANCH   8  11
BRANCH   7  24
ATOM     24  C   UNL d   1      27.788 -14.399  -5.940  0.00  0.00     0.256 C 
ATOM     25  O   UNL d   1      27.058 -15.368  -5.744  0.00  0.00    -0.268 OA
ATOM     26  N   UNL d   1      29.132 -14.583  -6.201  0.00  0.00    -0.352 N 
ATOM     27  H   UNL d   1      29.894 -13.970  -6.339  0.00  0.00     0.163 HD
BRANCH  26  28
ATOM     28  C   UNL d   1      29.758 -15.895  -6.292  0.00  0.00     0.161 C 
BRANCH  28  29
ATOM     29  C   UNL d   1      29.891 -16.447  -4.875  0.00  0.00    -0.041 A 
ATOM     30  C   UNL d   1      29.464 -15.689  -3.777  0.00  0.00     0.009 A 
ATOM     31  C   UNL d   1      29.777 -16.081  -2.471  0.00  0.00     0.001 A 
ATOM     32  C   UNL d   1      30.433 -17.287  -2.237  0.00  0.00     0.000 A 
ATOM     33  C   UNL d   1      30.772 -18.105  -3.312  0.00  0.00     0.001 A 
ATOM     34  C   UNL d   1      30.555 -17.664  -4.623  0.00  0.00     0.009 A 
ENDBRANCH  28  29
ENDBRANCH  26  28
ENDBRANCH   7  24
BRANCH   1  35
ATOM     35  O   UNL d   1      24.755  -8.718  -4.954  0.00  0.00    -0.353 OA
ATOM     36  C   UNL d   1      23.557  -8.061  -5.358  0.00  0.00     0.210 C 
ENDBRANCH   1  35
TORSDOF 7
ENDMDL
MODEL 8
REMARK VINA RESULT:    -7.529      6.373     10.979
REMARK INTER + INTRA:         -12.229
REMARK INTER:                  -9.617
REMARK INTRA:                  -2.612
REMARK CONF_INDEPENDENT:        2.088
REMARK UNBOUND:                -2.612
REMARK  7 active torsions:
REMARK  status: ('A' for Active; 'I' for Inactive)
REMARK    1  A    between atoms: O_2  and  C_3 
REMARK    2  A    between atoms: C_9  and  C_10 
REMARK       I    between atoms: C_10  and  N_12 
REMARK    3  A    between atoms: N_12  and  C_13 
REMARK    4  A    between atoms: C_13  and  C_14 
REMARK    5  A    between atoms: C_20  and  N_21 
REMARK    6  A    between atoms: N_21  and  N_22 
REMARK       I    between atoms: N_22  and  C_23 
REMARK    7  A    between atoms: C_23  and  C_25 
ROOT
ATOM      1  C   UNL d   1      28.502 -12.118   6.150  0.00  0.00     0.102 C 
ATOM      2  C   UNL d   1      29.237 -12.840   7.086  0.00  0.00     0.040 C 
ATOM      3  C   UNL d   1      29.574 -14.172   6.831  0.00  0.00     0.004 C 
ATOM      4  C   UNL d   1      29.069 -14.825   5.707  0.00  0.00     0.014 C 
ATOM      5  C   UNL d   1      28.458 -14.084   4.699  0.00  0.00     0.002 A 
ATOM      6  C   UNL d   1      28.143 -14.663   3.393  0.00  0.00     0.035 A 
ATOM      7  C   UNL d   1      27.686 -13.907   2.374  0.00  0.00     0.085 A 
ATOM      8  C   UNL d   1      27.476 -12.479   2.672  0.00  0.00     0.178 A 
ATOM      9  O   UNL d   1      27.677 -11.926   3.906  0.00  0.00    -0.288 OA
ATOM     10  C   UNL d   1      28.202 -12.733   4.930  0.00  0.00     0.121 A 
ENDROOT
BRANCH   8  11
ATOM     11  N   UNL d   1      27.077 -11.632   1.816  0.00  0.00    -0.276 N 
ATOM     12  H   UNL d   1      27.096 -11.913   0.852  0.00  0.00     0.189 HD
BRANCH  11  13
ATOM     13  N   UNL d   1      26.591 -10.354   1.966  0.00  0.00    -0.264 N 
ATOM     14  C   UNL d   1      26.655  -9.579   0.818  0.00  0.00     0.270 C 
ATOM     15  O   UNL d   1      27.100 -10.038  -0.236  0.00  0.00    -0.266 OA
ATOM     16  H   UNL d   1      26.172 -10.076   2.847  0.00  0.00     0.190 HD
BRANCH  14  17
ATOM     17  C   UNL d   1      26.131  -8.215   0.929  0.00  0.00     0.036 C 
ATOM     18  C   UNL d   1      25.528  -7.642  -0.195  0.00  0.00     0.017 C 
ATOM     19  C   UNL d   1      25.135  -6.309  -0.161  0.00  0.00     0.004 C 
ATOM     20  C   UNL d   1      25.443  -5.529   0.951  0.00  0.00     0.042 C 
ATOM     21  C   UNL d   1      26.007  -6.123   2.077  0.00  0.00     0.117 C 
ATOM     22  F   UNL d   1      26.311  -5.362   3.135  0.00  0.00    -0.206 F 
ATOM     23  C   UNL d   1      26.286  -7.484   2.108  0.00  0.00     0.059 C 
ENDBRANCH  14  17
ENDBRANCH  11  13
ENDBRANCH   8  11
BRANCH   7  24
ATOM     24  C   UNL d   1      27.441 -14.605   1.041  0.00  0.00     0.256 C 
ATOM     25  O   UNL d   1      26.854 -14.004   0.144  0.00  0.00    -0.268 OA
ATOM     26  N   UNL d   1      27.875 -15.901   0.839  0.00  0.00    -0.352 N 
ATOM     27  H   UNL d   1      28.312 -16.575   1.414  0.00  0.00     0.163 HD
BRANCH  26  28
ATOM     28  C   UNL d   1      27.703 -16.618  -0.417  0.00  0.00     0.161 C 
BRANCH  28  29
ATOM     29  C   UNL d   1      26.232 -17.004  -0.536  0.00  0.00    -0.041 A 
ATOM     30  C   UNL d   1      25.362 -16.244  -1.330  0.00  0.00     0.009 A 
ATOM     31  C   UNL d   1      23.979 -16.450  -1.275  0.00  0.00     0.001 A 
ATOM     32  C   UNL d   1      23.453 -17.485  -0.506  0.00  0.00     0.000 A 
ATOM     33  C   UNL d   1      24.311 -18.318   0.206  0.00  0.00     0.001 A 
ATOM     34  C   UNL d   1      25.684 -18.046   0.238  0.00  0.00     0.009 A 
ENDBRANCH  28  29
ENDBRANCH  26  28
ENDBRANCH   7  24
BRANCH   1  35
ATOM     35  O   UNL d   1      28.000 -10.861   6.344  0.00  0.00    -0.353 OA
ATOM     36  C   UNL d   1      28.903  -9.785   6.112  0.00  0.00     0.210 C 
ENDBRANCH   1  35
TORSDOF 7
ENDMDL
MODEL 9
REMARK VINA RESULT:    -7.478      3.932      7.449
REMARK INTER + INTRA:         -12.199
REMARK INTER:                  -9.566
REMARK INTRA:                  -2.632
REMARK CONF_INDEPENDENT:        2.088
REMARK UNBOUND:                -2.632
REMARK  7 active torsions:
REMARK  status: ('A' for Active; 'I' for Inactive)
REMARK    1  A    between atoms: O_2  and  C_3 
REMARK    2  A    between atoms: C_9  and  C_10 
REMARK       I    between atoms: C_10  and  N_12 
REMARK    3  A    between atoms: N_12  and  C_13 
REMARK    4  A    between atoms: C_13  and  C_14 
REMARK    5  A    between atoms: C_20  and  N_21 
REMARK    6  A    between atoms: N_21  and  N_22 
REMARK       I    between atoms: N_22  and  C_23 
REMARK    7  A    between atoms: C_23  and  C_25 
ROOT
ATOM      1  C   UNL d   1      25.330 -17.661   0.234  0.00  0.00     0.102 C 
ATOM      2  C   UNL d   1      24.115 -18.283   0.505  0.00  0.00     0.040 C 
ATOM      3  C   UNL d   1      22.952 -17.854  -0.141  0.00  0.00     0.004 C 
ATOM      4  C   UNL d   1      22.974 -16.723  -0.956  0.00  0.00     0.014 C 
ATOM      5  C   UNL d   1      24.197 -16.182  -1.347  0.00  0.00     0.002 A 
ATOM      6  C   UNL d   1      24.295 -15.168  -2.397  0.00  0.00     0.035 A 
ATOM      7  C   UNL d   1      25.488 -14.754  -2.872  0.00  0.00     0.085 A 
ATOM      8  C   UNL d   1      26.678 -15.345  -2.236  0.00  0.00     0.178 A 
ATOM      9  O   UNL d   1      26.619 -16.228  -1.194  0.00  0.00    -0.288 OA
ATOM     10  C   UNL d   1      25.360 -16.676  -0.758  0.00  0.00     0.121 A 
ENDROOT
BRANCH   8  11
ATOM     11  N   UNL d   1      27.868 -15.081  -2.586  0.00  0.00    -0.276 N 
ATOM     12  H   UNL d   1      28.213 -14.162  -2.377  0.00  0.00     0.189 HD
BRANCH  11  13
ATOM     13  N   UNL d   1      28.820 -15.852  -3.213  0.00  0.00    -0.264 N 
ATOM     14  C   UNL d   1      28.663 -15.949  -4.587  0.00  0.00     0.270 C 
ATOM     15  O   UNL d   1      27.746 -15.364  -5.166  0.00  0.00    -0.266 OA
ATOM     16  H   UNL d   1      29.588 -16.238  -2.674  0.00  0.00     0.190 HD
BRANCH  14  17
ATOM     17  C   UNL d   1      29.667 -16.747  -5.297  0.00  0.00     0.036 C 
ATOM     18  C   UNL d   1      30.206 -16.235  -6.482  0.00  0.00     0.017 C 
ATOM     19  C   UNL d   1      31.064 -17.019  -7.243  0.00  0.00     0.004 C 
ATOM     20  C   UNL d   1      31.293 -18.344  -6.877  0.00  0.00     0.042 C 
ATOM     21  C   UNL d   1      30.783 -18.826  -5.674  0.00  0.00     0.117 C 
ATOM     22  F   UNL d   1      30.997 -20.104  -5.338  0.00  0.00    -0.206 F 
ATOM     23  C   UNL d   1      30.030 -18.014  -4.836  0.00  0.00     0.059 C 
ENDBRANCH  14  17
ENDBRANCH  11  13
ENDBRANCH   8  11
BRANCH   7  24
ATOM     24  C   UNL d   1      25.473 -13.732  -4.004  0.00  0.00     0.256 C 
ATOM     25  O   UNL d   1      24.398 -13.375  -4.480  0.00  0.00    -0.268 OA
ATOM     26  N   UNL d   1      26.655 -13.210  -4.491  0.00  0.00    -0.352 N 
ATOM     27  H   UNL d   1      27.609 -13.379  -4.300  0.00  0.00     0.163 HD
BRANCH  26  28
ATOM     28  C   UNL d   1      26.714 -12.208  -5.548  0.00  0.00     0.161 C 
BRANCH  28  29
ATOM     29  C   UNL d   1      28.077 -12.326  -6.225  0.00  0.00    -0.041 A 
ATOM     30  C   UNL d   1      28.164 -12.552  -7.605  0.00  0.00     0.009 A 
ATOM     31  C   UNL d   1      29.387 -12.880  -8.201  0.00  0.00     0.001 A 
ATOM     32  C   UNL d   1      30.557 -12.887  -7.445  0.00  0.00     0.000 A 
ATOM     33  C   UNL d   1      30.505 -12.562  -6.093  0.00  0.00     0.001 A 
ATOM     34  C   UNL d   1      29.268 -12.339  -5.474  0.00  0.00     0.009 A 
ENDBRANCH  28  29
ENDBRANCH  26  28
ENDBRANCH   7  24
BRANCH   1  35
ATOM     35  O   UNL d   1      26.501 -17.899   0.897  0.00  0.00    -0.353 OA
ATOM     36  C   UNL d   1      27.436 -18.742   0.232  0.00  0.00     0.210 C 
ENDBRANCH   1  35
TORSDOF 7
ENDMDL
