MODEL 1
REMARK VINA RESULT:    -8.623      0.000      0.000
REMARK INTER + INTRA:         -13.287
REMARK INTER:                 -10.711
REMARK INTRA:                  -2.576
REMARK CONF_INDEPENDENT:        2.088
REMARK UNBOUND:                -2.576
REMARK  7 active torsions:
REMARK  status: ('A' for Active; 'I' for Inactive)
REMARK    1  A    between atoms: C_2  and  C_3 
REMARK       I    between atoms: C_2  and  N_14 
REMARK    2  A    between atoms: C_3  and  C_4 
REMARK    3  A    between atoms: C_4  and  C_5 
REMARK    4  A    between atoms: N_14  and  N_15 
REMARK    5  A    between atoms: C_25  and  S_26 
REMARK    6  A    between atoms: S_26  and  C_27 
REMARK    7  A    between atoms: C_27  and  C_28 
ROOT
ATOM      1  N   UNL d   1      28.759 -14.749  -0.655  0.00  0.00    -0.114 NA
ATOM      2  C   UNL d   1      28.898 -16.145  -0.876  0.00  0.00     0.253 C 
ATOM      3  O   UNL d   1      29.960 -16.723  -0.659  0.00  0.00    -0.272 OA
ATOM      4  C   UNL d   1      27.507 -16.911  -0.970  0.00  0.00     0.051 C 
ATOM      5  C   UNL d   1      26.328 -16.396  -1.533  0.00  0.00     0.015 C 
ATOM      6  C   UNL d   1      25.021 -16.748  -1.067  0.00  0.00     0.001 C 
ATOM      7  C   UNL d   1      24.849 -17.750  -0.120  0.00  0.00    -0.001 C 
ATOM      8  C   UNL d   1      25.979 -18.200   0.531  0.00  0.00     0.023 C 
ATOM      9  C   UNL d   1      27.205 -17.511   0.240  0.00  0.00     0.253 C 
ATOM     10  N   UNL d   1      27.586 -16.260   1.275  0.00  0.00     0.135 N 
ATOM     11  C   UNL d   1      27.686 -14.732   0.300  0.00  0.00     0.386 C 
ATOM     12  H   UNL d   1      28.456 -16.898   1.452  0.00  0.00     0.321 HD
ENDROOT
BRANCH   1  13
ATOM     13  N   UNL d   1      30.035 -13.941  -0.341  0.00  0.00    -0.279 N 
ATOM     14  C   UNL d   1      30.423 -12.678  -0.763  0.00  0.00     0.232 C 
ATOM     15  O   UNL d   1      31.577 -12.249  -0.734  0.00  0.00    -0.272 OA
ATOM     16  H   UNL d   1      30.863 -14.513  -0.213  0.00  0.00     0.184 HD
BRANCH  14  17
ATOM     17  C   UNL d   1      29.421 -11.736  -1.180  0.00  0.00     0.108 C 
BRANCH  17  18
ATOM     18  C   UNL d   1      29.484 -11.440  -2.610  0.00  0.00     0.046 C 
BRANCH  18  19
ATOM     19  C   UNL d   1      28.045 -11.501  -2.642  0.00  0.00    -0.050 A 
ATOM     20  C   UNL d   1      27.485 -12.942  -3.174  0.00  0.00    -0.006 A 
ATOM     21  C   UNL d   1      27.993 -14.219  -3.715  0.00  0.00     0.014 C 
ATOM     22  C   UNL d   1      25.978 -12.602  -4.078  0.00  0.00     0.038 A 
ATOM     23  C   UNL d   1      27.309 -15.200  -4.381  0.00  0.00     0.001 C 
ATOM     24  C   UNL d   1      25.942 -15.256  -4.771  0.00  0.00     0.002 C 
ATOM     25  C   UNL d   1      25.292 -14.130  -4.644  0.00  0.00     0.030 C 
ATOM     26  N   UNL d   1      25.529 -10.904  -4.257  0.00  0.00    -0.385 N 
ATOM     27  C   UNL d   1      26.895  -9.809  -3.239  0.00  0.00     0.155 A 
ATOM     28  H   UNL d   1      24.620 -10.421  -4.235  0.00  0.00     0.160 HD
ENDBRANCH  18  19
ENDBRANCH  17  18
ENDBRANCH  14  17
ENDBRANCH   1  13
BRANCH  11  29
ATOM     29  S   UNL d   1      26.963 -12.972   0.663  0.00  0.00    -0.112 SA
BRANCH  29  30
ATOM     30  C   UNL d   1      27.270 -11.785   2.516  0.00  0.00     0.115 C 
BRANCH  30  31
ATOM     31  C   UNL d   1      28.350 -12.274   4.076  0.00  0.00    -0.050 A 
ATOM     32  C   UNL d   1      29.429 -14.029   4.220  0.00  0.00    -0.013 A 
ATOM     33  C   UNL d   1      29.894 -14.814   5.527  0.00  0.00     0.028 A 
ATOM     34  C   UNL d   1      29.230 -14.076   7.015  0.00  0.00     0.067 A 
ATOM     35  C   UNL d   1      28.155 -12.492   7.059  0.00  0.00     0.100 A 
ATOM     36  F   UNL d   1      28.261 -11.564   8.034  0.00  0.00    -0.210 F 
ATOM     37  C   UNL d   1      27.784 -11.519   5.552  0.00  0.00     0.045 A 
ENDBRANCH  30  31
ENDBRANCH  29  30
ENDBRANCH  11  29
TORSDOF 7
ENDMDL
MODEL 2
REMARK VINA RESULT:    -8.436      2.626      4.987
REMARK INTER + INTRA:         -12.361
REMARK INTER:                 -10.524
REMARK INTRA:                  -1.837
REMARK CONF_INDEPENDENT:        2.088
REMARK UNBOUND:                -1.837
REMARK  7 active torsions:
REMARK  status: ('A' for Active; 'I' for Inactive)
REMARK    1  A    between atoms: C_2  and  C_3 
REMARK       I    between atoms: C_2  and  N_14 
REMARK    2  A    between atoms: C_3  and  C_4 
REMARK    3  A    between atoms: C_4  and  C_5 
REMARK    4  A    between atoms: N_14  and  N_15 
REMARK    5  A    between atoms: C_25  and  S_26 
REMARK    6  A    between atoms: S_26  and  C_27 
REMARK    7  A    between atoms: C_27  and  C_28 
ROOT
ATOM      1  N   UNL d   1      29.615 -14.451   1.712  0.00  0.00    -0.114 NA
ATOM      2  C   UNL d   1      28.275 -14.706   2.103  0.00  0.00     0.253 C 
ATOM      3  O   UNL d   1      27.726 -15.775   1.846  0.00  0.00    -0.272 OA
ATOM      4  C   UNL d   1      27.752 -13.726   3.241  0.00  0.00     0.051 C 
ATOM      5  C   UNL d   1      28.098 -12.372   3.374  0.00  0.00     0.015 C 
ATOM      6  C   UNL d   1      28.187 -11.709   4.641  0.00  0.00     0.001 C 
ATOM      7  C   UNL d   1      27.780 -12.344   5.807  0.00  0.00    -0.001 C 
ATOM      8  C   UNL d   1      27.538 -13.700   5.732  0.00  0.00     0.023 C 
ATOM      9  C   UNL d   1      27.836 -14.338   4.480  0.00  0.00     0.253 C 
ATOM     10  N   UNL d   1      29.361 -15.002   4.360  0.00  0.00     0.135 N 
ATOM     11  C   UNL d   1      30.224 -14.188   2.985  0.00  0.00     0.386 C 
ATOM     12  H   UNL d   1      28.769 -15.910   4.221  0.00  0.00     0.321 HD
ENDROOT
BRANCH   1  13
ATOM     13  N   UNL d   1      30.294 -15.466   0.768  0.00  0.00    -0.279 N 
ATOM     14  C   UNL d   1      29.829 -16.056  -0.398  0.00  0.00     0.232 C 
ATOM     15  O   UNL d   1      30.292 -17.080  -0.902  0.00  0.00    -0.272 OA
ATOM     16  H   UNL d   1      30.915 -16.114   1.241  0.00  0.00     0.184 HD
BRANCH  14  17
ATOM     17  C   UNL d   1      28.798 -15.403  -1.155  0.00  0.00     0.108 C 
BRANCH  17  18
ATOM     18  C   UNL d   1      28.082 -16.319  -2.042  0.00  0.00     0.046 C 
BRANCH  18  19
ATOM     19  C   UNL d   1      26.872 -15.594  -1.742  0.00  0.00    -0.050 A 
ATOM     20  C   UNL d   1      25.763 -16.511  -0.968  0.00  0.00    -0.006 A 
ATOM     21  C   UNL d   1      25.564 -17.905  -0.522  0.00  0.00     0.014 C 
ATOM     22  C   UNL d   1      24.158 -15.952  -1.529  0.00  0.00     0.038 A 
ATOM     23  C   UNL d   1      24.405 -18.527  -0.142  0.00  0.00     0.001 C 
ATOM     24  C   UNL d   1      23.073 -18.029  -0.102  0.00  0.00     0.002 C 
ATOM     25  C   UNL d   1      22.904 -16.876  -0.692  0.00  0.00     0.030 C 
ATOM     26  N   UNL d   1      24.147 -14.698  -2.771  0.00  0.00    -0.385 N 
ATOM     27  C   UNL d   1      26.074 -14.186  -3.127  0.00  0.00     0.155 A 
ATOM     28  H   UNL d   1      23.542 -13.879  -2.925  0.00  0.00     0.160 HD
ENDBRANCH  18  19
ENDBRANCH  17  18
ENDBRANCH  14  17
ENDBRANCH   1  13
BRANCH  11  29
ATOM     29  S   UNL d   1      32.029 -13.493   2.884  0.00  0.00    -0.112 SA
BRANCH  29  30
ATOM     30  C   UNL d   1      32.862 -11.826   4.095  0.00  0.00     0.115 C 
BRANCH  30  31
ATOM     31  C   UNL d   1      32.079 -11.012   5.695  0.00  0.00    -0.050 A 
ATOM     32  C   UNL d   1      31.573 -12.075   7.392  0.00  0.00    -0.013 A 
ATOM     33  C   UNL d   1      30.494 -11.720   8.512  0.00  0.00     0.028 A 
ATOM     34  C   UNL d   1      29.551 -10.262   8.084  0.00  0.00     0.067 A 
ATOM     35  C   UNL d   1      29.839  -9.198   6.518  0.00  0.00     0.100 A 
ATOM     36  F   UNL d   1      29.731  -7.853   6.519  0.00  0.00    -0.210 F 
ATOM     37  C   UNL d   1      31.202  -9.537   5.342  0.00  0.00     0.045 A 
ENDBRANCH  30  31
ENDBRANCH  29  30
ENDBRANCH  11  29
TORSDOF 7
ENDMDL
MODEL 3
REMARK VINA RESULT:    -8.273      1.419      1.959
REMARK INTER + INTRA:         -12.840
REMARK INTER:                 -10.361
REMARK INTRA:                  -2.479
REMARK CONF_INDEPENDENT:        2.088
REMARK UNBOUND:                -2.479
REMARK  7 active torsions:
REMARK  status: ('A' for Active; 'I' for Inactive)
REMARK    1  A    between atoms: C_2  and  C_3 
REMARK       I    between atoms: C_2  and  N_14 
REMARK    2  A    between atoms: C_3  and  C_4 
REMARK    3  A    between atoms: C_4  and  C_5 
REMARK    4  A    between atoms: N_14  and  N_15 
REMARK    5  A    between atoms: C_25  and  S_26 
REMARK    6  A    between atoms: S_26  and  C_27 
REMARK    7  A    between atoms: C_27  and  C_28 
ROOT
ATOM      1  N   UNL d   1      28.677 -14.897  -1.352  0.00  0.00    -0.114 NA
ATOM      2  C   UNL d   1      28.800 -16.308  -1.453  0.00  0.00     0.253 C 
ATOM      3  O   UNL d   1      29.895 -16.860  -1.387  0.00  0.00    -0.272 OA
ATOM      4  C   UNL d   1      27.433 -17.081  -1.198  0.00  0.00     0.051 C 
ATOM      5  C   UNL d   1      26.158 -16.628  -1.572  0.00  0.00     0.015 C 
ATOM      6  C   UNL d   1      24.972 -16.930  -0.829  0.00  0.00     0.001 C 
ATOM      7  C   UNL d   1      25.005 -17.828   0.230  0.00  0.00    -0.001 C 
ATOM      8  C   UNL d   1      26.248 -18.207   0.693  0.00  0.00     0.023 C 
ATOM      9  C   UNL d   1      27.382 -17.551   0.102  0.00  0.00     0.253 C 
ATOM     10  N   UNL d   1      27.928 -16.200   0.912  0.00  0.00     0.135 N 
ATOM     11  C   UNL d   1      27.808 -14.781  -0.215  0.00  0.00     0.386 C 
ATOM     12  H   UNL d   1      28.828 -16.815   0.981  0.00  0.00     0.321 HD
ENDROOT
BRANCH   1  13
ATOM     13  N   UNL d   1      29.973 -14.060  -1.374  0.00  0.00    -0.279 N 
ATOM     14  C   UNL d   1      30.346 -13.006  -2.196  0.00  0.00     0.232 C 
ATOM     15  O   UNL d   1      31.503 -12.617  -2.360  0.00  0.00    -0.272 OA
ATOM     16  H   UNL d   1      30.803 -14.580  -1.109  0.00  0.00     0.184 HD
BRANCH  14  17
ATOM     17  C   UNL d   1      29.330 -12.225  -2.845  0.00  0.00     0.108 C 
BRANCH  17  18
ATOM     18  C   UNL d   1      29.785 -11.640  -4.105  0.00  0.00     0.046 C 
BRANCH  18  19
ATOM     19  C   UNL d   1      29.237 -12.786  -4.785  0.00  0.00    -0.050 A 
ATOM     20  C   UNL d   1      27.628 -12.949  -4.552  0.00  0.00    -0.006 A 
ATOM     21  C   UNL d   1      26.529 -12.321  -3.791  0.00  0.00     0.014 C 
ATOM     22  C   UNL d   1      27.291 -14.706  -4.521  0.00  0.00     0.038 A 
ATOM     23  C   UNL d   1      25.283 -12.817  -3.517  0.00  0.00     0.001 C 
ATOM     24  C   UNL d   1      24.707 -14.075  -3.850  0.00  0.00     0.002 C 
ATOM     25  C   UNL d   1      25.552 -14.954  -4.318  0.00  0.00     0.030 C 
ATOM     26  N   UNL d   1      28.687 -15.781  -4.642  0.00  0.00    -0.385 N 
ATOM     27  C   UNL d   1      30.325 -14.616  -4.888  0.00  0.00     0.155 A 
ATOM     28  H   UNL d   1      28.831 -16.679  -5.124  0.00  0.00     0.160 HD
ENDBRANCH  18  19
ENDBRANCH  17  18
ENDBRANCH  14  17
ENDBRANCH   1  13
BRANCH  11  29
ATOM     29  S   UNL d   1      27.132 -12.993   0.100  0.00  0.00    -0.112 SA
BRANCH  29  30
ATOM     30  C   UNL d   1      26.996 -11.970   2.068  0.00  0.00     0.115 C 
BRANCH  30  31
ATOM     31  C   UNL d   1      28.012 -12.378   3.692  0.00  0.00    -0.050 A 
ATOM     32  C   UNL d   1      28.360 -14.294   4.378  0.00  0.00    -0.013 A 
ATOM     33  C   UNL d   1      28.668 -14.786   5.863  0.00  0.00     0.028 A 
ATOM     34  C   UNL d   1      28.538 -13.449   7.044  0.00  0.00     0.067 A 
ATOM     35  C   UNL d   1      28.155 -11.628   6.591  0.00  0.00     0.100 A 
ATOM     36  F   UNL d   1      28.733 -10.582   7.218  0.00  0.00    -0.210 F 
ATOM     37  C   UNL d   1      27.978 -11.068   4.855  0.00  0.00     0.045 A 
ENDBRANCH  30  31
ENDBRANCH  29  30
ENDBRANCH  11  29
TORSDOF 7
ENDMDL
MODEL 4
REMARK VINA RESULT:    -7.959      1.487      2.127
REMARK INTER + INTRA:         -12.217
REMARK INTER:                 -10.047
REMARK INTRA:                  -2.170
REMARK CONF_INDEPENDENT:        2.088
REMARK UNBOUND:                -2.170
REMARK  7 active torsions:
REMARK  status: ('A' for Active; 'I' for Inactive)
REMARK    1  A    between atoms: C_2  and  C_3 
REMARK       I    between atoms: C_2  and  N_14 
REMARK    2  A    between atoms: C_3  and  C_4 
REMARK    3  A    between atoms: C_4  and  C_5 
REMARK    4  A    between atoms: N_14  and  N_15 
REMARK    5  A    between atoms: C_25  and  S_26 
REMARK    6  A    between atoms: S_26  and  C_27 
REMARK    7  A    between atoms: C_27  and  C_28 
ROOT
ATOM      1  N   UNL d   1      28.643 -15.790   0.034  0.00  0.00    -0.114 NA
ATOM      2  C   UNL d   1      28.374 -16.942  -0.750  0.00  0.00     0.253 C 
ATOM      3  O   UNL d   1      29.214 -17.827  -0.896  0.00  0.00    -0.272 OA
ATOM      4  C   UNL d   1      26.823 -17.183  -1.008  0.00  0.00     0.051 C 
ATOM      5  C   UNL d   1      25.861 -16.176  -1.191  0.00  0.00     0.015 C 
ATOM      6  C   UNL d   1      24.496 -16.316  -0.780  0.00  0.00     0.001 C 
ATOM      7  C   UNL d   1      24.014 -17.531  -0.313  0.00  0.00    -0.001 C 
ATOM      8  C   UNL d   1      24.946 -18.505  -0.020  0.00  0.00     0.023 C 
ATOM      9  C   UNL d   1      26.327 -18.125  -0.125  0.00  0.00     0.253 C 
ATOM     10  N   UNL d   1      27.030 -17.583   1.287  0.00  0.00     0.135 N 
ATOM     11  C   UNL d   1      27.598 -15.880   1.015  0.00  0.00     0.386 C 
ATOM     12  H   UNL d   1      27.671 -18.448   1.099  0.00  0.00     0.321 HD
ENDROOT
BRANCH   1  13
ATOM     13  N   UNL d   1      30.091 -15.575   0.521  0.00  0.00    -0.279 N 
ATOM     14  C   UNL d   1      31.053 -14.667   0.102  0.00  0.00     0.232 C 
ATOM     15  O   UNL d   1      32.262 -14.776   0.310  0.00  0.00    -0.272 OA
ATOM     16  H   UNL d   1      30.552 -16.425   0.827  0.00  0.00     0.184 HD
BRANCH  14  17
ATOM     17  C   UNL d   1      30.640 -13.450  -0.539  0.00  0.00     0.108 C 
BRANCH  17  18
ATOM     18  C   UNL d   1      30.316 -13.637  -1.952  0.00  0.00     0.046 C 
BRANCH  18  19
ATOM     19  C   UNL d   1      29.002 -13.114  -1.676  0.00  0.00    -0.050 A 
ATOM     20  C   UNL d   1      27.834 -13.848  -2.553  0.00  0.00    -0.006 A 
ATOM     21  C   UNL d   1      27.691 -14.859  -3.620  0.00  0.00     0.014 C 
ATOM     22  C   UNL d   1      26.599 -12.602  -2.903  0.00  0.00     0.038 A 
ATOM     23  C   UNL d   1      26.612 -15.111  -4.423  0.00  0.00     0.001 C 
ATOM     24  C   UNL d   1      25.348 -14.460  -4.485  0.00  0.00     0.002 C 
ATOM     25  C   UNL d   1      25.277 -13.343  -3.813  0.00  0.00     0.030 C 
ATOM     26  N   UNL d   1      26.949 -10.963  -2.345  0.00  0.00    -0.385 N 
ATOM     27  C   UNL d   1      28.705 -11.031  -1.339  0.00  0.00     0.155 A 
ATOM     28  H   UNL d   1      26.354 -10.225  -1.944  0.00  0.00     0.160 HD
ENDBRANCH  18  19
ENDBRANCH  17  18
ENDBRANCH  14  17
ENDBRANCH   1  13
BRANCH  11  29
ATOM     29  S   UNL d   1      27.412 -14.311   2.136  0.00  0.00    -0.112 SA
BRANCH  29  30
ATOM     30  C   UNL d   1      27.745 -14.220   4.331  0.00  0.00     0.115 C 
BRANCH  30  31
ATOM     31  C   UNL d   1      27.808 -12.619   5.459  0.00  0.00    -0.050 A 
ATOM     32  C   UNL d   1      27.986 -10.700   4.718  0.00  0.00    -0.013 A 
ATOM     33  C   UNL d   1      28.568  -9.400   5.435  0.00  0.00     0.028 A 
ATOM     34  C   UNL d   1      29.259  -9.781   7.039  0.00  0.00     0.067 A 
ATOM     35  C   UNL d   1      29.243 -11.517   7.848  0.00  0.00     0.100 A 
ATOM     36  F   UNL d   1      29.054 -11.704   9.171  0.00  0.00    -0.210 F 
ATOM     37  C   UNL d   1      28.412 -12.952   7.069  0.00  0.00     0.045 A 
ENDBRANCH  30  31
ENDBRANCH  29  30
ENDBRANCH  11  29
TORSDOF 7
ENDMDL
MODEL 5
REMARK VINA RESULT:    -7.719      2.119      3.200
REMARK INTER + INTRA:         -12.455
REMARK INTER:                  -9.807
REMARK INTRA:                  -2.648
REMARK CONF_INDEPENDENT:        2.088
REMARK UNBOUND:                -2.648
REMARK  7 active torsions:
REMARK  status: ('A' for Active; 'I' for Inactive)
REMARK    1  A    between atoms: C_2  and  C_3 
REMARK       I    between atoms: C_2  and  N_14 
REMARK    2  A    between atoms: C_3  and  C_4 
REMARK    3  A    between atoms: C_4  and  C_5 
REMARK    4  A    between atoms: N_14  and  N_15 
REMARK    5  A    between atoms: C_25  and  S_26 
REMARK    6  A    between atoms: S_26  and  C_27 
REMARK    7  A    between atoms: C_27  and  C_28 
ROOT
ATOM      1  N   UNL d   1      28.816 -14.503  -0.401  0.00  0.00    -0.114 NA
ATOM      2  C   UNL d   1      29.087 -15.870  -0.675  0.00  0.00     0.253 C 
ATOM      3  O   UNL d   1      30.173 -16.374  -0.399  0.00  0.00    -0.272 OA
ATOM      4  C   UNL d   1      27.776 -16.737  -0.917  0.00  0.00     0.051 C 
ATOM      5  C   UNL d   1      26.605 -16.287  -1.550  0.00  0.00     0.015 C 
ATOM      6  C   UNL d   1      25.300 -16.765  -1.208  0.00  0.00     0.001 C 
ATOM      7  C   UNL d   1      25.137 -17.825  -0.326  0.00  0.00    -0.001 C 
ATOM      8  C   UNL d   1      26.247 -18.219   0.393  0.00  0.00     0.023 C 
ATOM      9  C   UNL d   1      27.431 -17.421   0.235  0.00  0.00     0.253 C 
ATOM     10  N   UNL d   1      27.627 -16.201   1.355  0.00  0.00     0.135 N 
ATOM     11  C   UNL d   1      27.676 -14.620   0.463  0.00  0.00     0.386 C 
ATOM     12  H   UNL d   1      28.530 -16.777   1.572  0.00  0.00     0.321 HD
ENDROOT
BRANCH   1  13
ATOM     13  N   UNL d   1      29.993 -13.615   0.053  0.00  0.00    -0.279 N 
ATOM     14  C   UNL d   1      30.364 -12.341  -0.352  0.00  0.00     0.232 C 
ATOM     15  O   UNL d   1      31.479 -11.844  -0.185  0.00  0.00    -0.272 OA
ATOM     16  H   UNL d   1      30.827 -14.135   0.305  0.00  0.00     0.184 HD
BRANCH  14  17
ATOM     17  C   UNL d   1      29.376 -11.469  -0.925  0.00  0.00     0.108 C 
BRANCH  17  18
ATOM     18  C   UNL d   1      29.429 -11.434  -2.385  0.00  0.00     0.046 C 
BRANCH  18  19
ATOM     19  C   UNL d   1      28.006 -11.659  -2.399  0.00  0.00    -0.050 A 
ATOM     20  C   UNL d   1      27.600 -13.087  -3.084  0.00  0.00    -0.006 A 
ATOM     21  C   UNL d   1      28.233 -14.227  -3.776  0.00  0.00     0.014 C 
ATOM     22  C   UNL d   1      26.037 -12.828  -3.916  0.00  0.00     0.038 A 
ATOM     23  C   UNL d   1      27.647 -15.200  -4.538  0.00  0.00     0.001 C 
ATOM     24  C   UNL d   1      26.284 -15.372  -4.910  0.00  0.00     0.002 C 
ATOM     25  C   UNL d   1      25.514 -14.352  -4.643  0.00  0.00     0.030 C 
ATOM     26  N   UNL d   1      25.390 -11.184  -3.891  0.00  0.00    -0.385 N 
ATOM     27  C   UNL d   1      26.653 -10.058  -2.778  0.00  0.00     0.155 A 
ATOM     28  H   UNL d   1      24.433 -10.817  -3.799  0.00  0.00     0.160 HD
ENDBRANCH  18  19
ENDBRANCH  17  18
ENDBRANCH  14  17
ENDBRANCH   1  13
BRANCH  11  29
ATOM     29  S   UNL d   1      26.784 -12.944   0.847  0.00  0.00    -0.112 SA
BRANCH  29  30
ATOM     30  C   UNL d   1      27.433 -11.425   2.334  0.00  0.00     0.115 C 
BRANCH  30  31
ATOM     31  C   UNL d   1      26.698  -9.627   2.594  0.00  0.00    -0.050 A 
ATOM     32  C   UNL d   1      25.907  -8.479   1.070  0.00  0.00    -0.013 A 
ATOM     33  C   UNL d   1      25.773  -6.893   0.977  0.00  0.00     0.028 A 
ATOM     34  C   UNL d   1      26.564  -6.079   2.359  0.00  0.00     0.067 A 
ATOM     35  C   UNL d   1      27.406  -6.985   3.821  0.00  0.00     0.100 A 
ATOM     36  F   UNL d   1      27.334  -6.542   5.094  0.00  0.00    -0.210 F 
ATOM     37  C   UNL d   1      27.389  -8.811   3.981  0.00  0.00     0.045 A 
ENDBRANCH  30  31
ENDBRANCH  29  30
ENDBRANCH  11  29
TORSDOF 7
ENDMDL
MODEL 6
REMARK VINA RESULT:    -7.276      3.155      4.667
REMARK INTER + INTRA:         -12.260
REMARK INTER:                  -9.364
REMARK INTRA:                  -2.896
REMARK CONF_INDEPENDENT:        2.088
REMARK UNBOUND:                -2.896
REMARK  7 active torsions:
REMARK  status: ('A' for Active; 'I' for Inactive)
REMARK    1  A    between atoms: C_2  and  C_3 
REMARK       I    between atoms: C_2  and  N_14 
REMARK    2  A    between atoms: C_3  and  C_4 
REMARK    3  A    between atoms: C_4  and  C_5 
REMARK    4  A    between atoms: N_14  and  N_15 
REMARK    5  A    between atoms: C_25  and  S_26 
REMARK    6  A    between atoms: S_26  and  C_27 
REMARK    7  A    between atoms: C_27  and  C_28 
ROOT
ATOM      1  N   UNL d   1      28.045 -14.299  -0.642  0.00  0.00    -0.114 NA
ATOM      2  C   UNL d   1      28.409 -15.578  -1.141  0.00  0.00     0.253 C 
ATOM      3  O   UNL d   1      29.587 -15.895  -1.287  0.00  0.00    -0.272 OA
ATOM      4  C   UNL d   1      27.238 -16.649  -1.047  0.00  0.00     0.051 C 
ATOM      5  C   UNL d   1      25.870 -16.379  -1.217  0.00  0.00     0.015 C 
ATOM      6  C   UNL d   1      24.841 -17.101  -0.531  0.00  0.00     0.001 C 
ATOM      7  C   UNL d   1      25.143 -18.223   0.230  0.00  0.00    -0.001 C 
ATOM      8  C   UNL d   1      26.475 -18.453   0.506  0.00  0.00     0.023 C 
ATOM      9  C   UNL d   1      27.405 -17.449   0.069  0.00  0.00     0.253 C 
ATOM     10  N   UNL d   1      27.779 -16.280   1.198  0.00  0.00     0.135 N 
ATOM     11  C   UNL d   1      27.290 -14.668   0.522  0.00  0.00     0.386 C 
ATOM     12  H   UNL d   1      28.778 -16.697   1.047  0.00  0.00     0.321 HD
ENDROOT
BRANCH   1  13
ATOM     13  N   UNL d   1      29.160 -13.243  -0.492  0.00  0.00    -0.279 N 
ATOM     14  C   UNL d   1      30.149 -12.850  -1.381  0.00  0.00     0.232 C 
ATOM     15  O   UNL d   1      31.178 -12.248  -1.069  0.00  0.00    -0.272 OA
ATOM     16  H   UNL d   1      29.513 -13.151   0.455  0.00  0.00     0.184 HD
BRANCH  14  17
ATOM     17  C   UNL d   1      29.952 -13.055  -2.789  0.00  0.00     0.108 C 
BRANCH  17  18
ATOM     18  C   UNL d   1      29.922 -11.803  -3.543  0.00  0.00     0.046 C 
BRANCH  18  19
ATOM     19  C   UNL d   1      29.196 -12.495  -4.579  0.00  0.00    -0.050 A 
ATOM     20  C   UNL d   1      27.646 -12.805  -4.163  0.00  0.00    -0.006 A 
ATOM     21  C   UNL d   1      26.738 -12.663  -3.007  0.00  0.00     0.014 C 
ATOM     22  C   UNL d   1      27.217 -14.368  -4.922  0.00  0.00     0.038 A 
ATOM     23  C   UNL d   1      25.533 -13.272  -2.784  0.00  0.00     0.001 C 
ATOM     24  C   UNL d   1      24.834 -14.231  -3.570  0.00  0.00     0.002 C 
ATOM     25  C   UNL d   1      25.530 -14.744  -4.549  0.00  0.00     0.030 C 
ATOM     26  N   UNL d   1      28.504 -15.201  -5.799  0.00  0.00    -0.385 N 
ATOM     27  C   UNL d   1      30.139 -14.007  -5.747  0.00  0.00     0.155 A 
ATOM     28  H   UNL d   1      28.508 -15.748  -6.671  0.00  0.00     0.160 HD
ENDBRANCH  18  19
ENDBRANCH  17  18
ENDBRANCH  14  17
ENDBRANCH   1  13
BRANCH  11  29
ATOM     29  S   UNL d   1      26.340 -13.202   1.359  0.00  0.00    -0.112 SA
BRANCH  29  30
ATOM     30  C   UNL d   1      27.121 -11.147   1.685  0.00  0.00     0.115 C 
BRANCH  30  31
ATOM     31  C   UNL d   1      27.046  -9.636   0.440  0.00  0.00    -0.050 A 
ATOM     32  C   UNL d   1      25.711  -8.071   0.613  0.00  0.00    -0.013 A 
ATOM     33  C   UNL d   1      25.157  -7.096  -0.521  0.00  0.00     0.028 A 
ATOM     34  C   UNL d   1      25.716  -7.587  -2.147  0.00  0.00     0.067 A 
ATOM     35  C   UNL d   1      26.897  -9.053  -2.497  0.00  0.00     0.100 A 
ATOM     36  F   UNL d   1      27.851  -9.011  -3.451  0.00  0.00    -0.210 F 
ATOM     37  C   UNL d   1      27.651 -10.045  -1.153  0.00  0.00     0.045 A 
ENDBRANCH  30  31
ENDBRANCH  29  30
ENDBRANCH  11  29
TORSDOF 7
ENDMDL
MODEL 7
REMARK VINA RESULT:    -7.023      2.110      2.607
REMARK INTER + INTRA:         -12.185
REMARK INTER:                  -9.111
REMARK INTRA:                  -3.074
REMARK CONF_INDEPENDENT:        2.088
REMARK UNBOUND:                -3.074
REMARK  7 active torsions:
REMARK  status: ('A' for Active; 'I' for Inactive)
REMARK    1  A    between atoms: C_2  and  C_3 
REMARK       I    between atoms: C_2  and  N_14 
REMARK    2  A    between atoms: C_3  and  C_4 
REMARK    3  A    between atoms: C_4  and  C_5 
REMARK    4  A    between atoms: N_14  and  N_15 
REMARK    5  A    between atoms: C_25  and  S_26 
REMARK    6  A    between atoms: S_26  and  C_27 
REMARK    7  A    between atoms: C_27  and  C_28 
ROOT
ATOM      1  N   UNL d   1      28.404 -15.182  -0.570  0.00  0.00    -0.114 NA
ATOM      2  C   UNL d   1      28.340 -16.474  -1.154  0.00  0.00     0.253 C 
ATOM      3  O   UNL d   1      29.342 -17.178  -1.260  0.00  0.00    -0.272 OA
ATOM      4  C   UNL d   1      26.866 -17.067  -1.217  0.00  0.00     0.051 C 
ATOM      5  C   UNL d   1      25.696 -16.322  -1.439  0.00  0.00     0.015 C 
ATOM      6  C   UNL d   1      24.428 -16.674  -0.876  0.00  0.00     0.001 C 
ATOM      7  C   UNL d   1      24.257 -17.873  -0.196  0.00  0.00    -0.001 C 
ATOM      8  C   UNL d   1      25.398 -18.575   0.134  0.00  0.00     0.023 C 
ATOM      9  C   UNL d   1      26.652 -17.939  -0.165  0.00  0.00     0.253 C 
ATOM     10  N   UNL d   1      27.316 -17.047   1.078  0.00  0.00     0.135 N 
ATOM     11  C   UNL d   1      27.476 -15.329   0.515  0.00  0.00     0.386 C 
ATOM     12  H   UNL d   1      28.116 -17.780   0.949  0.00  0.00     0.321 HD
ENDROOT
BRANCH   1  13
ATOM     13  N   UNL d   1      29.800 -14.598  -0.268  0.00  0.00    -0.279 N 
ATOM     14  C   UNL d   1      30.349 -13.369  -0.602  0.00  0.00     0.232 C 
ATOM     15  O   UNL d   1      31.554 -13.114  -0.609  0.00  0.00    -0.272 OA
ATOM     16  H   UNL d   1      30.539 -15.292  -0.244  0.00  0.00     0.184 HD
BRANCH  14  17
ATOM     17  C   UNL d   1      29.479 -12.258  -0.871  0.00  0.00     0.108 C 
BRANCH  17  18
ATOM     18  C   UNL d   1      29.523 -11.830  -2.268  0.00  0.00     0.046 C 
BRANCH  18  19
ATOM     19  C   UNL d   1      28.089 -11.972  -2.312  0.00  0.00    -0.050 A 
ATOM     20  C   UNL d   1      27.614 -13.362  -3.028  0.00  0.00    -0.006 A 
ATOM     21  C   UNL d   1      28.193 -14.526  -3.729  0.00  0.00     0.014 C 
ATOM     22  C   UNL d   1      26.085 -12.999  -3.883  0.00  0.00     0.038 A 
ATOM     23  C   UNL d   1      27.566 -15.450  -4.519  0.00  0.00     0.001 C 
ATOM     24  C   UNL d   1      26.202 -15.536  -4.917  0.00  0.00     0.002 C 
ATOM     25  C   UNL d   1      25.487 -14.478  -4.646  0.00  0.00     0.030 C 
ATOM     26  N   UNL d   1      25.534 -11.321  -3.840  0.00  0.00    -0.385 N 
ATOM     27  C   UNL d   1      26.838 -10.288  -2.685  0.00  0.00     0.155 A 
ATOM     28  H   UNL d   1      24.598 -10.900  -3.759  0.00  0.00     0.160 HD
ENDBRANCH  18  19
ENDBRANCH  17  18
ENDBRANCH  14  17
ENDBRANCH   1  13
BRANCH  11  29
ATOM     29  S   UNL d   1      27.029 -13.674   1.419  0.00  0.00    -0.112 SA
BRANCH  29  30
ATOM     30  C   UNL d   1      28.187 -12.720   3.057  0.00  0.00     0.115 C 
BRANCH  30  31
ATOM     31  C   UNL d   1      30.109 -12.883   3.405  0.00  0.00    -0.050 A 
ATOM     32  C   UNL d   1      31.400 -11.275   3.488  0.00  0.00    -0.013 A 
ATOM     33  C   UNL d   1      32.973 -11.239   3.229  0.00  0.00     0.028 A 
ATOM     34  C   UNL d   1      33.588 -12.820   2.663  0.00  0.00     0.067 A 
ATOM     35  C   UNL d   1      32.518 -14.396   2.463  0.00  0.00     0.100 A 
ATOM     36  F   UNL d   1      32.974 -15.631   2.762  0.00  0.00    -0.210 F 
ATOM     37  C   UNL d   1      30.749 -14.445   2.935  0.00  0.00     0.045 A 
ENDBRANCH  30  31
ENDBRANCH  29  30
ENDBRANCH  11  29
TORSDOF 7
ENDMDL
MODEL 8
REMARK VINA RESULT:    -7.022      2.998      5.315
REMARK INTER + INTRA:         -12.465
REMARK INTER:                  -9.110
REMARK INTRA:                  -3.355
REMARK CONF_INDEPENDENT:        2.088
REMARK UNBOUND:                -3.355
REMARK  7 active torsions:
REMARK  status: ('A' for Active; 'I' for Inactive)
REMARK    1  A    between atoms: C_2  and  C_3 
REMARK       I    between atoms: C_2  and  N_14 
REMARK    2  A    between atoms: C_3  and  C_4 
REMARK    3  A    between atoms: C_4  and  C_5 
REMARK    4  A    between atoms: N_14  and  N_15 
REMARK    5  A    between atoms: C_25  and  S_26 
REMARK    6  A    between atoms: S_26  and  C_27 
REMARK    7  A    between atoms: C_27  and  C_28 
ROOT
ATOM      1  N   UNL d   1      28.778 -16.219  -1.718  0.00  0.00    -0.114 NA
ATOM      2  C   UNL d   1      27.983 -16.763  -0.675  0.00  0.00     0.253 C 
ATOM      3  O   UNL d   1      28.131 -17.923  -0.298  0.00  0.00    -0.272 OA
ATOM      4  C   UNL d   1      27.266 -15.657   0.215  0.00  0.00     0.051 C 
ATOM      5  C   UNL d   1      26.765 -14.432  -0.254  0.00  0.00     0.015 C 
ATOM      6  C   UNL d   1      26.738 -13.243   0.543  0.00  0.00     0.001 C 
ATOM      7  C   UNL d   1      27.070 -13.281   1.892  0.00  0.00    -0.001 C 
ATOM      8  C   UNL d   1      27.666 -14.434   2.358  0.00  0.00     0.023 C 
ATOM      9  C   UNL d   1      27.981 -15.437   1.379  0.00  0.00     0.253 C 
ATOM     10  N   UNL d   1      29.524 -15.364   0.751  0.00  0.00     0.135 N 
ATOM     11  C   UNL d   1      29.390 -15.110  -1.042  0.00  0.00     0.386 C 
ATOM     12  H   UNL d   1      29.569 -16.360   1.197  0.00  0.00     0.321 HD
ENDROOT
BRANCH   1  13
ATOM     13  N   UNL d   1      29.682 -17.186  -2.512  0.00  0.00    -0.279 N 
ATOM     14  C   UNL d   1      30.086 -17.150  -3.838  0.00  0.00     0.232 C 
ATOM     15  O   UNL d   1      30.530 -18.113  -4.466  0.00  0.00    -0.272 OA
ATOM     16  H   UNL d   1      29.607 -18.154  -2.217  0.00  0.00     0.184 HD
BRANCH  14  17
ATOM     17  C   UNL d   1      30.097 -15.895  -4.538  0.00  0.00     0.108 C 
BRANCH  17  18
ATOM     18  C   UNL d   1      29.355 -15.943  -5.796  0.00  0.00     0.046 C 
BRANCH  18  19
ATOM     19  C   UNL d   1      28.883 -14.610  -5.519  0.00  0.00    -0.050 A 
ATOM     20  C   UNL d   1      27.607 -14.592  -4.498  0.00  0.00    -0.006 A 
ATOM     21  C   UNL d   1      26.708 -15.533  -3.799  0.00  0.00     0.014 C 
ATOM     22  C   UNL d   1      26.572 -13.221  -4.999  0.00  0.00     0.038 A 
ATOM     23  C   UNL d   1      25.497 -15.285  -3.213  0.00  0.00     0.001 C 
ATOM     24  C   UNL d   1      24.748 -14.077  -3.139  0.00  0.00     0.002 C 
ATOM     25  C   UNL d   1      25.189 -13.115  -3.903  0.00  0.00     0.030 C 
ATOM     26  N   UNL d   1      27.081 -12.329  -6.436  0.00  0.00    -0.385 N 
ATOM     27  C   UNL d   1      28.838 -13.129  -7.050  0.00  0.00     0.155 A 
ATOM     28  H   UNL d   1      27.060 -11.328  -6.674  0.00  0.00     0.160 HD
ENDBRANCH  18  19
ENDBRANCH  17  18
ENDBRANCH  14  17
ENDBRANCH   1  13
BRANCH  11  29
ATOM     29  S   UNL d   1      30.351 -13.894  -2.204  0.00  0.00    -0.112 SA
BRANCH  29  30
ATOM     30  C   UNL d   1      29.648 -11.898  -2.883  0.00  0.00     0.115 C 
BRANCH  30  31
ATOM     31  C   UNL d   1      27.956 -11.018  -2.435  0.00  0.00    -0.050 A 
ATOM     32  C   UNL d   1      26.709 -10.151  -3.834  0.00  0.00    -0.013 A 
ATOM     33  C   UNL d   1      25.638  -8.986  -3.635  0.00  0.00     0.028 A 
ATOM     34  C   UNL d   1      25.693  -8.311  -1.980  0.00  0.00     0.067 A 
ATOM     35  C   UNL d   1      26.836  -8.947  -0.581  0.00  0.00     0.100 A 
ATOM     36  F   UNL d   1      26.442  -9.018   0.708  0.00  0.00    -0.210 F 
ATOM     37  C   UNL d   1      27.931 -10.400  -0.796  0.00  0.00     0.045 A 
ENDBRANCH  30  31
ENDBRANCH  29  30
ENDBRANCH  11  29
TORSDOF 7
ENDMDL
MODEL 9
REMARK VINA RESULT:    -6.797      3.387      6.226
REMARK INTER + INTRA:         -12.359
REMARK INTER:                  -8.885
REMARK INTRA:                  -3.474
REMARK CONF_INDEPENDENT:        2.088
REMARK UNBOUND:                -3.474
REMARK  7 active torsions:
REMARK  status: ('A' for Active; 'I' for Inactive)
REMARK    1  A    between atoms: C_2  and  C_3 
REMARK       I    between atoms: C_2  and  N_14 
REMARK    2  A    between atoms: C_3  and  C_4 
REMARK    3  A    between atoms: C_4  and  C_5 
REMARK    4  A    between atoms: N_14  and  N_15 
REMARK    5  A    between atoms: C_25  and  S_26 
REMARK    6  A    between atoms: S_26  and  C_27 
REMARK    7  A    between atoms: C_27  and  C_28 
ROOT
ATOM      1  N   UNL d   1      29.074 -15.955  -0.354  0.00  0.00    -0.114 NA
ATOM      2  C   UNL d   1      27.883 -16.134   0.398  0.00  0.00     0.253 C 
ATOM      3  O   UNL d   1      27.643 -17.193   0.973  0.00  0.00    -0.272 OA
ATOM      4  C   UNL d   1      27.170 -14.767   0.788  0.00  0.00     0.051 C 
ATOM      5  C   UNL d   1      27.129 -13.612  -0.011  0.00  0.00     0.015 C 
ATOM      6  C   UNL d   1      27.100 -12.287   0.533  0.00  0.00     0.001 C 
ATOM      7  C   UNL d   1      26.953 -12.081   1.898  0.00  0.00    -0.001 C 
ATOM      8  C   UNL d   1      27.098 -13.180   2.718  0.00  0.00     0.023 C 
ATOM      9  C   UNL d   1      27.492 -14.408   2.084  0.00  0.00     0.253 C 
ATOM     10  N   UNL d   1      29.133 -14.704   2.058  0.00  0.00     0.135 N 
ATOM     11  C   UNL d   1      29.655 -14.829   0.323  0.00  0.00     0.386 C 
ATOM     12  H   UNL d   1      28.813 -15.574   2.635  0.00  0.00     0.321 HD
ENDROOT
BRANCH   1  13
ATOM     13  N   UNL d   1      29.956 -17.195  -0.608  0.00  0.00    -0.279 N 
ATOM     14  C   UNL d   1      30.401 -17.750  -1.799  0.00  0.00     0.232 C 
ATOM     15  O   UNL d   1      30.819 -18.902  -1.926  0.00  0.00    -0.272 OA
ATOM     16  H   UNL d   1      29.830 -17.936   0.074  0.00  0.00     0.184 HD
BRANCH  14  17
ATOM     17  C   UNL d   1      30.489 -16.925  -2.971  0.00  0.00     0.108 C 
BRANCH  17  18
ATOM     18  C   UNL d   1      30.075 -17.624  -4.187  0.00  0.00     0.046 C 
BRANCH  18  19
ATOM     19  C   UNL d   1      29.914 -16.339  -4.819  0.00  0.00    -0.050 A 
ATOM     20  C   UNL d   1      28.613 -15.520  -4.262  0.00  0.00    -0.006 A 
ATOM     21  C   UNL d   1      27.474 -15.704  -3.340  0.00  0.00     0.014 C 
ATOM     22  C   UNL d   1      27.966 -14.587  -5.645  0.00  0.00     0.038 A 
ATOM     23  C   UNL d   1      26.320 -14.976  -3.247  0.00  0.00     0.001 C 
ATOM     24  C   UNL d   1      25.874 -13.869  -4.023  0.00  0.00     0.002 C 
ATOM     25  C   UNL d   1      26.579 -13.638  -5.098  0.00  0.00     0.030 C 
ATOM     26  N   UNL d   1      28.764 -14.825  -7.202  0.00  0.00    -0.385 N 
ATOM     27  C   UNL d   1      30.319 -16.087  -6.896  0.00  0.00     0.155 A 
ATOM     28  H   UNL d   1      28.995 -14.178  -7.969  0.00  0.00     0.160 HD
ENDBRANCH  18  19
ENDBRANCH  17  18
ENDBRANCH  14  17
ENDBRANCH   1  13
BRANCH  11  29
ATOM     29  S   UNL d   1      31.183 -14.052  -0.578  0.00  0.00    -0.112 SA
BRANCH  29  30
ATOM     30  C   UNL d   1      31.129 -12.819  -2.426  0.00  0.00     0.115 C 
BRANCH  30  31
ATOM     31  C   UNL d   1      29.559 -12.363  -3.505  0.00  0.00    -0.050 A 
ATOM     32  C   UNL d   1      29.656 -11.772  -5.481  0.00  0.00    -0.013 A 
ATOM     33  C   UNL d   1      28.622 -10.889  -6.315  0.00  0.00     0.028 A 
ATOM     34  C   UNL d   1      27.305 -10.260  -5.282  0.00  0.00     0.067 A 
ATOM     35  C   UNL d   1      27.100 -10.651  -3.418  0.00  0.00     0.100 A 
ATOM     36  F   UNL d   1      25.896 -10.842  -2.840  0.00  0.00    -0.210 F 
ATOM     37  C   UNL d   1      28.211 -11.808  -2.533  0.00  0.00     0.045 A 
ENDBRANCH  30  31
ENDBRANCH  29  30
ENDBRANCH  11  29
TORSDOF 7
ENDMDL
