MODEL 1
REMARK VINA RESULT:    -7.020      0.000      0.000
REMARK INTER + INTRA:         -15.661
REMARK INTER:                 -10.599
REMARK INTRA:                  -5.062
REMARK CONF_INDEPENDENT:        3.580
REMARK UNBOUND:                -5.062
REMARK  12 active torsions:
REMARK  status: ('A' for Active; 'I' for Inactive)
REMARK    1  A    between atoms: O_2  and  C_3 
REMARK    2  A    between atoms: C_6  and  C_5 
REMARK    3  A    between atoms: C_6  and  N_18 
REMARK    4  A    between atoms: C_6  and  C_7 
REMARK       I    between atoms: C_7  and  N_9 
REMARK    5  A    between atoms: N_9  and  C_10 
REMARK    6  A    between atoms: C_10  and  C_13 
REMARK    7  A    between atoms: C_13  and  C_14 
REMARK       I    between atoms: N_18  and  C_19 
REMARK    8  A    between atoms: N_18  and  C_29 
REMARK    9  A    between atoms: C_19  and  C_21 
REMARK   10  A    between atoms: C_22  and  O_23 
REMARK   11  A    between atoms: C_27  and  O_28 
REMARK   12  A    between atoms: C_35  and  O_36 
ROOT
ATOM      1  C   UNL d   1      28.334 -16.438  -0.035  0.00  0.00     0.208 C 
ENDROOT
BRANCH   1   2
ATOM      2  N   UNL d   1      29.166 -16.051  -1.401  0.00  0.00    -0.322 N 
ATOM      3  C   UNL d   1      28.779 -15.311  -2.675  0.00  0.00     0.261 C 
ATOM      4  O   UNL d   1      29.386 -15.307  -3.746  0.00  0.00    -0.267 OA
BRANCH   3   5
ATOM      5  C   UNL d   1      27.601 -14.406  -2.873  0.00  0.00     0.098 C 
ATOM      6  C   UNL d   1      26.649 -14.480  -4.352  0.00  0.00     0.084 C 
ATOM      7  C   UNL d   1      25.906 -13.017  -4.997  0.00  0.00     0.038 C 
ATOM      8  C   UNL d   1      26.448 -11.375  -4.211  0.00  0.00     0.005 C 
ATOM      9  C   UNL d   1      27.323 -11.486  -2.561  0.00  0.00     0.038 C 
ATOM     10  C   UNL d   1      27.893 -12.969  -2.012  0.00  0.00     0.084 C 
BRANCH   6  11
ATOM     11  O   UNL d   1      27.168 -15.209  -5.463  0.00  0.00    -0.360 OA
ATOM     12  H   UNL d   1      28.010 -15.661  -5.280  0.00  0.00     0.217 HD
ENDBRANCH   6  11
BRANCH  10  13
ATOM     13  O   UNL d   1      28.563 -13.009  -0.806  0.00  0.00    -0.360 OA
ATOM     14  H   UNL d   1      28.083 -13.568  -0.172  0.00  0.00     0.217 HD
ENDBRANCH  10  13
ENDBRANCH   3   5
BRANCH   2  15
ATOM     15  C   UNL d   1      30.600 -16.533  -1.351  0.00  0.00     0.026 C 
ATOM     16  C   UNL d   1      30.785 -17.697  -2.330  0.00  0.00     0.037 C 
ATOM     17  C   UNL d   1      31.678 -15.501  -1.724  0.00  0.00     0.037 C 
ATOM     18  C   UNL d   1      30.993 -16.992   0.044  0.00  0.00     0.037 C 
ENDBRANCH   2  15
ENDBRANCH   1   2
BRANCH   1  19
ATOM     19  C   UNL d   1      27.850 -15.292   0.843  0.00  0.00     0.225 C 
ATOM     20  O   UNL d   1      26.737 -14.833   0.980  0.00  0.00    -0.277 OA
ATOM     21  N   UNL d   1      28.967 -14.929   1.421  0.00  0.00    -0.252 NA
ATOM     22  H   UNL d   1      29.315 -15.843   1.507  0.00  0.00     0.131 HD
BRANCH  21  23
ATOM     23  C   UNL d   1      29.112 -14.194   2.597  0.00  0.00     0.011 C 
ATOM     24  C   UNL d   1      30.840 -13.691   2.298  0.00  0.00     0.032 C 
ATOM     25  C   UNL d   1      28.490 -12.407   2.095  0.00  0.00     0.032 C 
BRANCH  23  26
ATOM     26  C   UNL d   1      28.508 -14.824   4.679  0.00  0.00     0.033 C 
BRANCH  26  27
ATOM     27  C   UNL d   1      28.941 -13.425   6.019  0.00  0.00    -0.050 C 
ATOM     28  C   UNL d   1      29.207 -14.068   7.659  0.00  0.00     0.014 C 
ATOM     29  C   UNL d   1      30.327 -12.539   5.682  0.00  0.00     0.014 C 
ATOM     30  C   UNL d   1      27.785 -12.548   6.073  0.00  0.00     0.014 C 
ENDBRANCH  26  27
ENDBRANCH  23  26
ENDBRANCH  21  23
ENDBRANCH   1  19
BRANCH   1  31
ATOM     31  C   UNL d   1      26.992 -17.042  -0.225  0.00  0.00    -0.024 C 
ATOM     32  C   UNL d   1      26.006 -16.374  -0.938  0.00  0.00     0.049 C 
ATOM     33  C   UNL d   1      24.769 -16.947  -1.100  0.00  0.00     0.101 C 
ATOM     34  C   UNL d   1      24.439 -18.033  -0.288  0.00  0.00     0.099 C 
ATOM     35  C   UNL d   1      25.360 -18.573   0.607  0.00  0.00     0.040 C 
ATOM     36  C   UNL d   1      26.655 -18.121   0.594  0.00  0.00     0.012 C 
BRANCH  33  37
ATOM     37  O   UNL d   1      24.029 -16.353  -2.080  0.00  0.00    -0.353 OA
ATOM     38  C   UNL d   1      24.426 -15.033  -2.395  0.00  0.00     0.210 C 
ENDBRANCH  33  37
BRANCH  34  39
ATOM     39  O   UNL d   1      23.186 -18.566  -0.341  0.00  0.00    -0.358 OA
ATOM     40  H   UNL d   1      22.650 -18.130  -1.016  0.00  0.00     0.217 HD
ENDBRANCH  34  39
ENDBRANCH   1  31
TORSDOF 12
ENDMDL
MODEL 2
REMARK VINA RESULT:    -6.689      0.756      1.090
REMARK INTER + INTRA:         -15.669
REMARK INTER:                 -10.269
REMARK INTRA:                  -5.400
REMARK CONF_INDEPENDENT:        3.580
REMARK UNBOUND:                -5.400
REMARK  12 active torsions:
REMARK  status: ('A' for Active; 'I' for Inactive)
REMARK    1  A    between atoms: O_2  and  C_3 
REMARK    2  A    between atoms: C_6  and  C_5 
REMARK    3  A    between atoms: C_6  and  N_18 
REMARK    4  A    between atoms: C_6  and  C_7 
REMARK       I    between atoms: C_7  and  N_9 
REMARK    5  A    between atoms: N_9  and  C_10 
REMARK    6  A    between atoms: C_10  and  C_13 
REMARK    7  A    between atoms: C_13  and  C_14 
REMARK       I    between atoms: N_18  and  C_19 
REMARK    8  A    between atoms: N_18  and  C_29 
REMARK    9  A    between atoms: C_19  and  C_21 
REMARK   10  A    between atoms: C_22  and  O_23 
REMARK   11  A    between atoms: C_27  and  O_28 
REMARK   12  A    between atoms: C_35  and  O_36 
ROOT
ATOM      1  C   UNL d   1      28.628 -16.686  -0.192  0.00  0.00     0.208 C 
ENDROOT
BRANCH   1   2
ATOM      2  N   UNL d   1      29.490 -16.458  -1.576  0.00  0.00    -0.322 N 
ATOM      3  C   UNL d   1      29.174 -15.755  -2.890  0.00  0.00     0.261 C 
ATOM      4  O   UNL d   1      29.775 -15.870  -3.958  0.00  0.00    -0.267 OA
BRANCH   3   5
ATOM      5  C   UNL d   1      28.090 -14.750  -3.140  0.00  0.00     0.098 C 
ATOM      6  C   UNL d   1      27.173 -14.773  -4.642  0.00  0.00     0.084 C 
ATOM      7  C   UNL d   1      26.585 -13.264  -5.340  0.00  0.00     0.038 C 
ATOM      8  C   UNL d   1      27.257 -11.660  -4.576  0.00  0.00     0.005 C 
ATOM      9  C   UNL d   1      28.077 -11.810  -2.901  0.00  0.00     0.038 C 
ATOM     10  C   UNL d   1      28.493 -13.325  -2.304  0.00  0.00     0.084 C 
BRANCH   6  11
ATOM     11  O   UNL d   1      27.649 -15.574  -5.722  0.00  0.00    -0.360 OA
ATOM     12  H   UNL d   1      28.602 -15.762  -5.683  0.00  0.00     0.217 HD
ENDBRANCH   6  11
BRANCH  10  13
ATOM     13  O   UNL d   1      29.127 -13.396  -1.080  0.00  0.00    -0.360 OA
ATOM     14  H   UNL d   1      28.513 -13.726  -0.401  0.00  0.00     0.217 HD
ENDBRANCH  10  13
ENDBRANCH   3   5
BRANCH   2  15
ATOM     15  C   UNL d   1      30.870 -17.076  -1.496  0.00  0.00     0.026 C 
ATOM     16  C   UNL d   1      31.918 -16.054  -1.949  0.00  0.00     0.037 C 
ATOM     17  C   UNL d   1      31.323 -17.547  -0.105  0.00  0.00     0.037 C 
ATOM     18  C   UNL d   1      30.983 -18.318  -2.364  0.00  0.00     0.037 C 
ENDBRANCH   2  15
ENDBRANCH   1   2
BRANCH   1  19
ATOM     19  C   UNL d   1      28.337 -15.461   0.665  0.00  0.00     0.225 C 
ATOM     20  O   UNL d   1      27.277 -14.969   0.982  0.00  0.00    -0.277 OA
ATOM     21  N   UNL d   1      29.550 -15.077   0.974  0.00  0.00    -0.252 NA
ATOM     22  H   UNL d   1      29.903 -15.987   1.065  0.00  0.00     0.131 HD
BRANCH  21  23
ATOM     23  C   UNL d   1      29.932 -14.251   2.030  0.00  0.00     0.011 C 
ATOM     24  C   UNL d   1      31.377 -13.520   1.191  0.00  0.00     0.032 C 
ATOM     25  C   UNL d   1      28.906 -12.612   1.721  0.00  0.00     0.032 C 
BRANCH  23  26
ATOM     26  C   UNL d   1      30.113 -14.822   4.207  0.00  0.00     0.033 C 
BRANCH  26  27
ATOM     27  C   UNL d   1      28.742 -13.911   5.317  0.00  0.00    -0.050 C 
ATOM     28  C   UNL d   1      28.905 -14.240   7.060  0.00  0.00     0.014 C 
ATOM     29  C   UNL d   1      28.748 -12.236   5.200  0.00  0.00     0.014 C 
ATOM     30  C   UNL d   1      27.460 -14.440   4.888  0.00  0.00     0.014 C 
ENDBRANCH  26  27
ENDBRANCH  23  26
ENDBRANCH  21  23
ENDBRANCH   1  19
BRANCH   1  31
ATOM     31  C   UNL d   1      27.208 -17.082  -0.355  0.00  0.00    -0.024 C 
ATOM     32  C   UNL d   1      26.359 -16.362  -1.184  0.00  0.00     0.049 C 
ATOM     33  C   UNL d   1      25.046 -16.742  -1.318  0.00  0.00     0.101 C 
ATOM     34  C   UNL d   1      24.526 -17.641  -0.386  0.00  0.00     0.099 C 
ATOM     35  C   UNL d   1      25.329 -18.200   0.605  0.00  0.00     0.040 C 
ATOM     36  C   UNL d   1      26.682 -17.972   0.583  0.00  0.00     0.012 C 
BRANCH  33  37
ATOM     37  O   UNL d   1      24.432 -16.171  -2.394  0.00  0.00    -0.353 OA
ATOM     38  C   UNL d   1      24.760 -14.811  -2.603  0.00  0.00     0.210 C 
ENDBRANCH  33  37
BRANCH  34  39
ATOM     39  O   UNL d   1      23.202 -17.964  -0.418  0.00  0.00    -0.358 OA
ATOM     40  H   UNL d   1      22.760 -17.548  -1.169  0.00  0.00     0.217 HD
ENDBRANCH  34  39
ENDBRANCH   1  31
TORSDOF 12
ENDMDL
MODEL 3
REMARK VINA RESULT:    -6.449      1.241      2.308
REMARK INTER + INTRA:         -14.872
REMARK INTER:                 -10.028
REMARK INTRA:                  -4.844
REMARK CONF_INDEPENDENT:        3.580
REMARK UNBOUND:                -4.844
REMARK  12 active torsions:
REMARK  status: ('A' for Active; 'I' for Inactive)
REMARK    1  A    between atoms: O_2  and  C_3 
REMARK    2  A    between atoms: C_6  and  C_5 
REMARK    3  A    between atoms: C_6  and  N_18 
REMARK    4  A    between atoms: C_6  and  C_7 
REMARK       I    between atoms: C_7  and  N_9 
REMARK    5  A    between atoms: N_9  and  C_10 
REMARK    6  A    between atoms: C_10  and  C_13 
REMARK    7  A    between atoms: C_13  and  C_14 
REMARK       I    between atoms: N_18  and  C_19 
REMARK    8  A    between atoms: N_18  and  C_29 
REMARK    9  A    between atoms: C_19  and  C_21 
REMARK   10  A    between atoms: C_22  and  O_23 
REMARK   11  A    between atoms: C_27  and  O_28 
REMARK   12  A    between atoms: C_35  and  O_36 
ROOT
ATOM      1  C   UNL d   1      28.505 -16.279  -0.030  0.00  0.00     0.208 C 
ENDROOT
BRANCH   1   2
ATOM      2  N   UNL d   1      29.285 -15.960  -1.445  0.00  0.00    -0.322 N 
ATOM      3  C   UNL d   1      28.856 -15.264  -2.730  0.00  0.00     0.261 C 
ATOM      4  O   UNL d   1      29.417 -15.312  -3.825  0.00  0.00    -0.267 OA
BRANCH   3   5
ATOM      5  C   UNL d   1      27.684 -14.347  -2.915  0.00  0.00     0.098 C 
ATOM      6  C   UNL d   1      26.686 -14.446  -4.361  0.00  0.00     0.084 C 
ATOM      7  C   UNL d   1      25.943 -12.989  -5.021  0.00  0.00     0.038 C 
ATOM      8  C   UNL d   1      26.532 -11.335  -4.295  0.00  0.00     0.005 C 
ATOM      9  C   UNL d   1      27.457 -11.417  -2.671  0.00  0.00     0.038 C 
ATOM     10  C   UNL d   1      28.024 -12.893  -2.101  0.00  0.00     0.084 C 
BRANCH   6  11
ATOM     11  O   UNL d   1      27.160 -15.210  -5.468  0.00  0.00    -0.360 OA
ATOM     12  H   UNL d   1      28.129 -15.233  -5.546  0.00  0.00     0.217 HD
ENDBRANCH   6  11
BRANCH  10  13
ATOM     13  O   UNL d   1      28.731 -12.911  -0.917  0.00  0.00    -0.360 OA
ATOM     14  H   UNL d   1      28.199 -13.319  -0.212  0.00  0.00     0.217 HD
ENDBRANCH  10  13
ENDBRANCH   3   5
BRANCH   2  15
ATOM     15  C   UNL d   1      30.712 -16.464  -1.434  0.00  0.00     0.026 C 
ATOM     16  C   UNL d   1      31.048 -17.027  -0.050  0.00  0.00     0.037 C 
ATOM     17  C   UNL d   1      31.043 -17.587  -2.431  0.00  0.00     0.037 C 
ATOM     18  C   UNL d   1      31.702 -15.363  -1.774  0.00  0.00     0.037 C 
ENDBRANCH   2  15
ENDBRANCH   1   2
BRANCH   1  19
ATOM     19  C   UNL d   1      28.000 -15.092   0.778  0.00  0.00     0.225 C 
ATOM     20  O   UNL d   1      26.875 -14.659   0.906  0.00  0.00    -0.277 OA
ATOM     21  N   UNL d   1      29.115 -14.657   1.309  0.00  0.00    -0.252 NA
ATOM     22  H   UNL d   1      29.493 -15.551   1.449  0.00  0.00     0.131 HD
BRANCH  21  23
ATOM     23  C   UNL d   1      29.256 -13.840   2.430  0.00  0.00     0.011 C 
ATOM     24  C   UNL d   1      28.160 -14.813   3.516  0.00  0.00     0.032 C 
ATOM     25  C   UNL d   1      30.829 -14.577   3.334  0.00  0.00     0.032 C 
BRANCH  23  26
ATOM     26  C   UNL d   1      29.132 -11.587   2.497  0.00  0.00     0.033 C 
BRANCH  26  27
ATOM     27  C   UNL d   1      27.367 -10.934   1.867  0.00  0.00    -0.050 C 
ATOM     28  C   UNL d   1      26.611  -9.753   2.966  0.00  0.00     0.014 C 
ATOM     29  C   UNL d   1      27.399 -10.163   0.375  0.00  0.00     0.014 C 
ATOM     30  C   UNL d   1      26.503 -12.099   1.812  0.00  0.00     0.014 C 
ENDBRANCH  26  27
ENDBRANCH  23  26
ENDBRANCH  21  23
ENDBRANCH   1  19
BRANCH   1  31
ATOM     31  C   UNL d   1      27.183 -16.944  -0.139  0.00  0.00    -0.024 C 
ATOM     32  C   UNL d   1      26.168 -16.389  -0.906  0.00  0.00     0.049 C 
ATOM     33  C   UNL d   1      24.950 -17.018  -0.990  0.00  0.00     0.101 C 
ATOM     34  C   UNL d   1      24.665 -18.022  -0.064  0.00  0.00     0.099 C 
ATOM     35  C   UNL d   1      25.613 -18.432   0.871  0.00  0.00     0.040 C 
ATOM     36  C   UNL d   1      26.892 -17.941   0.794  0.00  0.00     0.012 C 
BRANCH  33  37
ATOM     37  O   UNL d   1      24.181 -16.556  -2.018  0.00  0.00    -0.353 OA
ATOM     38  C   UNL d   1      24.405 -15.201  -2.355  0.00  0.00     0.210 C 
ENDBRANCH  33  37
BRANCH  34  39
ATOM     39  O   UNL d   1      23.431 -18.599  -0.044  0.00  0.00    -0.358 OA
ATOM     40  H   UNL d   1      23.394 -19.320   0.598  0.00  0.00     0.217 HD
ENDBRANCH  34  39
ENDBRANCH   1  31
TORSDOF 12
ENDMDL
MODEL 4
REMARK VINA RESULT:    -6.176      2.065      3.490
REMARK INTER + INTRA:         -14.597
REMARK INTER:                  -9.755
REMARK INTRA:                  -4.842
REMARK CONF_INDEPENDENT:        3.580
REMARK UNBOUND:                -4.842
REMARK  12 active torsions:
REMARK  status: ('A' for Active; 'I' for Inactive)
REMARK    1  A    between atoms: O_2  and  C_3 
REMARK    2  A    between atoms: C_6  and  C_5 
REMARK    3  A    between atoms: C_6  and  N_18 
REMARK    4  A    between atoms: C_6  and  C_7 
REMARK       I    between atoms: C_7  and  N_9 
REMARK    5  A    between atoms: N_9  and  C_10 
REMARK    6  A    between atoms: C_10  and  C_13 
REMARK    7  A    between atoms: C_13  and  C_14 
REMARK       I    between atoms: N_18  and  C_19 
REMARK    8  A    between atoms: N_18  and  C_29 
REMARK    9  A    between atoms: C_19  and  C_21 
REMARK   10  A    between atoms: C_22  and  O_23 
REMARK   11  A    between atoms: C_27  and  O_28 
REMARK   12  A    between atoms: C_35  and  O_36 
ROOT
ATOM      1  C   UNL d   1      27.283 -14.507  -1.783  0.00  0.00     0.208 C 
ENDROOT
BRANCH   1   2
ATOM      2  N   UNL d   1      27.079 -13.815  -3.263  0.00  0.00    -0.322 N 
ATOM      3  C   UNL d   1      26.712 -12.405  -3.706  0.00  0.00     0.261 C 
ATOM      4  O   UNL d   1      26.320 -12.053  -4.818  0.00  0.00    -0.267 OA
BRANCH   3   5
ATOM      5  C   UNL d   1      26.788 -11.151  -2.887  0.00  0.00     0.098 C 
ATOM      6  C   UNL d   1      25.625  -9.852  -3.123  0.00  0.00     0.084 C 
ATOM      7  C   UNL d   1      26.117  -8.174  -2.895  0.00  0.00     0.038 C 
ATOM      8  C   UNL d   1      27.981  -7.857  -2.710  0.00  0.00     0.005 C 
ATOM      9  C   UNL d   1      29.047  -9.343  -2.316  0.00  0.00     0.038 C 
ATOM     10  C   UNL d   1      28.418 -10.894  -2.475  0.00  0.00     0.084 C 
BRANCH   6  11
ATOM     11  O   UNL d   1      24.785  -9.887  -4.276  0.00  0.00    -0.360 OA
ATOM     12  H   UNL d   1      24.780 -10.744  -4.734  0.00  0.00     0.217 HD
ENDBRANCH   6  11
BRANCH  10  13
ATOM     13  O   UNL d   1      29.243 -11.967  -2.208  0.00  0.00    -0.360 OA
ATOM     14  H   UNL d   1      28.816 -12.572  -1.578  0.00  0.00     0.217 HD
ENDBRANCH  10  13
ENDBRANCH   3   5
BRANCH   2  15
ATOM     15  C   UNL d   1      27.316 -14.799  -4.389  0.00  0.00     0.026 C 
ATOM     16  C   UNL d   1      25.975 -15.369  -4.863  0.00  0.00     0.037 C 
ATOM     17  C   UNL d   1      27.998 -14.240  -5.648  0.00  0.00     0.037 C 
ATOM     18  C   UNL d   1      28.216 -15.945  -3.957  0.00  0.00     0.037 C 
ENDBRANCH   2  15
ENDBRANCH   1   2
BRANCH   1  19
ATOM     19  C   UNL d   1      27.268 -13.588  -0.569  0.00  0.00     0.225 C 
ATOM     20  O   UNL d   1      26.443 -12.772  -0.221  0.00  0.00    -0.277 OA
ATOM     21  N   UNL d   1      28.395 -13.918   0.010  0.00  0.00    -0.252 NA
ATOM     22  H   UNL d   1      28.323 -14.872  -0.208  0.00  0.00     0.131 HD
BRANCH  21  23
ATOM     23  C   UNL d   1      28.759 -13.703   1.339  0.00  0.00     0.011 C 
ATOM     24  C   UNL d   1      30.197 -14.825   1.329  0.00  0.00     0.032 C 
ATOM     25  C   UNL d   1      29.950 -12.152   1.240  0.00  0.00     0.032 C 
BRANCH  23  26
ATOM     26  C   UNL d   1      27.396 -13.700   3.139  0.00  0.00     0.033 C 
BRANCH  26  27
ATOM     27  C   UNL d   1      28.426 -13.795   4.833  0.00  0.00    -0.050 C 
ATOM     28  C   UNL d   1      30.103 -13.213   4.681  0.00  0.00     0.014 C 
ATOM     29  C   UNL d   1      27.780 -12.896   6.095  0.00  0.00     0.014 C 
ATOM     30  C   UNL d   1      28.480 -15.200   5.194  0.00  0.00     0.014 C 
ENDBRANCH  26  27
ENDBRANCH  23  26
ENDBRANCH  21  23
ENDBRANCH   1  19
BRANCH   1  31
ATOM     31  C   UNL d   1      26.187 -15.384  -1.305  0.00  0.00    -0.024 C 
ATOM     32  C   UNL d   1      26.460 -16.523  -0.560  0.00  0.00     0.049 C 
ATOM     33  C   UNL d   1      25.432 -17.325  -0.131  0.00  0.00     0.101 C 
ATOM     34  C   UNL d   1      24.176 -17.149  -0.713  0.00  0.00     0.099 C 
ATOM     35  C   UNL d   1      23.947 -16.139  -1.645  0.00  0.00     0.040 C 
ATOM     36  C   UNL d   1      24.932 -15.217  -1.894  0.00  0.00     0.012 C 
BRANCH  33  37
ATOM     37  O   UNL d   1      25.808 -18.196   0.849  0.00  0.00    -0.353 OA
ATOM     38  C   UNL d   1      27.031 -18.862   0.605  0.00  0.00     0.210 C 
ENDBRANCH  33  37
BRANCH  34  39
ATOM     39  O   UNL d   1      23.153 -17.991  -0.394  0.00  0.00    -0.358 OA
ATOM     40  H   UNL d   1      23.411 -18.600   0.311  0.00  0.00     0.217 HD
ENDBRANCH  34  39
ENDBRANCH   1  31
TORSDOF 12
ENDMDL
MODEL 5
REMARK VINA RESULT:    -5.947      1.276      1.907
REMARK INTER + INTRA:         -15.248
REMARK INTER:                  -9.527
REMARK INTRA:                  -5.721
REMARK CONF_INDEPENDENT:        3.580
REMARK UNBOUND:                -5.721
REMARK  12 active torsions:
REMARK  status: ('A' for Active; 'I' for Inactive)
REMARK    1  A    between atoms: O_2  and  C_3 
REMARK    2  A    between atoms: C_6  and  C_5 
REMARK    3  A    between atoms: C_6  and  N_18 
REMARK    4  A    between atoms: C_6  and  C_7 
REMARK       I    between atoms: C_7  and  N_9 
REMARK    5  A    between atoms: N_9  and  C_10 
REMARK    6  A    between atoms: C_10  and  C_13 
REMARK    7  A    between atoms: C_13  and  C_14 
REMARK       I    between atoms: N_18  and  C_19 
REMARK    8  A    between atoms: N_18  and  C_29 
REMARK    9  A    between atoms: C_19  and  C_21 
REMARK   10  A    between atoms: C_22  and  O_23 
REMARK   11  A    between atoms: C_27  and  O_28 
REMARK   12  A    between atoms: C_35  and  O_36 
ROOT
ATOM      1  C   UNL d   1      28.714 -16.899  -0.485  0.00  0.00     0.208 C 
ENDROOT
BRANCH   1   2
ATOM      2  N   UNL d   1      29.398 -16.699  -1.969  0.00  0.00    -0.322 N 
ATOM      3  C   UNL d   1      28.993 -15.895  -3.197  0.00  0.00     0.261 C 
ATOM      4  O   UNL d   1      29.422 -16.021  -4.344  0.00  0.00    -0.267 OA
BRANCH   3   5
ATOM      5  C   UNL d   1      28.015 -14.759  -3.252  0.00  0.00     0.098 C 
ATOM      6  C   UNL d   1      26.897 -14.601  -4.602  0.00  0.00     0.084 C 
ATOM      7  C   UNL d   1      26.406 -13.001  -5.157  0.00  0.00     0.038 C 
ATOM      8  C   UNL d   1      27.372 -11.526  -4.451  0.00  0.00     0.005 C 
ATOM      9  C   UNL d   1      28.397 -11.854  -2.921  0.00  0.00     0.038 C 
ATOM     10  C   UNL d   1      28.706 -13.434  -2.440  0.00  0.00     0.084 C 
BRANCH   6  11
ATOM     11  O   UNL d   1      27.113 -15.398  -5.765  0.00  0.00    -0.360 OA
ATOM     12  H   UNL d   1      28.046 -15.621  -5.924  0.00  0.00     0.217 HD
ENDBRANCH   6  11
BRANCH  10  13
ATOM     13  O   UNL d   1      29.494 -13.639  -1.326  0.00  0.00    -0.360 OA
ATOM     14  H   UNL d   1      28.947 -13.917  -0.572  0.00  0.00     0.217 HD
ENDBRANCH  10  13
ENDBRANCH   3   5
BRANCH   2  15
ATOM     15  C   UNL d   1      30.690 -17.476  -2.110  0.00  0.00     0.026 C 
ATOM     16  C   UNL d   1      30.891 -18.366  -0.878  0.00  0.00     0.037 C 
ATOM     17  C   UNL d   1      30.788 -18.417  -3.322  0.00  0.00     0.037 C 
ATOM     18  C   UNL d   1      31.890 -16.556  -2.257  0.00  0.00     0.037 C 
ENDBRANCH   2  15
ENDBRANCH   1   2
BRANCH   1  19
ATOM     19  C   UNL d   1      28.617 -15.675   0.416  0.00  0.00     0.225 C 
ATOM     20  O   UNL d   1      27.645 -15.046   0.772  0.00  0.00    -0.277 OA
ATOM     21  N   UNL d   1      29.878 -15.481   0.712  0.00  0.00    -0.252 NA
ATOM     22  H   UNL d   1      30.097 -16.436   0.767  0.00  0.00     0.131 HD
BRANCH  21  23
ATOM     23  C   UNL d   1      30.393 -14.756   1.785  0.00  0.00     0.011 C 
ATOM     24  C   UNL d   1      31.906 -15.756   1.985  0.00  0.00     0.032 C 
ATOM     25  C   UNL d   1      31.429 -13.337   0.920  0.00  0.00     0.032 C 
BRANCH  23  26
ATOM     26  C   UNL d   1      29.283 -14.084   3.632  0.00  0.00     0.033 C 
BRANCH  26  27
ATOM     27  C   UNL d   1      28.093 -12.543   3.248  0.00  0.00    -0.050 C 
ATOM     28  C   UNL d   1      28.838 -11.313   2.196  0.00  0.00     0.014 C 
ATOM     29  C   UNL d   1      26.656 -12.943   2.476  0.00  0.00     0.014 C 
ATOM     30  C   UNL d   1      27.817 -11.917   4.529  0.00  0.00     0.014 C 
ENDBRANCH  26  27
ENDBRANCH  23  26
ENDBRANCH  21  23
ENDBRANCH   1  19
BRANCH   1  31
ATOM     31  C   UNL d   1      27.262 -17.203  -0.461  0.00  0.00    -0.024 C 
ATOM     32  C   UNL d   1      26.361 -16.430  -1.180  0.00  0.00     0.049 C 
ATOM     33  C   UNL d   1      25.021 -16.725  -1.141  0.00  0.00     0.101 C 
ATOM     34  C   UNL d   1      24.568 -17.589  -0.144  0.00  0.00     0.099 C 
ATOM     35  C   UNL d   1      25.455 -18.200   0.739  0.00  0.00     0.040 C 
ATOM     36  C   UNL d   1      26.806 -18.059   0.543  0.00  0.00     0.012 C 
BRANCH  33  37
ATOM     37  O   UNL d   1      24.312 -16.114  -2.134  0.00  0.00    -0.353 OA
ATOM     38  C   UNL d   1      24.721 -14.791  -2.419  0.00  0.00     0.210 C 
ENDBRANCH  33  37
BRANCH  34  39
ATOM     39  O   UNL d   1      23.234 -17.827  -0.004  0.00  0.00    -0.358 OA
ATOM     40  H   UNL d   1      22.734 -17.456  -0.743  0.00  0.00     0.217 HD
ENDBRANCH  34  39
ENDBRANCH   1  31
TORSDOF 12
ENDMDL
MODEL 6
REMARK VINA RESULT:    -5.938      2.150      6.478
REMARK INTER + INTRA:         -14.787
REMARK INTER:                  -9.517
REMARK INTRA:                  -5.269
REMARK CONF_INDEPENDENT:        3.580
REMARK UNBOUND:                -5.269
REMARK  12 active torsions:
REMARK  status: ('A' for Active; 'I' for Inactive)
REMARK    1  A    between atoms: O_2  and  C_3 
REMARK    2  A    between atoms: C_6  and  C_5 
REMARK    3  A    between atoms: C_6  and  N_18 
REMARK    4  A    between atoms: C_6  and  C_7 
REMARK       I    between atoms: C_7  and  N_9 
REMARK    5  A    between atoms: N_9  and  C_10 
REMARK    6  A    between atoms: C_10  and  C_13 
REMARK    7  A    between atoms: C_13  and  C_14 
REMARK       I    between atoms: N_18  and  C_19 
REMARK    8  A    between atoms: N_18  and  C_29 
REMARK    9  A    between atoms: C_19  and  C_21 
REMARK   10  A    between atoms: C_22  and  O_23 
REMARK   11  A    between atoms: C_27  and  O_28 
REMARK   12  A    between atoms: C_35  and  O_36 
ROOT
ATOM      1  C   UNL d   1      27.127 -14.740  -0.900  0.00  0.00     0.208 C 
ENDROOT
BRANCH   1   2
ATOM      2  N   UNL d   1      28.387 -14.610   0.151  0.00  0.00    -0.322 N 
ATOM      3  C   UNL d   1      29.843 -15.052   0.083  0.00  0.00     0.261 C 
ATOM      4  O   UNL d   1      30.635 -15.151   1.020  0.00  0.00    -0.267 OA
BRANCH   3   5
ATOM      5  C   UNL d   1      30.620 -15.419  -1.145  0.00  0.00     0.098 C 
ATOM      6  C   UNL d   1      30.658 -14.345  -2.539  0.00  0.00     0.084 C 
ATOM      7  C   UNL d   1      30.764 -15.015  -4.167  0.00  0.00     0.038 C 
ATOM      8  C   UNL d   1      30.514 -16.892  -4.328  0.00  0.00     0.005 C 
ATOM      9  C   UNL d   1      30.654 -17.892  -2.752  0.00  0.00     0.038 C 
ATOM     10  C   UNL d   1      30.645 -17.115  -1.262  0.00  0.00     0.084 C 
BRANCH   6  11
ATOM     11  O   UNL d   1      29.730 -13.263  -2.594  0.00  0.00    -0.360 OA
ATOM     12  H   UNL d   1      28.889 -13.486  -3.029  0.00  0.00     0.217 HD
ENDBRANCH   6  11
BRANCH  10  13
ATOM     13  O   UNL d   1      30.716 -17.887  -0.120  0.00  0.00    -0.360 OA
ATOM     14  H   UNL d   1      30.237 -17.456   0.608  0.00  0.00     0.217 HD
ENDBRANCH  10  13
ENDBRANCH   3   5
BRANCH   2  15
ATOM     15  C   UNL d   1      27.992 -13.901   1.429  0.00  0.00     0.026 C 
ATOM     16  C   UNL d   1      28.925 -12.708   1.664  0.00  0.00     0.037 C 
ATOM     17  C   UNL d   1      26.565 -13.328   1.475  0.00  0.00     0.037 C 
ATOM     18  C   UNL d   1      28.058 -14.826   2.632  0.00  0.00     0.037 C 
ENDBRANCH   2  15
ENDBRANCH   1   2
BRANCH   1  19
ATOM     19  C   UNL d   1      27.457 -14.883  -2.380  0.00  0.00     0.225 C 
ATOM     20  O   UNL d   1      28.146 -15.702  -2.947  0.00  0.00    -0.277 OA
ATOM     21  N   UNL d   1      26.789 -13.877  -2.885  0.00  0.00    -0.252 NA
ATOM     22  H   UNL d   1      26.026 -13.971  -2.276  0.00  0.00     0.131 HD
BRANCH  21  23
ATOM     23  C   UNL d   1      26.392 -13.705  -4.210  0.00  0.00     0.011 C 
ATOM     24  C   UNL d   1      24.626 -14.071  -3.930  0.00  0.00     0.032 C 
ATOM     25  C   UNL d   1      25.993 -11.791  -4.320  0.00  0.00     0.032 C 
BRANCH  23  26
ATOM     26  C   UNL d   1      27.396 -14.539  -6.051  0.00  0.00     0.033 C 
BRANCH  26  27
ATOM     27  C   UNL d   1      28.760 -13.288  -6.769  0.00  0.00    -0.050 C 
ATOM     28  C   UNL d   1      28.170 -12.290  -8.122  0.00  0.00     0.014 C 
ATOM     29  C   UNL d   1      29.348 -12.180  -5.652  0.00  0.00     0.014 C 
ATOM     30  C   UNL d   1      29.841 -14.115  -7.272  0.00  0.00     0.014 C 
ENDBRANCH  26  27
ENDBRANCH  23  26
ENDBRANCH  21  23
ENDBRANCH   1  19
BRANCH   1  31
ATOM     31  C   UNL d   1      26.321 -15.983  -0.818  0.00  0.00    -0.024 C 
ATOM     32  C   UNL d   1      24.937 -15.941  -0.901  0.00  0.00     0.049 C 
ATOM     33  C   UNL d   1      24.208 -17.102  -0.818  0.00  0.00     0.101 C 
ATOM     34  C   UNL d   1      24.851 -18.246  -0.343  0.00  0.00     0.099 C 
ATOM     35  C   UNL d   1      26.209 -18.236  -0.035  0.00  0.00     0.040 C 
ATOM     36  C   UNL d   1      26.959 -17.126  -0.332  0.00  0.00     0.012 C 
BRANCH  33  37
ATOM     37  O   UNL d   1      22.921 -16.955  -1.244  0.00  0.00    -0.353 OA
ATOM     38  C   UNL d   1      21.986 -17.784  -0.582  0.00  0.00     0.210 C 
ENDBRANCH  33  37
BRANCH  34  39
ATOM     39  O   UNL d   1      24.141 -19.392  -0.145  0.00  0.00    -0.358 OA
ATOM     40  H   UNL d   1      23.519 -19.295   0.588  0.00  0.00     0.217 HD
ENDBRANCH  34  39
ENDBRANCH   1  31
TORSDOF 12
ENDMDL
MODEL 7
REMARK VINA RESULT:    -5.801      2.119      6.438
REMARK INTER + INTRA:         -14.674
REMARK INTER:                  -9.381
REMARK INTRA:                  -5.293
REMARK CONF_INDEPENDENT:        3.580
REMARK UNBOUND:                -5.293
REMARK  12 active torsions:
REMARK  status: ('A' for Active; 'I' for Inactive)
REMARK    1  A    between atoms: O_2  and  C_3 
REMARK    2  A    between atoms: C_6  and  C_5 
REMARK    3  A    between atoms: C_6  and  N_18 
REMARK    4  A    between atoms: C_6  and  C_7 
REMARK       I    between atoms: C_7  and  N_9 
REMARK    5  A    between atoms: N_9  and  C_10 
REMARK    6  A    between atoms: C_10  and  C_13 
REMARK    7  A    between atoms: C_13  and  C_14 
REMARK       I    between atoms: N_18  and  C_19 
REMARK    8  A    between atoms: N_18  and  C_29 
REMARK    9  A    between atoms: C_19  and  C_21 
REMARK   10  A    between atoms: C_22  and  O_23 
REMARK   11  A    between atoms: C_27  and  O_28 
REMARK   12  A    between atoms: C_35  and  O_36 
ROOT
ATOM      1  C   UNL d   1      26.911 -14.725  -0.715  0.00  0.00     0.208 C 
ENDROOT
BRANCH   1   2
ATOM      2  N   UNL d   1      28.110 -14.533   0.397  0.00  0.00    -0.322 N 
ATOM      3  C   UNL d   1      29.520 -15.096   0.507  0.00  0.00     0.261 C 
ATOM      4  O   UNL d   1      30.240 -15.110   1.505  0.00  0.00    -0.267 OA
BRANCH   3   5
ATOM      5  C   UNL d   1      30.335 -15.715  -0.589  0.00  0.00     0.098 C 
ATOM      6  C   UNL d   1      31.399 -17.077  -0.259  0.00  0.00     0.084 C 
ATOM      7  C   UNL d   1      32.903 -17.261  -1.160  0.00  0.00     0.038 C 
ATOM      8  C   UNL d   1      33.435 -15.784  -2.230  0.00  0.00     0.005 C 
ATOM      9  C   UNL d   1      32.123 -14.503  -2.598  0.00  0.00     0.038 C 
ATOM     10  C   UNL d   1      30.683 -14.503  -1.731  0.00  0.00     0.084 C 
BRANCH   6  11
ATOM     11  O   UNL d   1      31.684 -17.408   1.099  0.00  0.00    -0.360 OA
ATOM     12  H   UNL d   1      31.016 -17.092   1.731  0.00  0.00     0.217 HD
ENDBRANCH   6  11
BRANCH  10  13
ATOM     13  O   UNL d   1      29.751 -13.523  -2.006  0.00  0.00    -0.360 OA
ATOM     14  H   UNL d   1      29.030 -13.885  -2.549  0.00  0.00     0.217 HD
ENDBRANCH  10  13
ENDBRANCH   3   5
BRANCH   2  15
ATOM     15  C   UNL d   1      27.703 -13.600   1.518  0.00  0.00     0.026 C 
ATOM     16  C   UNL d   1      28.625 -12.377   1.528  0.00  0.00     0.037 C 
ATOM     17  C   UNL d   1      26.272 -13.042   1.452  0.00  0.00     0.037 C 
ATOM     18  C   UNL d   1      27.772 -14.283   2.873  0.00  0.00     0.037 C 
ENDBRANCH   2  15
ENDBRANCH   1   2
BRANCH   1  19
ATOM     19  C   UNL d   1      27.323 -14.936  -2.165  0.00  0.00     0.225 C 
ATOM     20  O   UNL d   1      27.966 -15.831  -2.668  0.00  0.00    -0.277 OA
ATOM     21  N   UNL d   1      26.789 -13.885  -2.734  0.00  0.00    -0.252 NA
ATOM     22  H   UNL d   1      25.982 -13.891  -2.177  0.00  0.00     0.131 HD
BRANCH  21  23
ATOM     23  C   UNL d   1      26.499 -13.710  -4.086  0.00  0.00     0.011 C 
ATOM     24  C   UNL d   1      24.685 -13.701  -3.894  0.00  0.00     0.032 C 
ATOM     25  C   UNL d   1      26.499 -11.764  -4.303  0.00  0.00     0.032 C 
BRANCH  23  26
ATOM     26  C   UNL d   1      27.402 -14.827  -5.828  0.00  0.00     0.033 C 
BRANCH  26  27
ATOM     27  C   UNL d   1      29.383 -14.881  -5.712  0.00  0.00    -0.050 C 
ATOM     28  C   UNL d   1      30.093 -13.418  -4.982  0.00  0.00     0.014 C 
ATOM     29  C   UNL d   1      29.995 -16.149  -4.798  0.00  0.00     0.014 C 
ATOM     30  C   UNL d   1      29.864 -14.968  -7.078  0.00  0.00     0.014 C 
ENDBRANCH  26  27
ENDBRANCH  23  26
ENDBRANCH  21  23
ENDBRANCH   1  19
BRANCH   1  31
ATOM     31  C   UNL d   1      26.109 -15.970  -0.616  0.00  0.00    -0.024 C 
ATOM     32  C   UNL d   1      24.737 -15.951  -0.823  0.00  0.00     0.049 C 
ATOM     33  C   UNL d   1      24.013 -17.113  -0.723  0.00  0.00     0.101 C 
ATOM     34  C   UNL d   1      24.619 -18.213  -0.115  0.00  0.00     0.099 C 
ATOM     35  C   UNL d   1      25.944 -18.164   0.309  0.00  0.00     0.040 C 
ATOM     36  C   UNL d   1      26.710 -17.068   0.002  0.00  0.00     0.012 C 
BRANCH  33  37
ATOM     37  O   UNL d   1      22.766 -17.013  -1.269  0.00  0.00    -0.353 OA
ATOM     38  C   UNL d   1      21.797 -17.853  -0.675  0.00  0.00     0.210 C 
ENDBRANCH  33  37
BRANCH  34  39
ATOM     39  O   UNL d   1      23.902 -19.352   0.100  0.00  0.00    -0.358 OA
ATOM     40  H   UNL d   1      23.307 -19.252   0.854  0.00  0.00     0.217 HD
ENDBRANCH  34  39
ENDBRANCH   1  31
TORSDOF 12
ENDMDL
MODEL 8
REMARK VINA RESULT:    -5.635      1.959      3.218
REMARK INTER + INTRA:         -15.478
REMARK INTER:                  -9.215
REMARK INTRA:                  -6.264
REMARK CONF_INDEPENDENT:        3.580
REMARK UNBOUND:                -6.264
REMARK  12 active torsions:
REMARK  status: ('A' for Active; 'I' for Inactive)
REMARK    1  A    between atoms: O_2  and  C_3 
REMARK    2  A    between atoms: C_6  and  C_5 
REMARK    3  A    between atoms: C_6  and  N_18 
REMARK    4  A    between atoms: C_6  and  C_7 
REMARK       I    between atoms: C_7  and  N_9 
REMARK    5  A    between atoms: N_9  and  C_10 
REMARK    6  A    between atoms: C_10  and  C_13 
REMARK    7  A    between atoms: C_13  and  C_14 
REMARK       I    between atoms: N_18  and  C_19 
REMARK    8  A    between atoms: N_18  and  C_29 
REMARK    9  A    between atoms: C_19  and  C_21 
REMARK   10  A    between atoms: C_22  and  O_23 
REMARK   11  A    between atoms: C_27  and  O_28 
REMARK   12  A    between atoms: C_35  and  O_36 
ROOT
ATOM      1  C   UNL d   1      29.193 -16.005  -2.202  0.00  0.00     0.208 C 
ENDROOT
BRANCH   1   2
ATOM      2  N   UNL d   1      29.314 -16.049  -3.843  0.00  0.00    -0.322 N 
ATOM      3  C   UNL d   1      28.545 -15.352  -4.957  0.00  0.00     0.261 C 
ATOM      4  O   UNL d   1      28.529 -15.653  -6.151  0.00  0.00    -0.267 OA
BRANCH   3   5
ATOM      5  C   UNL d   1      27.680 -14.134  -4.834  0.00  0.00     0.098 C 
ATOM      6  C   UNL d   1      28.311 -12.652  -4.124  0.00  0.00     0.084 C 
ATOM      7  C   UNL d   1      27.245 -11.591  -3.204  0.00  0.00     0.038 C 
ATOM      8  C   UNL d   1      25.530 -12.284  -2.770  0.00  0.00     0.005 C 
ATOM      9  C   UNL d   1      24.966 -13.784  -3.735  0.00  0.00     0.038 C 
ATOM     10  C   UNL d   1      26.069 -14.650  -4.661  0.00  0.00     0.084 C 
BRANCH   6  11
ATOM     11  O   UNL d   1      29.553 -12.704  -3.424  0.00  0.00    -0.360 OA
ATOM     12  H   UNL d   1      29.460 -12.849  -2.467  0.00  0.00     0.217 HD
ENDBRANCH   6  11
BRANCH  10  13
ATOM     13  O   UNL d   1      25.625 -15.771  -5.332  0.00  0.00    -0.360 OA
ATOM     14  H   UNL d   1      26.373 -16.235  -5.745  0.00  0.00     0.217 HD
ENDBRANCH  10  13
ENDBRANCH   3   5
BRANCH   2  15
ATOM     15  C   UNL d   1      30.423 -16.969  -4.308  0.00  0.00     0.026 C 
ATOM     16  C   UNL d   1      30.970 -17.758  -3.114  0.00  0.00     0.037 C 
ATOM     17  C   UNL d   1      30.035 -18.023  -5.359  0.00  0.00     0.037 C 
ATOM     18  C   UNL d   1      31.561 -16.199  -4.956  0.00  0.00     0.037 C 
ENDBRANCH   2  15
ENDBRANCH   1   2
BRANCH   1  19
ATOM     19  C   UNL d   1      28.921 -14.655  -1.552  0.00  0.00     0.225 C 
ATOM     20  O   UNL d   1      27.897 -14.010  -1.497  0.00  0.00    -0.277 OA
ATOM     21  N   UNL d   1      30.100 -14.370  -1.059  0.00  0.00    -0.252 NA
ATOM     22  H   UNL d   1      30.308 -15.295  -0.805  0.00  0.00     0.131 HD
BRANCH  21  23
ATOM     23  C   UNL d   1      30.397 -13.463  -0.044  0.00  0.00     0.011 C 
ATOM     24  C   UNL d   1      31.550 -14.551   0.858  0.00  0.00     0.032 C 
ATOM     25  C   UNL d   1      31.904 -12.444  -0.770  0.00  0.00     0.032 C 
BRANCH  23  26
ATOM     26  C   UNL d   1      28.932 -12.216   1.137  0.00  0.00     0.033 C 
BRANCH  26  27
ATOM     27  C   UNL d   1      27.534 -13.341   1.986  0.00  0.00    -0.050 C 
ATOM     28  C   UNL d   1      27.781 -15.088   1.741  0.00  0.00     0.014 C 
ATOM     29  C   UNL d   1      27.408 -13.162   3.651  0.00  0.00     0.014 C 
ATOM     30  C   UNL d   1      26.282 -12.980   1.346  0.00  0.00     0.014 C 
ENDBRANCH  26  27
ENDBRANCH  23  26
ENDBRANCH  21  23
ENDBRANCH   1  19
BRANCH   1  31
ATOM     31  C   UNL d   1      28.017 -16.684  -1.606  0.00  0.00    -0.024 C 
ATOM     32  C   UNL d   1      26.727 -16.320  -1.965  0.00  0.00     0.049 C 
ATOM     33  C   UNL d   1      25.651 -16.958  -1.399  0.00  0.00     0.101 C 
ATOM     34  C   UNL d   1      25.873 -17.731  -0.259  0.00  0.00     0.099 C 
ATOM     35  C   UNL d   1      27.156 -17.917   0.249  0.00  0.00     0.040 C 
ATOM     36  C   UNL d   1      28.235 -17.449  -0.458  0.00  0.00     0.012 C 
BRANCH  33  37
ATOM     37  O   UNL d   1      24.486 -16.742  -2.076  0.00  0.00    -0.353 OA
ATOM     38  C   UNL d   1      23.411 -16.307  -1.267  0.00  0.00     0.210 C 
ENDBRANCH  33  37
BRANCH  34  39
ATOM     39  O   UNL d   1      24.820 -18.296   0.396  0.00  0.00    -0.358 OA
ATOM     40  H   UNL d   1      24.097 -18.496  -0.213  0.00  0.00     0.217 HD
ENDBRANCH  34  39
ENDBRANCH   1  31
TORSDOF 12
ENDMDL
MODEL 9
REMARK VINA RESULT:    -5.272      1.960      5.111
REMARK INTER + INTRA:         -14.450
REMARK INTER:                  -8.851
REMARK INTRA:                  -5.599
REMARK CONF_INDEPENDENT:        3.580
REMARK UNBOUND:                -5.599
REMARK  12 active torsions:
REMARK  status: ('A' for Active; 'I' for Inactive)
REMARK    1  A    between atoms: O_2  and  C_3 
REMARK    2  A    between atoms: C_6  and  C_5 
REMARK    3  A    between atoms: C_6  and  N_18 
REMARK    4  A    between atoms: C_6  and  C_7 
REMARK       I    between atoms: C_7  and  N_9 
REMARK    5  A    between atoms: N_9  and  C_10 
REMARK    6  A    between atoms: C_10  and  C_13 
REMARK    7  A    between atoms: C_13  and  C_14 
REMARK       I    between atoms: N_18  and  C_19 
REMARK    8  A    between atoms: N_18  and  C_29 
REMARK    9  A    between atoms: C_19  and  C_21 
REMARK   10  A    between atoms: C_22  and  O_23 
REMARK   11  A    between atoms: C_27  and  O_28 
REMARK   12  A    between atoms: C_35  and  O_36 
ROOT
ATOM      1  C   UNL d   1      27.428 -15.755  -0.227  0.00  0.00     0.208 C 
ENDROOT
BRANCH   1   2
ATOM      2  N   UNL d   1      26.222 -15.751  -1.347  0.00  0.00    -0.322 N 
ATOM      3  C   UNL d   1      25.975 -14.921  -2.600  0.00  0.00     0.261 C 
ATOM      4  O   UNL d   1      24.918 -14.807  -3.220  0.00  0.00    -0.267 OA
BRANCH   3   5
ATOM      5  C   UNL d   1      26.979 -14.104  -3.357  0.00  0.00     0.098 C 
ATOM      6  C   UNL d   1      26.533 -12.550  -4.052  0.00  0.00     0.084 C 
ATOM      7  C   UNL d   1      27.278 -12.009  -5.555  0.00  0.00     0.038 C 
ATOM      8  C   UNL d   1      28.301 -13.298  -6.505  0.00  0.00     0.005 C 
ATOM      9  C   UNL d   1      28.809 -14.827  -5.554  0.00  0.00     0.038 C 
ATOM     10  C   UNL d   1      28.090 -15.173  -4.074  0.00  0.00     0.084 C 
BRANCH   6  11
ATOM     11  O   UNL d   1      25.150 -12.205  -4.124  0.00  0.00    -0.360 OA
ATOM     12  H   UNL d   1      24.565 -12.960  -4.309  0.00  0.00     0.217 HD
ENDBRANCH   6  11
BRANCH  10  13
ATOM     13  O   UNL d   1      28.465 -16.327  -3.417  0.00  0.00    -0.360 OA
ATOM     14  H   UNL d   1      29.045 -16.115  -2.667  0.00  0.00     0.217 HD
ENDBRANCH  10  13
ENDBRANCH   3   5
BRANCH   2  15
ATOM     15  C   UNL d   1      25.166 -16.795  -1.051  0.00  0.00     0.026 C 
ATOM     16  C   UNL d   1      24.713 -17.452  -2.359  0.00  0.00     0.037 C 
ATOM     17  C   UNL d   1      25.592 -17.950  -0.130  0.00  0.00     0.037 C 
ATOM     18  C   UNL d   1      23.957 -16.192  -0.355  0.00  0.00     0.037 C 
ENDBRANCH   2  15
ENDBRANCH   1   2
BRANCH   1  19
ATOM     19  C   UNL d   1      28.850 -15.528  -0.722  0.00  0.00     0.225 C 
ATOM     20  O   UNL d   1      29.355 -14.543  -1.213  0.00  0.00    -0.277 OA
ATOM     21  N   UNL d   1      29.392 -16.693  -0.472  0.00  0.00    -0.252 NA
ATOM     22  H   UNL d   1      28.905 -16.831   0.369  0.00  0.00     0.131 HD
BRANCH  21  23
ATOM     23  C   UNL d   1      30.750 -16.987  -0.353  0.00  0.00     0.011 C 
ATOM     24  C   UNL d   1      30.621 -18.722  -0.902  0.00  0.00     0.032 C 
ATOM     25  C   UNL d   1      31.481 -16.474  -2.096  0.00  0.00     0.032 C 
BRANCH  23  26
ATOM     26  C   UNL d   1      32.101 -16.495   1.388  0.00  0.00     0.033 C 
BRANCH  26  27
ATOM     27  C   UNL d   1      32.296 -14.534   1.629  0.00  0.00    -0.050 C 
ATOM     28  C   UNL d   1      31.573 -13.928   3.141  0.00  0.00     0.014 C 
ATOM     29  C   UNL d   1      33.883 -13.990   1.672  0.00  0.00     0.014 C 
ATOM     30  C   UNL d   1      31.583 -13.920   0.524  0.00  0.00     0.014 C 
ENDBRANCH  26  27
ENDBRANCH  23  26
ENDBRANCH  21  23
ENDBRANCH   1  19
BRANCH   1  31
ATOM     31  C   UNL d   1      27.437 -14.630   0.740  0.00  0.00    -0.024 C 
ATOM     32  C   UNL d   1      27.926 -14.801   2.028  0.00  0.00     0.049 C 
ATOM     33  C   UNL d   1      27.921 -13.749   2.909  0.00  0.00     0.101 C 
ATOM     34  C   UNL d   1      27.148 -12.632   2.592  0.00  0.00     0.099 C 
ATOM     35  C   UNL d   1      26.461 -12.548   1.383  0.00  0.00     0.040 C 
ATOM     36  C   UNL d   1      26.655 -13.516   0.430  0.00  0.00     0.012 C 
BRANCH  33  37
ATOM     37  O   UNL d   1      28.719 -13.960   3.996  0.00  0.00    -0.353 OA
ATOM     38  C   UNL d   1      28.195 -14.872   4.939  0.00  0.00     0.210 C 
ENDBRANCH  33  37
BRANCH  34  39
ATOM     39  O   UNL d   1      27.031 -11.609   3.485  0.00  0.00    -0.358 OA
ATOM     40  H   UNL d   1      27.587 -11.759   4.261  0.00  0.00     0.217 HD
ENDBRANCH  34  39
ENDBRANCH   1  31
TORSDOF 12
ENDMDL
