MODEL 1
REMARK VINA RESULT:   -29.813      0.000      0.000
REMARK INTER + INTRA:         -36.018
REMARK INTER:                 -32.796
REMARK INTRA:                  -3.223
REMARK CONF_INDEPENDENT:        2.983
REMARK UNBOUND:                -3.223
REMARK  10 active torsions:
REMARK  status: ('A' for Active; 'I' for Inactive)
REMARK    1  A    between atoms: N_2  and  C_4 
REMARK    2  A    between atoms: C_4  and  C_5 
REMARK    3  A    between atoms: C_6  and  C_7 
REMARK       I    between atoms: C_7  and  N_9 
REMARK    4  A    between atoms: N_9  and  N_10 
REMARK    5  A    between atoms: C_11  and  C_12 
REMARK    6  A    between atoms: C_16  and  O_17 
REMARK    7  A    between atoms: O_17  and  C_18 
REMARK    8  A    between atoms: C_18  and  C_19 
REMARK    9  A    between atoms: N_30  and  C_31 
REMARK   10  A    between atoms: C_35  and  N_36 
ROOT
ATOM      1  C   UNL d   1      26.993 -16.915  -0.422  0.00  0.00     0.293 C 
ATOM      2  O   UNL d   1      27.249 -15.720  -0.614  0.00  0.00    -0.264 OA
ATOM      3  N   UNL d   1      28.030 -17.875  -0.327  0.00  0.00    -0.242 N 
ATOM      4  H   UNL d   1      27.856 -18.857  -0.237  0.00  0.00     0.192 HD
ENDROOT
BRANCH   1   5
ATOM      5  C   UNL d   1      25.552 -17.344  -0.257  0.00  0.00     0.170 A 
ATOM      6  C   UNL d   1      24.333 -16.931  -0.815  0.00  0.00     0.096 A 
ATOM      7  N   UNL d   1      23.334 -17.735  -0.213  0.00  0.00    -0.215 N 
ATOM      8  N   UNL d   1      23.939 -18.581   0.643  0.00  0.00     0.012 NA
ATOM      9  N   UNL d   1      25.251 -18.402   0.582  0.00  0.00    -0.152 NA
BRANCH   6  10
ATOM     10  C   UNL d   1      23.992 -15.844  -1.752  0.00  0.00     0.295 C 
BRANCH  10  11
ATOM     11  N   UNL d   1      25.195 -15.174  -2.360  0.00  0.00    -0.073 N 
ATOM     12  C   UNL d   1      25.826 -15.949  -3.479  0.00  0.00     0.269 C 
ATOM     13  C   UNL d   1      25.014 -13.727  -2.715  0.00  0.00     0.269 C 
ATOM     14  H   UNL d   1      25.924 -15.224  -1.623  0.00  0.00     0.279 HD
ENDBRANCH  10  11
ENDBRANCH   6  10
BRANCH   7  15
ATOM     15  C   UNL d   1      21.945 -17.836  -0.548  0.00  0.00     0.219 A 
ATOM     16  N   UNL d   1      21.257 -16.799  -1.030  0.00  0.00    -0.082 NA
ATOM     17  O   UNL d   1      19.974 -17.323  -1.272  0.00  0.00    -0.103 OA
ATOM     18  N   UNL d   1      19.901 -18.669  -0.896  0.00  0.00    -0.089 NA
ATOM     19  C   UNL d   1      21.104 -18.953  -0.414  0.00  0.00     0.180 A 
BRANCH  19  20
ATOM     20  N   UNL d   1      21.437 -20.121   0.208  0.00  0.00    -0.282 NA
ATOM     21  H   UNL d   1      20.981 -20.185   1.128  0.00  0.00     0.126 HD
ATOM     22  H   UNL d   1      22.447 -20.184   0.384  0.00  0.00     0.126 HD
ENDBRANCH  19  20
ENDBRANCH   7  15
ENDBRANCH   1   5
BRANCH   3  23
ATOM     23  N   UNL d   1      29.381 -17.508  -0.449  0.00  0.00    -0.183 NA
ATOM     24  C   UNL d   1      29.701 -16.643  -1.376  0.00  0.00     0.150 C 
BRANCH  24  25
ATOM     25  C   UNL d   1      31.099 -16.169  -1.646  0.00  0.00    -0.014 A 
ATOM     26  C   UNL d   1      32.016 -15.944  -0.607  0.00  0.00     0.013 A 
ATOM     27  C   UNL d   1      33.244 -15.313  -0.869  0.00  0.00     0.004 A 
ATOM     28  C   UNL d   1      33.580 -14.947  -2.172  0.00  0.00     0.037 A 
ATOM     29  C   UNL d   1      32.680 -15.191  -3.212  0.00  0.00     0.070 A 
ATOM     30  C   UNL d   1      31.449 -15.809  -2.944  0.00  0.00     0.049 A 
BRANCH  29  31
ATOM     31  O   UNL d   1      33.076 -14.754  -4.448  0.00  0.00    -0.346 OA
BRANCH  31  32
ATOM     32  C   UNL d   1      32.718 -15.608  -5.541  0.00  0.00     0.219 C 
BRANCH  32  33
ATOM     33  C   UNL d   1      31.391 -15.175  -6.086  0.00  0.00     0.026 A 
ATOM     34  C   UNL d   1      31.278 -13.909  -6.666  0.00  0.00     0.126 A 
ATOM     35  F   UNL d   1      32.378 -13.175  -6.892  0.00  0.00    -0.205 F 
ATOM     36  C   UNL d   1      30.043 -13.382  -7.027  0.00  0.00     0.043 A 
ATOM     37  C   UNL d   1      28.900 -14.167  -6.902  0.00  0.00     0.005 A 
ATOM     38  C   UNL d   1      29.002 -15.465  -6.403  0.00  0.00     0.024 A 
ATOM     39  C   UNL d   1      30.240 -15.968  -5.998  0.00  0.00     0.045 A 
ATOM     40 CL   UNL d   1      30.274 -17.597  -5.411  0.00  0.00    -0.084 Cl
ENDBRANCH  32  33
ENDBRANCH  31  32
ENDBRANCH  29  31
ENDBRANCH  24  25
ENDBRANCH   3  23
TORSDOF 10
ENDMDL
MODEL 2
REMARK VINA RESULT:   -29.723      1.839      2.281
REMARK INTER + INTRA:         -35.715
REMARK INTER:                 -32.706
REMARK INTRA:                  -3.009
REMARK CONF_INDEPENDENT:        2.983
REMARK UNBOUND:                -3.009
REMARK  10 active torsions:
REMARK  status: ('A' for Active; 'I' for Inactive)
REMARK    1  A    between atoms: N_2  and  C_4 
REMARK    2  A    between atoms: C_4  and  C_5 
REMARK    3  A    between atoms: C_6  and  C_7 
REMARK       I    between atoms: C_7  and  N_9 
REMARK    4  A    between atoms: N_9  and  N_10 
REMARK    5  A    between atoms: C_11  and  C_12 
REMARK    6  A    between atoms: C_16  and  O_17 
REMARK    7  A    between atoms: O_17  and  C_18 
REMARK    8  A    between atoms: C_18  and  C_19 
REMARK    9  A    between atoms: N_30  and  C_31 
REMARK   10  A    between atoms: C_35  and  N_36 
ROOT
ATOM      1  C   UNL d   1      26.905 -16.793  -0.269  0.00  0.00     0.293 C 
ATOM      2  O   UNL d   1      27.118 -15.575  -0.224  0.00  0.00    -0.264 OA
ATOM      3  N   UNL d   1      27.973 -17.714  -0.396  0.00  0.00    -0.242 N 
ATOM      4  H   UNL d   1      27.832 -18.699  -0.501  0.00  0.00     0.192 HD
ENDROOT
BRANCH   1   5
ATOM      5  C   UNL d   1      25.483 -17.298  -0.156  0.00  0.00     0.170 A 
ATOM      6  C   UNL d   1      24.249 -16.889  -0.682  0.00  0.00     0.096 A 
ATOM      7  N   UNL d   1      23.285 -17.789  -0.166  0.00  0.00    -0.215 N 
ATOM      8  N   UNL d   1      23.924 -18.684   0.612  0.00  0.00     0.012 NA
ATOM      9  N   UNL d   1      25.227 -18.443   0.578  0.00  0.00    -0.152 NA
BRANCH   6  10
ATOM     10  C   UNL d   1      23.864 -15.736  -1.518  0.00  0.00     0.295 C 
BRANCH  10  11
ATOM     11  N   UNL d   1      24.990 -15.199  -2.359  0.00  0.00    -0.073 N 
ATOM     12  C   UNL d   1      25.733 -16.251  -3.129  0.00  0.00     0.269 C 
ATOM     13  C   UNL d   1      24.643 -14.018  -3.219  0.00  0.00     0.269 C 
ATOM     14  H   UNL d   1      25.704 -14.886  -1.674  0.00  0.00     0.279 HD
ENDBRANCH  10  11
ENDBRANCH   6  10
BRANCH   7  15
ATOM     15  C   UNL d   1      21.903 -17.920  -0.520  0.00  0.00     0.219 A 
ATOM     16  N   UNL d   1      21.199 -16.898  -1.009  0.00  0.00    -0.082 NA
ATOM     17  O   UNL d   1      19.932 -17.449  -1.270  0.00  0.00    -0.103 OA
ATOM     18  N   UNL d   1      19.882 -18.796  -0.895  0.00  0.00    -0.089 NA
ATOM     19  C   UNL d   1      21.085 -19.054  -0.397  0.00  0.00     0.180 A 
BRANCH  19  20
ATOM     20  N   UNL d   1      21.435 -20.216   0.228  0.00  0.00    -0.282 NA
ATOM     21  H   UNL d   1      21.026 -20.257   1.171  0.00  0.00     0.126 HD
ATOM     22  H   UNL d   1      22.452 -20.290   0.352  0.00  0.00     0.126 HD
ENDBRANCH  19  20
ENDBRANCH   7  15
ENDBRANCH   1   5
BRANCH   3  23
ATOM     23  N   UNL d   1      29.307 -17.280  -0.477  0.00  0.00    -0.183 NA
ATOM     24  C   UNL d   1      29.857 -17.203  -1.661  0.00  0.00     0.150 C 
BRANCH  24  25
ATOM     25  C   UNL d   1      31.275 -16.781  -1.910  0.00  0.00    -0.014 A 
ATOM     26  C   UNL d   1      31.949 -15.906  -1.043  0.00  0.00     0.013 A 
ATOM     27  C   UNL d   1      33.197 -15.371  -1.403  0.00  0.00     0.004 A 
ATOM     28  C   UNL d   1      33.798 -15.743  -2.606  0.00  0.00     0.037 A 
ATOM     29  C   UNL d   1      33.142 -16.633  -3.460  0.00  0.00     0.070 A 
ATOM     30  C   UNL d   1      31.889 -17.153  -3.103  0.00  0.00     0.049 A 
BRANCH  29  31
ATOM     31  O   UNL d   1      33.786 -16.901  -4.638  0.00  0.00    -0.346 OA
BRANCH  31  32
ATOM     32  C   UNL d   1      33.152 -16.381  -5.814  0.00  0.00     0.219 C 
BRANCH  32  33
ATOM     33  C   UNL d   1      32.597 -17.519  -6.613  0.00  0.00     0.026 A 
ATOM     34  C   UNL d   1      33.478 -18.463  -7.150  0.00  0.00     0.126 A 
ATOM     35  F   UNL d   1      34.772 -18.445  -6.799  0.00  0.00    -0.205 F 
ATOM     36  C   UNL d   1      33.043 -19.436  -8.043  0.00  0.00     0.043 A 
ATOM     37  C   UNL d   1      31.687 -19.542  -8.337  0.00  0.00     0.005 A 
ATOM     38  C   UNL d   1      30.780 -18.663  -7.747  0.00  0.00     0.024 A 
ATOM     39  C   UNL d   1      31.230 -17.657  -6.890  0.00  0.00     0.045 A 
ATOM     40 CL   UNL d   1      30.030 -16.626  -6.186  0.00  0.00    -0.084 Cl
ENDBRANCH  32  33
ENDBRANCH  31  32
ENDBRANCH  29  31
ENDBRANCH  24  25
ENDBRANCH   3  23
TORSDOF 10
ENDMDL
MODEL 3
REMARK VINA RESULT:   -29.700      2.519      2.865
REMARK INTER + INTRA:         -35.845
REMARK INTER:                 -32.683
REMARK INTRA:                  -3.161
REMARK CONF_INDEPENDENT:        2.983
REMARK UNBOUND:                -3.161
REMARK  10 active torsions:
REMARK  status: ('A' for Active; 'I' for Inactive)
REMARK    1  A    between atoms: N_2  and  C_4 
REMARK    2  A    between atoms: C_4  and  C_5 
REMARK    3  A    between atoms: C_6  and  C_7 
REMARK       I    between atoms: C_7  and  N_9 
REMARK    4  A    between atoms: N_9  and  N_10 
REMARK    5  A    between atoms: C_11  and  C_12 
REMARK    6  A    between atoms: C_16  and  O_17 
REMARK    7  A    between atoms: O_17  and  C_18 
REMARK    8  A    between atoms: C_18  and  C_19 
REMARK    9  A    between atoms: N_30  and  C_31 
REMARK   10  A    between atoms: C_35  and  N_36 
ROOT
ATOM      1  C   UNL d   1      27.004 -16.906  -0.548  0.00  0.00     0.293 C 
ATOM      2  O   UNL d   1      27.261 -15.802  -1.044  0.00  0.00    -0.264 OA
ATOM      3  N   UNL d   1      28.042 -17.782  -0.147  0.00  0.00    -0.242 N 
ATOM      4  H   UNL d   1      27.871 -18.707   0.197  0.00  0.00     0.192 HD
ENDROOT
BRANCH   1   5
ATOM      5  C   UNL d   1      25.560 -17.304  -0.340  0.00  0.00     0.170 A 
ATOM      6  C   UNL d   1      24.341 -16.923  -0.922  0.00  0.00     0.096 A 
ATOM      7  N   UNL d   1      23.338 -17.667  -0.253  0.00  0.00    -0.215 N 
ATOM      8  N   UNL d   1      23.940 -18.449   0.664  0.00  0.00     0.012 NA
ATOM      9  N   UNL d   1      25.254 -18.291   0.581  0.00  0.00    -0.152 NA
BRANCH   6  10
ATOM     10  C   UNL d   1      24.006 -15.910  -1.940  0.00  0.00     0.295 C 
BRANCH  10  11
ATOM     11  N   UNL d   1      25.202 -15.159  -2.459  0.00  0.00    -0.073 N 
ATOM     12  C   UNL d   1      25.932 -15.860  -3.566  0.00  0.00     0.269 C 
ATOM     13  C   UNL d   1      24.963 -13.711  -2.776  0.00  0.00     0.269 C 
ATOM     14  H   UNL d   1      25.892 -15.198  -1.685  0.00  0.00     0.279 HD
ENDBRANCH  10  11
ENDBRANCH   6  10
BRANCH   7  15
ATOM     15  C   UNL d   1      21.946 -17.778  -0.570  0.00  0.00     0.219 A 
ATOM     16  N   UNL d   1      21.242 -16.746  -1.038  0.00  0.00    -0.082 NA
ATOM     17  O   UNL d   1      19.962 -17.280  -1.266  0.00  0.00    -0.103 OA
ATOM     18  N   UNL d   1      19.905 -18.627  -0.895  0.00  0.00    -0.089 NA
ATOM     19  C   UNL d   1      21.117 -18.903  -0.430  0.00  0.00     0.180 A 
BRANCH  19  20
ATOM     20  N   UNL d   1      21.468 -20.072   0.182  0.00  0.00    -0.282 NA
ATOM     21  H   UNL d   1      21.007 -20.153   1.098  0.00  0.00     0.126 HD
ATOM     22  H   UNL d   1      22.478 -20.117   0.364  0.00  0.00     0.126 HD
ENDBRANCH  19  20
ENDBRANCH   7  15
ENDBRANCH   1   5
BRANCH   3  23
ATOM     23  N   UNL d   1      29.395 -17.433  -0.301  0.00  0.00    -0.183 NA
ATOM     24  C   UNL d   1      29.916 -17.506  -1.497  0.00  0.00     0.150 C 
BRANCH  24  25
ATOM     25  C   UNL d   1      31.347 -17.189  -1.819  0.00  0.00    -0.014 A 
ATOM     26  C   UNL d   1      31.894 -15.918  -1.579  0.00  0.00     0.013 A 
ATOM     27  C   UNL d   1      33.169 -15.590  -2.071  0.00  0.00     0.004 A 
ATOM     28  C   UNL d   1      33.919 -16.542  -2.762  0.00  0.00     0.037 A 
ATOM     29  C   UNL d   1      33.388 -17.815  -2.982  0.00  0.00     0.070 A 
ATOM     30  C   UNL d   1      32.109 -18.134  -2.500  0.00  0.00     0.049 A 
BRANCH  29  31
ATOM     31  O   UNL d   1      34.177 -18.664  -3.710  0.00  0.00    -0.346 OA
BRANCH  31  32
ATOM     32  C   UNL d   1      33.616 -19.960  -3.954  0.00  0.00     0.219 C 
BRANCH  32  33
ATOM     33  C   UNL d   1      32.804 -19.912  -5.212  0.00  0.00     0.026 A 
ATOM     34  C   UNL d   1      33.355 -19.318  -6.351  0.00  0.00     0.126 A 
ATOM     35  F   UNL d   1      34.649 -18.964  -6.363  0.00  0.00    -0.205 F 
ATOM     36  C   UNL d   1      32.592 -19.085  -7.490  0.00  0.00     0.043 A 
ATOM     37  C   UNL d   1      31.278 -19.541  -7.541  0.00  0.00     0.005 A 
ATOM     38  C   UNL d   1      30.735 -20.211  -6.446  0.00  0.00     0.024 A 
ATOM     39  C   UNL d   1      31.492 -20.397  -5.288  0.00  0.00     0.045 A 
ATOM     40 CL   UNL d   1      30.743 -21.260  -3.986  0.00  0.00    -0.084 Cl
ENDBRANCH  32  33
ENDBRANCH  31  32
ENDBRANCH  29  31
ENDBRANCH  24  25
ENDBRANCH   3  23
TORSDOF 10
ENDMDL
MODEL 4
REMARK VINA RESULT:   -29.590      4.043      5.792
REMARK INTER + INTRA:         -35.693
REMARK INTER:                 -32.573
REMARK INTRA:                  -3.120
REMARK CONF_INDEPENDENT:        2.983
REMARK UNBOUND:                -3.120
REMARK  10 active torsions:
REMARK  status: ('A' for Active; 'I' for Inactive)
REMARK    1  A    between atoms: N_2  and  C_4 
REMARK    2  A    between atoms: C_4  and  C_5 
REMARK    3  A    between atoms: C_6  and  C_7 
REMARK       I    between atoms: C_7  and  N_9 
REMARK    4  A    between atoms: N_9  and  N_10 
REMARK    5  A    between atoms: C_11  and  C_12 
REMARK    6  A    between atoms: C_16  and  O_17 
REMARK    7  A    between atoms: O_17  and  C_18 
REMARK    8  A    between atoms: C_18  and  C_19 
REMARK    9  A    between atoms: N_30  and  C_31 
REMARK   10  A    between atoms: C_35  and  N_36 
ROOT
ATOM      1  C   UNL d   1      26.947 -16.839  -0.460  0.00  0.00     0.293 C 
ATOM      2  O   UNL d   1      27.180 -15.629  -0.568  0.00  0.00    -0.264 OA
ATOM      3  N   UNL d   1      27.999 -17.787  -0.472  0.00  0.00    -0.242 N 
ATOM      4  H   UNL d   1      27.842 -18.775  -0.452  0.00  0.00     0.192 HD
ENDROOT
BRANCH   1   5
ATOM      5  C   UNL d   1      25.517 -17.303  -0.283  0.00  0.00     0.170 A 
ATOM      6  C   UNL d   1      24.287 -16.932  -0.845  0.00  0.00     0.096 A 
ATOM      7  N   UNL d   1      23.311 -17.751  -0.227  0.00  0.00    -0.215 N 
ATOM      8  N   UNL d   1      23.940 -18.566   0.642  0.00  0.00     0.012 NA
ATOM      9  N   UNL d   1      25.247 -18.354   0.574  0.00  0.00    -0.152 NA
BRANCH   6  10
ATOM     10  C   UNL d   1      23.916 -15.871  -1.800  0.00  0.00     0.295 C 
BRANCH  10  11
ATOM     11  N   UNL d   1      25.096 -15.126  -2.361  0.00  0.00    -0.073 N 
ATOM     12  C   UNL d   1      25.858 -15.884  -3.407  0.00  0.00     0.269 C 
ATOM     13  C   UNL d   1      24.821 -13.712  -2.785  0.00  0.00     0.269 C 
ATOM     14  H   UNL d   1      25.778 -15.088  -1.579  0.00  0.00     0.279 HD
ENDBRANCH  10  11
ENDBRANCH   6  10
BRANCH   7  15
ATOM     15  C   UNL d   1      21.924 -17.895  -0.555  0.00  0.00     0.219 A 
ATOM     16  N   UNL d   1      21.202 -16.879  -1.032  0.00  0.00    -0.082 NA
ATOM     17  O   UNL d   1      19.936 -17.442  -1.270  0.00  0.00    -0.103 OA
ATOM     18  N   UNL d   1      19.905 -18.789  -0.895  0.00  0.00    -0.089 NA
ATOM     19  C   UNL d   1      21.119 -19.037  -0.419  0.00  0.00     0.180 A 
BRANCH  19  20
ATOM     20  N   UNL d   1      21.490 -20.196   0.199  0.00  0.00    -0.282 NA
ATOM     21  H   UNL d   1      20.985 -20.310   1.088  0.00  0.00     0.126 HD
ATOM     22  H   UNL d   1      22.490 -20.197   0.435  0.00  0.00     0.126 HD
ENDBRANCH  19  20
ENDBRANCH   7  15
ENDBRANCH   1   5
BRANCH   3  23
ATOM     23  N   UNL d   1      29.341 -17.389  -0.608  0.00  0.00    -0.183 NA
ATOM     24  C   UNL d   1      30.255 -18.321  -0.667  0.00  0.00     0.150 C 
BRANCH  24  25
ATOM     25  C   UNL d   1      31.727 -18.058  -0.788  0.00  0.00    -0.014 A 
ATOM     26  C   UNL d   1      32.304 -17.636  -1.997  0.00  0.00     0.013 A 
ATOM     27  C   UNL d   1      33.701 -17.591  -2.138  0.00  0.00     0.004 A 
ATOM     28  C   UNL d   1      34.525 -17.921  -1.062  0.00  0.00     0.037 A 
ATOM     29  C   UNL d   1      33.954 -18.318   0.150  0.00  0.00     0.070 A 
ATOM     30  C   UNL d   1      32.559 -18.375   0.282  0.00  0.00     0.049 A 
BRANCH  29  31
ATOM     31  O   UNL d   1      34.842 -18.669   1.132  0.00  0.00    -0.346 OA
BRANCH  31  32
ATOM     32  C   UNL d   1      35.028 -20.079   1.311  0.00  0.00     0.219 C 
BRANCH  32  33
ATOM     33  C   UNL d   1      33.782 -20.666   1.898  0.00  0.00     0.026 A 
ATOM     34  C   UNL d   1      32.879 -21.321   1.055  0.00  0.00     0.126 A 
ATOM     35  F   UNL d   1      33.215 -21.574  -0.219  0.00  0.00    -0.205 F 
ATOM     36  C   UNL d   1      31.628 -21.728   1.506  0.00  0.00     0.043 A 
ATOM     37  C   UNL d   1      31.299 -21.574   2.850  0.00  0.00     0.005 A 
ATOM     38  C   UNL d   1      32.219 -20.999   3.726  0.00  0.00     0.024 A 
ATOM     39  C   UNL d   1      33.453 -20.548   3.255  0.00  0.00     0.045 A 
ATOM     40 CL   UNL d   1      34.540 -19.867   4.419  0.00  0.00    -0.084 Cl
ENDBRANCH  32  33
ENDBRANCH  31  32
ENDBRANCH  29  31
ENDBRANCH  24  25
ENDBRANCH   3  23
TORSDOF 10
ENDMDL
MODEL 5
REMARK VINA RESULT:   -29.508      1.239      1.509
REMARK INTER + INTRA:         -35.942
REMARK INTER:                 -32.491
REMARK INTRA:                  -3.451
REMARK CONF_INDEPENDENT:        2.983
REMARK UNBOUND:                -3.451
REMARK  10 active torsions:
REMARK  status: ('A' for Active; 'I' for Inactive)
REMARK    1  A    between atoms: N_2  and  C_4 
REMARK    2  A    between atoms: C_4  and  C_5 
REMARK    3  A    between atoms: C_6  and  C_7 
REMARK       I    between atoms: C_7  and  N_9 
REMARK    4  A    between atoms: N_9  and  N_10 
REMARK    5  A    between atoms: C_11  and  C_12 
REMARK    6  A    between atoms: C_16  and  O_17 
REMARK    7  A    between atoms: O_17  and  C_18 
REMARK    8  A    between atoms: C_18  and  C_19 
REMARK    9  A    between atoms: N_30  and  C_31 
REMARK   10  A    between atoms: C_35  and  N_36 
ROOT
ATOM      1  C   UNL d   1      26.951 -16.819  -0.505  0.00  0.00     0.293 C 
ATOM      2  O   UNL d   1      27.143 -15.696  -0.988  0.00  0.00    -0.264 OA
ATOM      3  N   UNL d   1      28.036 -17.620  -0.074  0.00  0.00    -0.242 N 
ATOM      4  H   UNL d   1      27.921 -18.557   0.260  0.00  0.00     0.192 HD
ENDROOT
BRANCH   1   5
ATOM      5  C   UNL d   1      25.533 -17.322  -0.348  0.00  0.00     0.170 A 
ATOM      6  C   UNL d   1      24.282 -16.901  -0.823  0.00  0.00     0.096 A 
ATOM      7  N   UNL d   1      23.334 -17.807  -0.286  0.00  0.00    -0.215 N 
ATOM      8  N   UNL d   1      23.998 -18.714   0.456  0.00  0.00     0.012 NA
ATOM      9  N   UNL d   1      25.300 -18.476   0.378  0.00  0.00    -0.152 NA
BRANCH   6  10
ATOM     10  C   UNL d   1      23.871 -15.735  -1.626  0.00  0.00     0.295 C 
BRANCH  10  11
ATOM     11  N   UNL d   1      24.937 -15.247  -2.569  0.00  0.00    -0.073 N 
ATOM     12  C   UNL d   1      25.521 -16.320  -3.440  0.00  0.00     0.269 C 
ATOM     13  C   UNL d   1      24.584 -14.019  -3.358  0.00  0.00     0.269 C 
ATOM     14  H   UNL d   1      25.738 -15.003  -1.957  0.00  0.00     0.279 HD
ENDBRANCH  10  11
ENDBRANCH   6  10
BRANCH   7  15
ATOM     15  C   UNL d   1      21.940 -17.928  -0.590  0.00  0.00     0.219 A 
ATOM     16  N   UNL d   1      21.226 -16.901  -1.055  0.00  0.00    -0.082 NA
ATOM     17  O   UNL d   1      19.947 -17.444  -1.271  0.00  0.00    -0.103 OA
ATOM     18  N   UNL d   1      19.902 -18.791  -0.896  0.00  0.00    -0.089 NA
ATOM     19  C   UNL d   1      21.120 -19.058  -0.440  0.00  0.00     0.180 A 
BRANCH  19  20
ATOM     20  N   UNL d   1      21.483 -20.222   0.171  0.00  0.00    -0.282 NA
ATOM     21  H   UNL d   1      21.040 -20.299   1.097  0.00  0.00     0.126 HD
ATOM     22  H   UNL d   1      22.497 -20.266   0.334  0.00  0.00     0.126 HD
ENDBRANCH  19  20
ENDBRANCH   7  15
ENDBRANCH   1   5
BRANCH   3  23
ATOM     23  N   UNL d   1      29.364 -17.173  -0.181  0.00  0.00    -0.183 NA
ATOM     24  C   UNL d   1      29.896 -17.107  -1.374  0.00  0.00     0.150 C 
BRANCH  24  25
ATOM     25  C   UNL d   1      31.305 -16.673  -1.650  0.00  0.00    -0.014 A 
ATOM     26  C   UNL d   1      31.791 -15.426  -1.223  0.00  0.00     0.013 A 
ATOM     27  C   UNL d   1      33.042 -14.963  -1.665  0.00  0.00     0.004 A 
ATOM     28  C   UNL d   1      33.830 -15.760  -2.496  0.00  0.00     0.037 A 
ATOM     29  C   UNL d   1      33.360 -17.011  -2.903  0.00  0.00     0.070 A 
ATOM     30  C   UNL d   1      32.105 -17.463  -2.470  0.00  0.00     0.049 A 
BRANCH  29  31
ATOM     31  O   UNL d   1      34.182 -17.699  -3.756  0.00  0.00    -0.346 OA
BRANCH  31  32
ATOM     32  C   UNL d   1      33.520 -18.360  -4.841  0.00  0.00     0.219 C 
BRANCH  32  33
ATOM     33  C   UNL d   1      32.537 -17.415  -5.462  0.00  0.00     0.026 A 
ATOM     34  C   UNL d   1      32.965 -16.134  -5.823  0.00  0.00     0.126 A 
ATOM     35  F   UNL d   1      34.270 -15.827  -5.781  0.00  0.00    -0.205 F 
ATOM     36  C   UNL d   1      32.065 -15.158  -6.237  0.00  0.00     0.043 A 
ATOM     37  C   UNL d   1      30.721 -15.484  -6.393  0.00  0.00     0.005 A 
ATOM     38  C   UNL d   1      30.287 -16.781  -6.117  0.00  0.00     0.024 A 
ATOM     39  C   UNL d   1      31.189 -17.742  -5.655  0.00  0.00     0.045 A 
ATOM     40 CL   UNL d   1      30.565 -19.330  -5.361  0.00  0.00    -0.084 Cl
ENDBRANCH  32  33
ENDBRANCH  31  32
ENDBRANCH  29  31
ENDBRANCH  24  25
ENDBRANCH   3  23
TORSDOF 10
ENDMDL
MODEL 6
REMARK VINA RESULT:   -28.998      3.015      4.523
REMARK INTER + INTRA:         -35.365
REMARK INTER:                 -31.981
REMARK INTRA:                  -3.384
REMARK CONF_INDEPENDENT:        2.983
REMARK UNBOUND:                -3.384
REMARK  10 active torsions:
REMARK  status: ('A' for Active; 'I' for Inactive)
REMARK    1  A    between atoms: N_2  and  C_4 
REMARK    2  A    between atoms: C_4  and  C_5 
REMARK    3  A    between atoms: C_6  and  C_7 
REMARK       I    between atoms: C_7  and  N_9 
REMARK    4  A    between atoms: N_9  and  N_10 
REMARK    5  A    between atoms: C_11  and  C_12 
REMARK    6  A    between atoms: C_16  and  O_17 
REMARK    7  A    between atoms: O_17  and  C_18 
REMARK    8  A    between atoms: C_18  and  C_19 
REMARK    9  A    between atoms: N_30  and  C_31 
REMARK   10  A    between atoms: C_35  and  N_36 
ROOT
ATOM      1  C   UNL d   1      26.936 -16.914  -0.398  0.00  0.00     0.293 C 
ATOM      2  O   UNL d   1      27.155 -15.707  -0.556  0.00  0.00    -0.264 OA
ATOM      3  N   UNL d   1      28.002 -17.843  -0.319  0.00  0.00    -0.242 N 
ATOM      4  H   UNL d   1      27.859 -18.832  -0.257  0.00  0.00     0.192 HD
ENDROOT
BRANCH   1   5
ATOM      5  C   UNL d   1      25.507 -17.393  -0.257  0.00  0.00     0.170 A 
ATOM      6  C   UNL d   1      24.272 -16.965  -0.765  0.00  0.00     0.096 A 
ATOM      7  N   UNL d   1      23.301 -17.844  -0.227  0.00  0.00    -0.215 N 
ATOM      8  N   UNL d   1      23.937 -18.745   0.547  0.00  0.00     0.012 NA
ATOM      9  N   UNL d   1      25.243 -18.528   0.489  0.00  0.00    -0.152 NA
BRANCH   6  10
ATOM     10  C   UNL d   1      23.894 -15.810  -1.602  0.00  0.00     0.295 C 
BRANCH  10  11
ATOM     11  N   UNL d   1      25.059 -15.167  -2.304  0.00  0.00    -0.073 N 
ATOM     12  C   UNL d   1      25.746 -16.062  -3.293  0.00  0.00     0.269 C 
ATOM     13  C   UNL d   1      24.793 -13.804  -2.873  0.00  0.00     0.269 C 
ATOM     14  H   UNL d   1      25.783 -15.061  -1.567  0.00  0.00     0.279 HD
ENDBRANCH  10  11
ENDBRANCH   6  10
BRANCH   7  15
ATOM     15  C   UNL d   1      21.911 -17.951  -0.556  0.00  0.00     0.219 A 
ATOM     16  N   UNL d   1      21.215 -16.917  -1.031  0.00  0.00    -0.082 NA
ATOM     17  O   UNL d   1      19.935 -17.448  -1.270  0.00  0.00    -0.103 OA
ATOM     18  N   UNL d   1      19.870 -18.794  -0.896  0.00  0.00    -0.089 NA
ATOM     19  C   UNL d   1      21.077 -19.073  -0.420  0.00  0.00     0.180 A 
BRANCH  19  20
ATOM     20  N   UNL d   1      21.419 -20.242   0.197  0.00  0.00    -0.282 NA
ATOM     21  H   UNL d   1      21.032 -20.275   1.149  0.00  0.00     0.126 HD
ATOM     22  H   UNL d   1      22.437 -20.335   0.297  0.00  0.00     0.126 HD
ENDBRANCH  19  20
ENDBRANCH   7  15
ENDBRANCH   1   5
BRANCH   3  23
ATOM     23  N   UNL d   1      29.342 -17.429  -0.420  0.00  0.00    -0.183 NA
ATOM     24  C   UNL d   1      30.058 -17.903  -1.405  0.00  0.00     0.150 C 
BRANCH  24  25
ATOM     25  C   UNL d   1      31.505 -17.576  -1.634  0.00  0.00    -0.014 A 
ATOM     26  C   UNL d   1      31.943 -16.952  -2.814  0.00  0.00     0.013 A 
ATOM     27  C   UNL d   1      33.316 -16.840  -3.089  0.00  0.00     0.004 A 
ATOM     28  C   UNL d   1      34.255 -17.306  -2.169  0.00  0.00     0.037 A 
ATOM     29  C   UNL d   1      33.823 -17.905  -0.983  0.00  0.00     0.070 A 
ATOM     30  C   UNL d   1      32.451 -18.028  -0.719  0.00  0.00     0.049 A 
BRANCH  29  31
ATOM     31  O   UNL d   1      34.816 -18.375  -0.166  0.00  0.00    -0.346 OA
BRANCH  31  32
ATOM     32  C   UNL d   1      35.340 -17.422   0.769  0.00  0.00     0.219 C 
BRANCH  32  33
ATOM     33  C   UNL d   1      34.230 -16.529   1.230  0.00  0.00     0.026 A 
ATOM     34  C   UNL d   1      34.142 -15.234   0.710  0.00  0.00     0.126 A 
ATOM     35  F   UNL d   1      34.929 -14.868  -0.312  0.00  0.00    -0.205 F 
ATOM     36  C   UNL d   1      33.247 -14.304   1.226  0.00  0.00     0.043 A 
ATOM     37  C   UNL d   1      32.346 -14.692   2.214  0.00  0.00     0.005 A 
ATOM     38  C   UNL d   1      32.360 -16.003   2.687  0.00  0.00     0.024 A 
ATOM     39  C   UNL d   1      33.295 -16.918   2.198  0.00  0.00     0.045 A 
ATOM     40 CL   UNL d   1      33.224 -18.530   2.828  0.00  0.00    -0.084 Cl
ENDBRANCH  32  33
ENDBRANCH  31  32
ENDBRANCH  29  31
ENDBRANCH  24  25
ENDBRANCH   3  23
TORSDOF 10
ENDMDL
MODEL 7
REMARK VINA RESULT:   -28.983      4.960      6.609
REMARK INTER + INTRA:         -34.871
REMARK INTER:                 -31.966
REMARK INTRA:                  -2.906
REMARK CONF_INDEPENDENT:        2.983
REMARK UNBOUND:                -2.906
REMARK  10 active torsions:
REMARK  status: ('A' for Active; 'I' for Inactive)
REMARK    1  A    between atoms: N_2  and  C_4 
REMARK    2  A    between atoms: C_4  and  C_5 
REMARK    3  A    between atoms: C_6  and  C_7 
REMARK       I    between atoms: C_7  and  N_9 
REMARK    4  A    between atoms: N_9  and  N_10 
REMARK    5  A    between atoms: C_11  and  C_12 
REMARK    6  A    between atoms: C_16  and  O_17 
REMARK    7  A    between atoms: O_17  and  C_18 
REMARK    8  A    between atoms: C_18  and  C_19 
REMARK    9  A    between atoms: N_30  and  C_31 
REMARK   10  A    between atoms: C_35  and  N_36 
ROOT
ATOM      1  C   UNL d   1      26.875 -16.685  -0.286  0.00  0.00     0.293 C 
ATOM      2  O   UNL d   1      27.343 -16.505  -1.417  0.00  0.00    -0.264 OA
ATOM      3  N   UNL d   1      27.639 -16.399   0.871  0.00  0.00    -0.242 N 
ATOM      4  H   UNL d   1      27.316 -16.593   1.799  0.00  0.00     0.192 HD
ENDROOT
BRANCH   1   5
ATOM      5  C   UNL d   1      25.455 -17.189  -0.146  0.00  0.00     0.170 A 
ATOM      6  C   UNL d   1      24.229 -16.850  -0.736  0.00  0.00     0.096 A 
ATOM      7  N   UNL d   1      23.261 -17.700  -0.145  0.00  0.00    -0.215 N 
ATOM      8  N   UNL d   1      23.892 -18.500   0.736  0.00  0.00     0.012 NA
ATOM      9  N   UNL d   1      25.193 -18.252   0.701  0.00  0.00    -0.152 NA
BRANCH   6  10
ATOM     10  C   UNL d   1      23.851 -15.796  -1.696  0.00  0.00     0.295 C 
BRANCH  10  11
ATOM     11  N   UNL d   1      25.028 -15.158  -2.383  0.00  0.00    -0.073 N 
ATOM     12  C   UNL d   1      25.555 -15.942  -3.549  0.00  0.00     0.269 C 
ATOM     13  C   UNL d   1      24.867 -13.703  -2.715  0.00  0.00     0.269 C 
ATOM     14  H   UNL d   1      25.805 -15.236  -1.699  0.00  0.00     0.279 HD
ENDBRANCH  10  11
ENDBRANCH   6  10
BRANCH   7  15
ATOM     15  C   UNL d   1      21.888 -17.880  -0.508  0.00  0.00     0.219 A 
ATOM     16  N   UNL d   1      21.149 -16.883  -0.998  0.00  0.00    -0.082 NA
ATOM     17  O   UNL d   1      19.905 -17.480  -1.270  0.00  0.00    -0.103 OA
ATOM     18  N   UNL d   1      19.903 -18.830  -0.901  0.00  0.00    -0.089 NA
ATOM     19  C   UNL d   1      21.112 -19.045  -0.396  0.00  0.00     0.180 A 
BRANCH  19  20
ATOM     20  N   UNL d   1      21.501 -20.196   0.226  0.00  0.00    -0.282 NA
ATOM     21  H   UNL d   1      21.180 -20.205   1.203  0.00  0.00     0.126 HD
ATOM     22  H   UNL d   1      22.524 -20.284   0.258  0.00  0.00     0.126 HD
ENDBRANCH  19  20
ENDBRANCH   7  15
ENDBRANCH   1   5
BRANCH   3  23
ATOM     23  N   UNL d   1      28.952 -15.904   0.778  0.00  0.00    -0.183 NA
ATOM     24  C   UNL d   1      29.262 -14.848   1.482  0.00  0.00     0.150 C 
BRANCH  24  25
ATOM     25  C   UNL d   1      30.610 -14.189   1.473  0.00  0.00    -0.014 A 
ATOM     26  C   UNL d   1      31.697 -14.741   0.777  0.00  0.00     0.013 A 
ATOM     27  C   UNL d   1      32.989 -14.216   0.948  0.00  0.00     0.004 A 
ATOM     28  C   UNL d   1      33.193 -13.112   1.776  0.00  0.00     0.037 A 
ATOM     29  C   UNL d   1      32.110 -12.545   2.451  0.00  0.00     0.070 A 
ATOM     30  C   UNL d   1      30.823 -13.081   2.288  0.00  0.00     0.049 A 
BRANCH  29  31
ATOM     31  O   UNL d   1      32.415 -11.497   3.278  0.00  0.00    -0.346 OA
BRANCH  31  32
ATOM     32  C   UNL d   1      31.411 -10.478   3.368  0.00  0.00     0.219 C 
BRANCH  32  33
ATOM     33  C   UNL d   1      30.477 -10.811   4.491  0.00  0.00     0.026 A 
ATOM     34  C   UNL d   1      30.992 -10.936   5.785  0.00  0.00     0.126 A 
ATOM     35  F   UNL d   1      32.262 -10.585   6.037  0.00  0.00    -0.205 F 
ATOM     36  C   UNL d   1      30.213 -11.413   6.833  0.00  0.00     0.043 A 
ATOM     37  C   UNL d   1      28.864 -11.680   6.620  0.00  0.00     0.005 A 
ATOM     38  C   UNL d   1      28.310 -11.482   5.356  0.00  0.00     0.024 A 
ATOM     39  C   UNL d   1      29.111 -11.049   4.297  0.00  0.00     0.045 A 
ATOM     40 CL   UNL d   1      28.333 -10.810   2.768  0.00  0.00    -0.084 Cl
ENDBRANCH  32  33
ENDBRANCH  31  32
ENDBRANCH  29  31
ENDBRANCH  24  25
ENDBRANCH   3  23
TORSDOF 10
ENDMDL
MODEL 8
REMARK VINA RESULT:   -28.461      2.198      2.717
REMARK INTER + INTRA:         -34.655
REMARK INTER:                 -31.444
REMARK INTRA:                  -3.211
REMARK CONF_INDEPENDENT:        2.983
REMARK UNBOUND:                -3.211
REMARK  10 active torsions:
REMARK  status: ('A' for Active; 'I' for Inactive)
REMARK    1  A    between atoms: N_2  and  C_4 
REMARK    2  A    between atoms: C_4  and  C_5 
REMARK    3  A    between atoms: C_6  and  C_7 
REMARK       I    between atoms: C_7  and  N_9 
REMARK    4  A    between atoms: N_9  and  N_10 
REMARK    5  A    between atoms: C_11  and  C_12 
REMARK    6  A    between atoms: C_16  and  O_17 
REMARK    7  A    between atoms: O_17  and  C_18 
REMARK    8  A    between atoms: C_18  and  C_19 
REMARK    9  A    between atoms: N_30  and  C_31 
REMARK   10  A    between atoms: C_35  and  N_36 
ROOT
ATOM      1  C   UNL d   1      27.007 -16.885  -0.548  0.00  0.00     0.293 C 
ATOM      2  O   UNL d   1      27.235 -15.722  -0.901  0.00  0.00    -0.264 OA
ATOM      3  N   UNL d   1      28.067 -17.785  -0.282  0.00  0.00    -0.242 N 
ATOM      4  H   UNL d   1      27.919 -18.750  -0.058  0.00  0.00     0.192 HD
ENDROOT
BRANCH   1   5
ATOM      5  C   UNL d   1      25.574 -17.335  -0.372  0.00  0.00     0.170 A 
ATOM      6  C   UNL d   1      24.337 -16.896  -0.867  0.00  0.00     0.096 A 
ATOM      7  N   UNL d   1      23.360 -17.746  -0.293  0.00  0.00    -0.215 N 
ATOM      8  N   UNL d   1      23.995 -18.642   0.488  0.00  0.00     0.012 NA
ATOM      9  N   UNL d   1      25.303 -18.450   0.403  0.00  0.00    -0.152 NA
BRANCH   6  10
ATOM     10  C   UNL d   1      23.963 -15.752  -1.720  0.00  0.00     0.295 C 
BRANCH  10  11
ATOM     11  N   UNL d   1      25.137 -15.095  -2.394  0.00  0.00    -0.073 N 
ATOM     12  C   UNL d   1      25.805 -15.950  -3.430  0.00  0.00     0.269 C 
ATOM     13  C   UNL d   1      24.893 -13.700  -2.893  0.00  0.00     0.269 C 
ATOM     14  H   UNL d   1      25.865 -15.039  -1.657  0.00  0.00     0.279 HD
ENDBRANCH  10  11
ENDBRANCH   6  10
BRANCH   7  15
ATOM     15  C   UNL d   1      21.963 -17.836  -0.594  0.00  0.00     0.219 A 
ATOM     16  N   UNL d   1      21.271 -16.793  -1.056  0.00  0.00    -0.082 NA
ATOM     17  O   UNL d   1      19.980 -17.307  -1.270  0.00  0.00    -0.103 OA
ATOM     18  N   UNL d   1      19.905 -18.653  -0.895  0.00  0.00    -0.089 NA
ATOM     19  C   UNL d   1      21.118 -18.947  -0.443  0.00  0.00     0.180 A 
BRANCH  19  20
ATOM     20  N   UNL d   1      21.457 -20.120   0.167  0.00  0.00    -0.282 NA
ATOM     21  H   UNL d   1      21.033 -20.177   1.103  0.00  0.00     0.126 HD
ATOM     22  H   UNL d   1      22.471 -20.197   0.306  0.00  0.00     0.126 HD
ENDBRANCH  19  20
ENDBRANCH   7  15
ENDBRANCH   1   5
BRANCH   3  23
ATOM     23  N   UNL d   1      29.411 -17.392  -0.410  0.00  0.00    -0.183 NA
ATOM     24  C   UNL d   1      30.299 -18.317  -0.664  0.00  0.00     0.150 C 
BRANCH  24  25
ATOM     25  C   UNL d   1      31.771 -18.061  -0.807  0.00  0.00    -0.014 A 
ATOM     26  C   UNL d   1      32.726 -18.887  -0.193  0.00  0.00     0.013 A 
ATOM     27  C   UNL d   1      34.081 -18.513  -0.175  0.00  0.00     0.004 A 
ATOM     28  C   UNL d   1      34.492 -17.340  -0.809  0.00  0.00     0.037 A 
ATOM     29  C   UNL d   1      33.547 -16.529  -1.442  0.00  0.00     0.070 A 
ATOM     30  C   UNL d   1      32.194 -16.899  -1.445  0.00  0.00     0.049 A 
BRANCH  29  31
ATOM     31  O   UNL d   1      34.038 -15.375  -1.994  0.00  0.00    -0.346 OA
BRANCH  31  32
ATOM     32  C   UNL d   1      33.323 -14.895  -3.139  0.00  0.00     0.219 C 
BRANCH  32  33
ATOM     33  C   UNL d   1      33.458 -15.889  -4.251  0.00  0.00     0.026 A 
ATOM     34  C   UNL d   1      32.367 -16.704  -4.566  0.00  0.00     0.126 A 
ATOM     35  F   UNL d   1      31.172 -16.471  -4.004  0.00  0.00    -0.205 F 
ATOM     36  C   UNL d   1      32.485 -17.761  -5.463  0.00  0.00     0.043 A 
ATOM     37  C   UNL d   1      33.685 -17.956  -6.140  0.00  0.00     0.005 A 
ATOM     38  C   UNL d   1      34.761 -17.102  -5.902  0.00  0.00     0.024 A 
ATOM     39  C   UNL d   1      34.650 -16.073  -4.964  0.00  0.00     0.045 A 
ATOM     40 CL   UNL d   1      36.029 -15.049  -4.751  0.00  0.00    -0.084 Cl
ENDBRANCH  32  33
ENDBRANCH  31  32
ENDBRANCH  29  31
ENDBRANCH  24  25
ENDBRANCH   3  23
TORSDOF 10
ENDMDL
