MODEL 1
REMARK VINA RESULT:    -8.885      0.000      0.000
REMARK INTER + INTRA:         -13.053
REMARK INTER:                 -10.973
REMARK INTRA:                  -2.080
REMARK CONF_INDEPENDENT:        2.088
REMARK UNBOUND:                -2.080
REMARK  7 active torsions:
REMARK  status: ('A' for Active; 'I' for Inactive)
REMARK    1  A    between atoms: O_2  and  C_3 
REMARK    2  A    between atoms: C_5  and  O_6 
REMARK    3  A    between atoms: C_9  and  C_10 
REMARK       I    between atoms: C_10  and  N_12 
REMARK       I    between atoms: C_13  and  N_14 
REMARK       I    between atoms: C_13  and  N_26 
REMARK    4  A    between atoms: N_14  and  C_15 
REMARK    5  A    between atoms: C_15  and  C_16 
REMARK    6  A    between atoms: C_16  and  C_17 
REMARK    7  A    between atoms: N_26  and  C_27 
ROOT
ATOM      1  C   UNL d   1      27.427 -13.081  -1.110  0.00  0.00     0.294 C 
ATOM      2  O   UNL d   1      27.030 -12.221  -0.338  0.00  0.00    -0.265 OA
ATOM      3  N   UNL d   1      28.088 -14.236  -0.757  0.00  0.00    -0.023 NA
ATOM      4  C   UNL d   1      28.233 -14.517   0.502  0.00  0.00     0.704 C 
ATOM      5  N   UNL d   1      28.750 -15.739   0.840  0.00  0.00    -0.224 N 
ATOM      6  N   UNL d   1      27.831 -13.748   1.561  0.00  0.00    -0.190 N 
ATOM      7  H   UNL d   1      28.765 -15.950   1.832  0.00  0.00     0.177 HD
ATOM      8  H   UNL d   1      27.414 -12.854   1.282  0.00  0.00     0.184 HD
ENDROOT
BRANCH   5   9
ATOM      9  C   UNL d   1      29.482 -16.581  -0.075  0.00  0.00     0.142 C 
BRANCH   9  10
ATOM     10  C   UNL d   1      28.551 -17.455  -0.909  0.00  0.00     0.057 C 
BRANCH  10  11
ATOM     11  C   UNL d   1      27.165 -17.621  -0.366  0.00  0.00    -0.048 A 
ATOM     12  C   UNL d   1      26.115 -17.045  -0.952  0.00  0.00    -0.006 A 
ATOM     13  C   UNL d   1      26.022 -16.197  -2.086  0.00  0.00     0.014 A 
ATOM     14  C   UNL d   1      24.944 -17.407  -0.145  0.00  0.00     0.038 A 
ATOM     15  C   UNL d   1      24.846 -15.613  -2.339  0.00  0.00     0.001 A 
ATOM     16  C   UNL d   1      23.655 -15.953  -1.575  0.00  0.00     0.002 A 
ATOM     17  C   UNL d   1      23.649 -16.811  -0.532  0.00  0.00     0.030 A 
ATOM     18  N   UNL d   1      25.257 -18.200   0.809  0.00  0.00    -0.385 N 
ATOM     19  C   UNL d   1      26.737 -18.387   0.855  0.00  0.00     0.155 A 
ATOM     20  H   UNL d   1      24.559 -18.621   1.422  0.00  0.00     0.160 HD
ENDBRANCH  10  11
ENDBRANCH   9  10
ENDBRANCH   5   9
BRANCH   6  21
ATOM     21  C   UNL d   1      28.223 -13.744   2.914  0.00  0.00     0.055 A 
ATOM     22  C   UNL d   1      27.194 -13.695   3.876  0.00  0.00     0.031 A 
ATOM     23  C   UNL d   1      27.474 -13.709   5.245  0.00  0.00     0.009 A 
ATOM     24  C   UNL d   1      28.789 -13.855   5.681  0.00  0.00    -0.061 A 
ATOM     25  C   UNL d   1      29.114 -14.039   7.132  0.00  0.00     0.048 C 
ATOM     26  C   UNL d   1      29.819 -13.868   4.737  0.00  0.00     0.015 A 
ATOM     27  C   UNL d   1      29.560 -13.779   3.360  0.00  0.00    -0.034 A 
ATOM     28  C   UNL d   1      30.750 -13.668   2.448  0.00  0.00     0.050 C 
ENDBRANCH   6  21
BRANCH   1  29
ATOM     29  C   UNL d   1      27.189 -12.914  -2.571  0.00  0.00     0.040 A 
ATOM     30  C   UNL d   1      27.549 -13.955  -3.425  0.00  0.00     0.054 A 
ATOM     31  C   UNL d   1      27.226 -13.898  -4.777  0.00  0.00     0.071 A 
ATOM     32  C   UNL d   1      26.634 -12.735  -5.289  0.00  0.00     0.073 A 
ATOM     33  C   UNL d   1      26.268 -11.685  -4.437  0.00  0.00     0.071 A 
ATOM     34  C   UNL d   1      26.551 -11.779  -3.077  0.00  0.00     0.054 A 
BRANCH  31  35
ATOM     35  O   UNL d   1      27.404 -14.940  -5.650  0.00  0.00    -0.356 OA
ATOM     36  C   UNL d   1      28.538 -14.835  -6.519  0.00  0.00     0.210 C 
ENDBRANCH  31  35
BRANCH  33  37
ATOM     37  O   UNL d   1      25.530 -10.673  -4.993  0.00  0.00    -0.356 OA
ATOM     38  C   UNL d   1      25.872 -10.286  -6.319  0.00  0.00     0.210 C 
ENDBRANCH  33  37
ENDBRANCH   1  29
TORSDOF 7
ENDMDL
MODEL 2
REMARK VINA RESULT:    -8.807      0.305      1.935
REMARK INTER + INTRA:         -12.924
REMARK INTER:                 -10.895
REMARK INTRA:                  -2.029
REMARK CONF_INDEPENDENT:        2.088
REMARK UNBOUND:                -2.029
REMARK  7 active torsions:
REMARK  status: ('A' for Active; 'I' for Inactive)
REMARK    1  A    between atoms: O_2  and  C_3 
REMARK    2  A    between atoms: C_5  and  O_6 
REMARK    3  A    between atoms: C_9  and  C_10 
REMARK       I    between atoms: C_10  and  N_12 
REMARK       I    between atoms: C_13  and  N_14 
REMARK       I    between atoms: C_13  and  N_26 
REMARK    4  A    between atoms: N_14  and  C_15 
REMARK    5  A    between atoms: C_15  and  C_16 
REMARK    6  A    between atoms: C_16  and  C_17 
REMARK    7  A    between atoms: N_26  and  C_27 
ROOT
ATOM      1  C   UNL d   1      27.257 -13.212  -1.088  0.00  0.00     0.294 C 
ATOM      2  O   UNL d   1      26.869 -12.353  -0.312  0.00  0.00    -0.265 OA
ATOM      3  N   UNL d   1      27.988 -14.329  -0.752  0.00  0.00    -0.023 NA
ATOM      4  C   UNL d   1      28.223 -14.574   0.501  0.00  0.00     0.704 C 
ATOM      5  N   UNL d   1      28.813 -15.763   0.832  0.00  0.00    -0.224 N 
ATOM      6  N   UNL d   1      27.851 -13.797   1.566  0.00  0.00    -0.190 N 
ATOM      7  H   UNL d   1      28.897 -15.950   1.825  0.00  0.00     0.177 HD
ATOM      8  H   UNL d   1      27.378 -12.929   1.295  0.00  0.00     0.184 HD
ENDROOT
BRANCH   5   9
ATOM      9  C   UNL d   1      29.525 -16.595  -0.108  0.00  0.00     0.142 C 
BRANCH   9  10
ATOM     10  C   UNL d   1      28.576 -17.450  -0.939  0.00  0.00     0.057 C 
BRANCH  10  11
ATOM     11  C   UNL d   1      27.244 -17.730  -0.313  0.00  0.00    -0.048 A 
ATOM     12  C   UNL d   1      26.118 -17.230  -0.822  0.00  0.00    -0.006 A 
ATOM     13  C   UNL d   1      25.887 -16.379  -1.934  0.00  0.00     0.014 A 
ATOM     14  C   UNL d   1      25.032 -17.692   0.051  0.00  0.00     0.038 A 
ATOM     15  C   UNL d   1      24.657 -15.885  -2.102  0.00  0.00     0.001 A 
ATOM     16  C   UNL d   1      23.546 -16.325  -1.271  0.00  0.00     0.002 A 
ATOM     17  C   UNL d   1      23.673 -17.193  -0.244  0.00  0.00     0.030 A 
ATOM     18  N   UNL d   1      25.465 -18.469   0.970  0.00  0.00    -0.385 N 
ATOM     19  C   UNL d   1      26.955 -18.541   0.919  0.00  0.00     0.155 A 
ATOM     20  H   UNL d   1      24.842 -18.950   1.619  0.00  0.00     0.160 HD
ENDBRANCH  10  11
ENDBRANCH   9  10
ENDBRANCH   5   9
BRANCH   6  21
ATOM     21  C   UNL d   1      28.325 -13.743   2.892  0.00  0.00     0.055 A 
ATOM     22  C   UNL d   1      27.355 -13.713   3.915  0.00  0.00     0.031 A 
ATOM     23  C   UNL d   1      27.718 -13.682   5.263  0.00  0.00     0.009 A 
ATOM     24  C   UNL d   1      29.061 -13.764   5.621  0.00  0.00    -0.061 A 
ATOM     25  C   UNL d   1      29.481 -13.899   7.053  0.00  0.00     0.048 C 
ATOM     26  C   UNL d   1      30.032 -13.758   4.616  0.00  0.00     0.015 A 
ATOM     27  C   UNL d   1      29.686 -13.714   3.255  0.00  0.00    -0.034 A 
ATOM     28  C   UNL d   1      30.813 -13.575   2.270  0.00  0.00     0.050 C 
ENDBRANCH   6  21
BRANCH   1  29
ATOM     29  C   UNL d   1      26.923 -13.091  -2.535  0.00  0.00     0.040 A 
ATOM     30  C   UNL d   1      26.343 -11.904  -2.984  0.00  0.00     0.054 A 
ATOM     31  C   UNL d   1      26.135 -11.696  -4.344  0.00  0.00     0.071 A 
ATOM     32  C   UNL d   1      26.412 -12.733  -5.244  0.00  0.00     0.073 A 
ATOM     33  C   UNL d   1      26.996 -13.928  -4.801  0.00  0.00     0.071 A 
ATOM     34  C   UNL d   1      27.246 -14.102  -3.443  0.00  0.00     0.054 A 
BRANCH  31  35
ATOM     35  O   UNL d   1      25.717 -10.504  -4.878  0.00  0.00    -0.356 OA
ATOM     36  C   UNL d   1      25.536 -10.490  -6.299  0.00  0.00     0.210 C 
ENDBRANCH  31  35
BRANCH  33  37
ATOM     37  O   UNL d   1      27.402 -14.808  -5.769  0.00  0.00    -0.356 OA
ATOM     38  C   UNL d   1      28.763 -15.222  -5.727  0.00  0.00     0.210 C 
ENDBRANCH  33  37
ENDBRANCH   1  29
TORSDOF 7
ENDMDL
MODEL 3
REMARK VINA RESULT:    -8.735      1.561      2.131
REMARK INTER + INTRA:         -13.310
REMARK INTER:                 -10.823
REMARK INTRA:                  -2.488
REMARK CONF_INDEPENDENT:        2.088
REMARK UNBOUND:                -2.488
REMARK  7 active torsions:
REMARK  status: ('A' for Active; 'I' for Inactive)
REMARK    1  A    between atoms: O_2  and  C_3 
REMARK    2  A    between atoms: C_5  and  O_6 
REMARK    3  A    between atoms: C_9  and  C_10 
REMARK       I    between atoms: C_10  and  N_12 
REMARK       I    between atoms: C_13  and  N_14 
REMARK       I    between atoms: C_13  and  N_26 
REMARK    4  A    between atoms: N_14  and  C_15 
REMARK    5  A    between atoms: C_15  and  C_16 
REMARK    6  A    between atoms: C_16  and  C_17 
REMARK    7  A    between atoms: N_26  and  C_27 
ROOT
ATOM      1  C   UNL d   1      26.958 -12.870  -0.173  0.00  0.00     0.294 C 
ATOM      2  O   UNL d   1      26.280 -12.305   0.672  0.00  0.00    -0.265 OA
ATOM      3  N   UNL d   1      28.003 -13.729   0.078  0.00  0.00    -0.023 NA
ATOM      4  C   UNL d   1      28.258 -14.069   1.305  0.00  0.00     0.704 C 
ATOM      5  N   UNL d   1      29.195 -15.041   1.529  0.00  0.00    -0.224 N 
ATOM      6  N   UNL d   1      27.613 -13.619   2.426  0.00  0.00    -0.190 N 
ATOM      7  H   UNL d   1      29.299 -15.335   2.494  0.00  0.00     0.177 HD
ATOM      8  H   UNL d   1      26.891 -12.919   2.229  0.00  0.00     0.184 HD
ENDROOT
BRANCH   5   9
ATOM      9  C   UNL d   1      30.176 -15.451   0.553  0.00  0.00     0.142 C 
BRANCH   9  10
ATOM     10  C   UNL d   1      29.772 -16.745  -0.145  0.00  0.00     0.057 C 
BRANCH  10  11
ATOM     11  C   UNL d   1      28.515 -16.675  -0.957  0.00  0.00    -0.048 A 
ATOM     12  C   UNL d   1      27.349 -17.103  -0.471  0.00  0.00    -0.006 A 
ATOM     13  C   UNL d   1      27.012 -17.697   0.772  0.00  0.00     0.014 A 
ATOM     14  C   UNL d   1      26.361 -16.899  -1.537  0.00  0.00     0.038 A 
ATOM     15  C   UNL d   1      25.782 -18.200   0.915  0.00  0.00     0.001 A 
ATOM     16  C   UNL d   1      24.764 -18.009  -0.108  0.00  0.00     0.002 A 
ATOM     17  C   UNL d   1      24.989 -17.385  -1.284  0.00  0.00     0.030 A 
ATOM     18  N   UNL d   1      26.879 -16.324  -2.556  0.00  0.00    -0.385 N 
ATOM     19  C   UNL d   1      28.350 -16.172  -2.364  0.00  0.00     0.155 A 
ATOM     20  H   UNL d   1      26.323 -16.030  -3.359  0.00  0.00     0.160 HD
ENDBRANCH  10  11
ENDBRANCH   9  10
ENDBRANCH   5   9
BRANCH   6  21
ATOM     21  C   UNL d   1      27.993 -13.613   3.782  0.00  0.00     0.055 A 
ATOM     22  C   UNL d   1      28.137 -14.867   4.410  0.00  0.00     0.031 A 
ATOM     23  C   UNL d   1      28.532 -14.974   5.745  0.00  0.00     0.009 A 
ATOM     24  C   UNL d   1      28.871 -13.828   6.460  0.00  0.00    -0.061 A 
ATOM     25  C   UNL d   1      29.454 -13.911   7.838  0.00  0.00     0.048 C 
ATOM     26  C   UNL d   1      28.698 -12.578   5.860  0.00  0.00     0.015 A 
ATOM     27  C   UNL d   1      28.230 -12.450   4.542  0.00  0.00    -0.034 A 
ATOM     28  C   UNL d   1      27.955 -11.057   4.048  0.00  0.00     0.050 C 
ENDBRANCH   6  21
BRANCH   1  29
ATOM     29  C   UNL d   1      26.656 -12.649  -1.615  0.00  0.00     0.040 A 
ATOM     30  C   UNL d   1      26.187 -13.726  -2.366  0.00  0.00     0.054 A 
ATOM     31  C   UNL d   1      25.769 -13.536  -3.680  0.00  0.00     0.071 A 
ATOM     32  C   UNL d   1      25.927 -12.276  -4.271  0.00  0.00     0.073 A 
ATOM     33  C   UNL d   1      26.396 -11.188  -3.522  0.00  0.00     0.071 A 
ATOM     34  C   UNL d   1      26.762 -11.382  -2.193  0.00  0.00     0.054 A 
BRANCH  31  35
ATOM     35  O   UNL d   1      25.154 -14.503  -4.433  0.00  0.00    -0.356 OA
ATOM     36  C   UNL d   1      25.996 -15.196  -5.360  0.00  0.00     0.210 C 
ENDBRANCH  31  35
BRANCH  33  37
ATOM     37  O   UNL d   1      26.343  -9.959  -4.126  0.00  0.00    -0.356 OA
ATOM     38  C   UNL d   1      25.530  -9.853  -5.289  0.00  0.00     0.210 C 
ENDBRANCH  33  37
ENDBRANCH   1  29
TORSDOF 7
ENDMDL
MODEL 4
REMARK VINA RESULT:    -8.647      1.580      2.653
REMARK INTER + INTRA:         -13.290
REMARK INTER:                 -10.735
REMARK INTRA:                  -2.555
REMARK CONF_INDEPENDENT:        2.088
REMARK UNBOUND:                -2.555
REMARK  7 active torsions:
REMARK  status: ('A' for Active; 'I' for Inactive)
REMARK    1  A    between atoms: O_2  and  C_3 
REMARK    2  A    between atoms: C_5  and  O_6 
REMARK    3  A    between atoms: C_9  and  C_10 
REMARK       I    between atoms: C_10  and  N_12 
REMARK       I    between atoms: C_13  and  N_14 
REMARK       I    between atoms: C_13  and  N_26 
REMARK    4  A    between atoms: N_14  and  C_15 
REMARK    5  A    between atoms: C_15  and  C_16 
REMARK    6  A    between atoms: C_16  and  C_17 
REMARK    7  A    between atoms: N_26  and  C_27 
ROOT
ATOM      1  C   UNL d   1      26.913 -12.933  -0.209  0.00  0.00     0.294 C 
ATOM      2  O   UNL d   1      26.280 -12.321   0.638  0.00  0.00    -0.265 OA
ATOM      3  N   UNL d   1      27.921 -13.837   0.038  0.00  0.00    -0.023 NA
ATOM      4  C   UNL d   1      28.185 -14.166   1.266  0.00  0.00     0.704 C 
ATOM      5  N   UNL d   1      29.078 -15.178   1.491  0.00  0.00    -0.224 N 
ATOM      6  N   UNL d   1      27.584 -13.666   2.390  0.00  0.00    -0.190 N 
ATOM      7  H   UNL d   1      29.187 -15.460   2.458  0.00  0.00     0.177 HD
ATOM      8  H   UNL d   1      26.892 -12.935   2.194  0.00  0.00     0.184 HD
ENDROOT
BRANCH   5   9
ATOM      9  C   UNL d   1      30.018 -15.653   0.504  0.00  0.00     0.142 C 
BRANCH   9  10
ATOM     10  C   UNL d   1      29.531 -16.927  -0.176  0.00  0.00     0.057 C 
BRANCH  10  11
ATOM     11  C   UNL d   1      28.291 -16.781  -1.006  0.00  0.00    -0.048 A 
ATOM     12  C   UNL d   1      27.099 -17.160  -0.545  0.00  0.00    -0.006 A 
ATOM     13  C   UNL d   1      26.713 -17.756   0.682  0.00  0.00     0.014 A 
ATOM     14  C   UNL d   1      26.139 -16.889  -1.622  0.00  0.00     0.038 A 
ATOM     15  C   UNL d   1      25.457 -18.200   0.798  0.00  0.00     0.001 A 
ATOM     16  C   UNL d   1      24.467 -17.942  -0.237  0.00  0.00     0.002 A 
ATOM     17  C   UNL d   1      24.740 -17.311  -1.399  0.00  0.00     0.030 A 
ATOM     18  N   UNL d   1      26.701 -16.325  -2.623  0.00  0.00    -0.385 N 
ATOM     19  C   UNL d   1      28.175 -16.248  -2.407  0.00  0.00     0.155 A 
ATOM     20  H   UNL d   1      26.174 -15.990  -3.430  0.00  0.00     0.160 HD
ENDBRANCH  10  11
ENDBRANCH   9  10
ENDBRANCH   5   9
BRANCH   6  21
ATOM     21  C   UNL d   1      27.991 -13.654   3.738  0.00  0.00     0.055 A 
ATOM     22  C   UNL d   1      28.155 -14.906   4.367  0.00  0.00     0.031 A 
ATOM     23  C   UNL d   1      28.577 -15.006   5.694  0.00  0.00     0.009 A 
ATOM     24  C   UNL d   1      28.923 -13.856   6.399  0.00  0.00    -0.061 A 
ATOM     25  C   UNL d   1      29.535 -13.932   7.765  0.00  0.00     0.048 C 
ATOM     26  C   UNL d   1      28.731 -12.609   5.799  0.00  0.00     0.015 A 
ATOM     27  C   UNL d   1      28.236 -12.487   4.490  0.00  0.00    -0.034 A 
ATOM     28  C   UNL d   1      27.943 -11.097   3.999  0.00  0.00     0.050 C 
ENDBRANCH   6  21
BRANCH   1  29
ATOM     29  C   UNL d   1      26.593 -12.724  -1.649  0.00  0.00     0.040 A 
ATOM     30  C   UNL d   1      27.059 -11.566  -2.270  0.00  0.00     0.054 A 
ATOM     31  C   UNL d   1      26.898 -11.392  -3.641  0.00  0.00     0.071 A 
ATOM     32  C   UNL d   1      26.166 -12.339  -4.369  0.00  0.00     0.073 A 
ATOM     33  C   UNL d   1      25.695 -13.506  -3.752  0.00  0.00     0.071 A 
ATOM     34  C   UNL d   1      25.910 -13.691  -2.389  0.00  0.00     0.054 A 
BRANCH  31  35
ATOM     35  O   UNL d   1      27.459 -10.362  -4.351  0.00  0.00    -0.356 OA
ATOM     36  C   UNL d   1      26.570  -9.299  -4.712  0.00  0.00     0.210 C 
ENDBRANCH  31  35
BRANCH  33  37
ATOM     37  O   UNL d   1      25.155 -14.460  -4.574  0.00  0.00    -0.356 OA
ATOM     38  C   UNL d   1      26.064 -15.185  -5.395  0.00  0.00     0.210 C 
ENDBRANCH  33  37
ENDBRANCH   1  29
TORSDOF 7
ENDMDL
MODEL 5
REMARK VINA RESULT:    -8.605      2.405      8.014
REMARK INTER + INTRA:         -12.259
REMARK INTER:                 -10.693
REMARK INTRA:                  -1.566
REMARK CONF_INDEPENDENT:        2.088
REMARK UNBOUND:                -1.566
REMARK  7 active torsions:
REMARK  status: ('A' for Active; 'I' for Inactive)
REMARK    1  A    between atoms: O_2  and  C_3 
REMARK    2  A    between atoms: C_5  and  O_6 
REMARK    3  A    between atoms: C_9  and  C_10 
REMARK       I    between atoms: C_10  and  N_12 
REMARK       I    between atoms: C_13  and  N_14 
REMARK       I    between atoms: C_13  and  N_26 
REMARK    4  A    between atoms: N_14  and  C_15 
REMARK    5  A    between atoms: C_15  and  C_16 
REMARK    6  A    between atoms: C_16  and  C_17 
REMARK    7  A    between atoms: N_26  and  C_27 
ROOT
ATOM      1  C   UNL d   1      25.108 -14.459  -2.593  0.00  0.00     0.294 C 
ATOM      2  O   UNL d   1      24.451 -14.384  -3.620  0.00  0.00    -0.265 OA
ATOM      3  N   UNL d   1      26.078 -13.569  -2.192  0.00  0.00    -0.023 NA
ATOM      4  C   UNL d   1      26.271 -12.492  -2.892  0.00  0.00     0.704 C 
ATOM      5  N   UNL d   1      27.124 -11.542  -2.400  0.00  0.00    -0.224 N 
ATOM      6  N   UNL d   1      25.630 -12.148  -4.051  0.00  0.00    -0.190 N 
ATOM      7  H   UNL d   1      27.179 -10.682  -2.935  0.00  0.00     0.177 HD
ATOM      8  H   UNL d   1      24.969 -12.859  -4.380  0.00  0.00     0.184 HD
ENDROOT
BRANCH   5   9
ATOM      9  C   UNL d   1      28.099 -11.796  -1.366  0.00  0.00     0.142 C 
BRANCH   9  10
ATOM     10  C   UNL d   1      27.459 -11.831   0.018  0.00  0.00     0.057 C 
BRANCH  10  11
ATOM     11  C   UNL d   1      27.740 -13.060   0.827  0.00  0.00    -0.048 A 
ATOM     12  C   UNL d   1      27.741 -13.029   2.160  0.00  0.00    -0.006 A 
ATOM     13  C   UNL d   1      27.536 -11.963   3.074  0.00  0.00     0.014 A 
ATOM     14  C   UNL d   1      28.069 -14.389   2.602  0.00  0.00     0.038 A 
ATOM     15  C   UNL d   1      27.780 -12.190   4.369  0.00  0.00     0.001 A 
ATOM     16  C   UNL d   1      28.094 -13.526   4.855  0.00  0.00     0.002 A 
ATOM     17  C   UNL d   1      28.228 -14.605   4.055  0.00  0.00     0.030 A 
ATOM     18  N   UNL d   1      28.183 -15.191   1.612  0.00  0.00    -0.385 N 
ATOM     19  C   UNL d   1      28.070 -14.439   0.329  0.00  0.00     0.155 A 
ATOM     20  H   UNL d   1      28.328 -16.194   1.734  0.00  0.00     0.160 HD
ENDBRANCH  10  11
ENDBRANCH   9  10
ENDBRANCH   5   9
BRANCH   6  21
ATOM     21  C   UNL d   1      25.971 -11.238  -5.071  0.00  0.00     0.055 A 
ATOM     22  C   UNL d   1      26.632 -11.763  -6.200  0.00  0.00     0.031 A 
ATOM     23  C   UNL d   1      26.994 -10.950  -7.277  0.00  0.00     0.009 A 
ATOM     24  C   UNL d   1      26.628  -9.607  -7.284  0.00  0.00    -0.061 A 
ATOM     25  C   UNL d   1      26.851  -8.743  -8.488  0.00  0.00     0.048 C 
ATOM     26  C   UNL d   1      26.004  -9.067  -6.156  0.00  0.00     0.015 A 
ATOM     27  C   UNL d   1      25.701  -9.855  -5.033  0.00  0.00    -0.034 A 
ATOM     28  C   UNL d   1      25.154  -9.141  -3.828  0.00  0.00     0.050 C 
ENDBRANCH   6  21
BRANCH   1  29
ATOM     29  C   UNL d   1      24.865 -15.591  -1.654  0.00  0.00     0.040 A 
ATOM     30  C   UNL d   1      23.549 -15.994  -1.431  0.00  0.00     0.054 A 
ATOM     31  C   UNL d   1      23.284 -17.127  -0.667  0.00  0.00     0.071 A 
ATOM     32  C   UNL d   1      24.345 -17.790  -0.036  0.00  0.00     0.073 A 
ATOM     33  C   UNL d   1      25.670 -17.390  -0.257  0.00  0.00     0.071 A 
ATOM     34  C   UNL d   1      25.923 -16.286  -1.066  0.00  0.00     0.054 A 
BRANCH  31  35
ATOM     35  O   UNL d   1      22.036 -17.678  -0.527  0.00  0.00    -0.356 OA
ATOM     36  C   UNL d   1      21.981 -19.108  -0.570  0.00  0.00     0.210 C 
ENDBRANCH  31  35
BRANCH  33  37
ATOM     37  O   UNL d   1      26.648 -18.206   0.247  0.00  0.00    -0.356 OA
ATOM     38  C   UNL d   1      27.986 -17.918  -0.145  0.00  0.00     0.210 C 
ENDBRANCH  33  37
ENDBRANCH   1  29
TORSDOF 7
ENDMDL
MODEL 6
REMARK VINA RESULT:    -8.565      2.376      7.895
REMARK INTER + INTRA:         -12.687
REMARK INTER:                 -10.653
REMARK INTRA:                  -2.034
REMARK CONF_INDEPENDENT:        2.088
REMARK UNBOUND:                -2.034
REMARK  7 active torsions:
REMARK  status: ('A' for Active; 'I' for Inactive)
REMARK    1  A    between atoms: O_2  and  C_3 
REMARK    2  A    between atoms: C_5  and  O_6 
REMARK    3  A    between atoms: C_9  and  C_10 
REMARK       I    between atoms: C_10  and  N_12 
REMARK       I    between atoms: C_13  and  N_14 
REMARK       I    between atoms: C_13  and  N_26 
REMARK    4  A    between atoms: N_14  and  C_15 
REMARK    5  A    between atoms: C_15  and  C_16 
REMARK    6  A    between atoms: C_16  and  C_17 
REMARK    7  A    between atoms: N_26  and  C_27 
ROOT
ATOM      1  C   UNL d   1      25.137 -14.373  -2.745  0.00  0.00     0.294 C 
ATOM      2  O   UNL d   1      24.471 -14.257  -3.762  0.00  0.00    -0.265 OA
ATOM      3  N   UNL d   1      26.087 -13.482  -2.300  0.00  0.00    -0.023 NA
ATOM      4  C   UNL d   1      26.249 -12.363  -2.938  0.00  0.00     0.704 C 
ATOM      5  N   UNL d   1      27.082 -11.421  -2.398  0.00  0.00    -0.224 N 
ATOM      6  N   UNL d   1      25.591 -11.970  -4.073  0.00  0.00    -0.190 N 
ATOM      7  H   UNL d   1      27.111 -10.531  -2.884  0.00  0.00     0.177 HD
ATOM      8  H   UNL d   1      24.946 -12.678  -4.438  0.00  0.00     0.184 HD
ENDROOT
BRANCH   5   9
ATOM      9  C   UNL d   1      28.070 -11.708  -1.386  0.00  0.00     0.142 C 
BRANCH   9  10
ATOM     10  C   UNL d   1      27.452 -11.763   0.007  0.00  0.00     0.057 C 
BRANCH  10  11
ATOM     11  C   UNL d   1      27.700 -13.027   0.773  0.00  0.00    -0.048 A 
ATOM     12  C   UNL d   1      27.707 -13.041   2.106  0.00  0.00    -0.006 A 
ATOM     13  C   UNL d   1      27.537 -12.001   3.057  0.00  0.00     0.014 A 
ATOM     14  C   UNL d   1      27.996 -14.424   2.500  0.00  0.00     0.038 A 
ATOM     15  C   UNL d   1      27.779 -12.279   4.342  0.00  0.00     0.001 A 
ATOM     16  C   UNL d   1      28.054 -13.639   4.781  0.00  0.00     0.002 A 
ATOM     17  C   UNL d   1      28.154 -14.694   3.945  0.00  0.00     0.030 A 
ATOM     18  N   UNL d   1      28.082 -15.196   1.483  0.00  0.00    -0.385 N 
ATOM     19  C   UNL d   1      27.986 -14.397   0.227  0.00  0.00     0.155 A 
ATOM     20  H   UNL d   1      28.198 -16.205   1.570  0.00  0.00     0.160 HD
ENDBRANCH  10  11
ENDBRANCH   9  10
ENDBRANCH   5   9
BRANCH   6  21
ATOM     21  C   UNL d   1      25.902 -10.996  -5.041  0.00  0.00     0.055 A 
ATOM     22  C   UNL d   1      26.511 -11.449  -6.230  0.00  0.00     0.031 A 
ATOM     23  C   UNL d   1      26.839 -10.568  -7.263  0.00  0.00     0.009 A 
ATOM     24  C   UNL d   1      26.490  -9.224  -7.164  0.00  0.00    -0.061 A 
ATOM     25  C   UNL d   1      26.675  -8.282  -8.314  0.00  0.00     0.048 C 
ATOM     26  C   UNL d   1      25.919  -8.757  -5.977  0.00  0.00     0.015 A 
ATOM     27  C   UNL d   1      25.651  -9.616  -4.898  0.00  0.00    -0.034 A 
ATOM     28  C   UNL d   1      25.162  -8.982  -3.627  0.00  0.00     0.050 C 
ENDBRANCH   6  21
BRANCH   1  29
ATOM     29  C   UNL d   1      24.928 -15.561  -1.870  0.00  0.00     0.040 A 
ATOM     30  C   UNL d   1      26.033 -16.104  -1.216  0.00  0.00     0.054 A 
ATOM     31  C   UNL d   1      25.866 -17.129  -0.289  0.00  0.00     0.071 A 
ATOM     32  C   UNL d   1      24.591 -17.681  -0.105  0.00  0.00     0.073 A 
ATOM     33  C   UNL d   1      23.476 -17.140  -0.758  0.00  0.00     0.071 A 
ATOM     34  C   UNL d   1      23.652 -16.081  -1.644  0.00  0.00     0.054 A 
BRANCH  31  35
ATOM     35  O   UNL d   1      26.873 -17.610   0.507  0.00  0.00    -0.356 OA
ATOM     36  C   UNL d   1      28.127 -17.834  -0.146  0.00  0.00     0.210 C 
ENDBRANCH  31  35
BRANCH  33  37
ATOM     37  O   UNL d   1      22.250 -17.620  -0.378  0.00  0.00    -0.356 OA
ATOM     38  C   UNL d   1      21.950 -18.964  -0.738  0.00  0.00     0.210 C 
ENDBRANCH  33  37
ENDBRANCH   1  29
TORSDOF 7
ENDMDL
MODEL 7
REMARK VINA RESULT:    -8.343      2.992      6.330
REMARK INTER + INTRA:         -12.340
REMARK INTER:                 -10.432
REMARK INTRA:                  -1.909
REMARK CONF_INDEPENDENT:        2.088
REMARK UNBOUND:                -1.909
REMARK  7 active torsions:
REMARK  status: ('A' for Active; 'I' for Inactive)
REMARK    1  A    between atoms: O_2  and  C_3 
REMARK    2  A    between atoms: C_5  and  O_6 
REMARK    3  A    between atoms: C_9  and  C_10 
REMARK       I    between atoms: C_10  and  N_12 
REMARK       I    between atoms: C_13  and  N_14 
REMARK       I    between atoms: C_13  and  N_26 
REMARK    4  A    between atoms: N_14  and  C_15 
REMARK    5  A    between atoms: C_15  and  C_16 
REMARK    6  A    between atoms: C_16  and  C_17 
REMARK    7  A    between atoms: N_26  and  C_27 
ROOT
ATOM      1  C   UNL d   1      27.727 -17.026  -0.200  0.00  0.00     0.294 C 
ATOM      2  O   UNL d   1      28.152 -18.109   0.170  0.00  0.00    -0.265 OA
ATOM      3  N   UNL d   1      28.466 -15.871  -0.325  0.00  0.00    -0.023 NA
ATOM      4  C   UNL d   1      29.750 -15.923  -0.134  0.00  0.00     0.704 C 
ATOM      5  N   UNL d   1      30.494 -14.808  -0.413  0.00  0.00    -0.224 N 
ATOM      6  N   UNL d   1      30.475 -17.024   0.235  0.00  0.00    -0.190 N 
ATOM      7  H   UNL d   1      31.498 -14.920  -0.333  0.00  0.00     0.177 HD
ATOM      8  H   UNL d   1      29.900 -17.856   0.402  0.00  0.00     0.184 HD
ENDROOT
BRANCH   5   9
ATOM      9  C   UNL d   1      29.936 -13.483  -0.544  0.00  0.00     0.142 C 
BRANCH   9  10
ATOM     10  C   UNL d   1      29.168 -13.067   0.705  0.00  0.00     0.057 C 
BRANCH  10  11
ATOM     11  C   UNL d   1      29.859 -13.334   2.007  0.00  0.00    -0.048 A 
ATOM     12  C   UNL d   1      29.199 -13.820   3.058  0.00  0.00    -0.006 A 
ATOM     13  C   UNL d   1      27.831 -14.151   3.235  0.00  0.00     0.014 A 
ATOM     14  C   UNL d   1      30.180 -13.933   4.143  0.00  0.00     0.038 A 
ATOM     15  C   UNL d   1      27.411 -14.449   4.469  0.00  0.00     0.001 A 
ATOM     16  C   UNL d   1      28.349 -14.586   5.573  0.00  0.00     0.002 A 
ATOM     17  C   UNL d   1      29.676 -14.365   5.464  0.00  0.00     0.030 A 
ATOM     18  N   UNL d   1      31.354 -13.609   3.753  0.00  0.00    -0.385 N 
ATOM     19  C   UNL d   1      31.304 -13.101   2.351  0.00  0.00     0.155 A 
ATOM     20  H   UNL d   1      32.176 -13.704   4.349  0.00  0.00     0.160 HD
ENDBRANCH  10  11
ENDBRANCH   9  10
ENDBRANCH   5   9
BRANCH   6  21
ATOM     21  C   UNL d   1      31.756 -17.148   0.808  0.00  0.00     0.055 A 
ATOM     22  C   UNL d   1      32.100 -16.216   1.808  0.00  0.00     0.031 A 
ATOM     23  C   UNL d   1      33.337 -16.265   2.457  0.00  0.00     0.009 A 
ATOM     24  C   UNL d   1      34.225 -17.300   2.175  0.00  0.00    -0.061 A 
ATOM     25  C   UNL d   1      35.486 -17.482   2.964  0.00  0.00     0.048 C 
ATOM     26  C   UNL d   1      33.910 -18.208   1.162  0.00  0.00     0.015 A 
ATOM     27  C   UNL d   1      32.703 -18.128   0.447  0.00  0.00    -0.034 A 
ATOM     28  C   UNL d   1      32.531 -19.073  -0.709  0.00  0.00     0.050 C 
ENDBRANCH   6  21
BRANCH   1  29
ATOM     29  C   UNL d   1      26.290 -16.896  -0.573  0.00  0.00     0.040 A 
ATOM     30  C   UNL d   1      25.907 -15.820  -1.373  0.00  0.00     0.054 A 
ATOM     31  C   UNL d   1      24.604 -15.732  -1.852  0.00  0.00     0.071 A 
ATOM     32  C   UNL d   1      23.656 -16.675  -1.432  0.00  0.00     0.073 A 
ATOM     33  C   UNL d   1      24.033 -17.759  -0.629  0.00  0.00     0.071 A 
ATOM     34  C   UNL d   1      25.353 -17.863  -0.199  0.00  0.00     0.054 A 
BRANCH  31  35
ATOM     35  O   UNL d   1      24.188 -14.797  -2.765  0.00  0.00    -0.356 OA
ATOM     36  C   UNL d   1      25.143 -14.444  -3.771  0.00  0.00     0.210 C 
ENDBRANCH  31  35
BRANCH  33  37
ATOM     37  O   UNL d   1      23.087 -18.728  -0.422  0.00  0.00    -0.356 OA
ATOM     38  C   UNL d   1      21.769 -18.442  -0.877  0.00  0.00     0.210 C 
ENDBRANCH  33  37
ENDBRANCH   1  29
TORSDOF 7
ENDMDL
MODEL 8
REMARK VINA RESULT:    -8.198      2.947      6.071
REMARK INTER + INTRA:         -12.277
REMARK INTER:                 -10.286
REMARK INTRA:                  -1.991
REMARK CONF_INDEPENDENT:        2.088
REMARK UNBOUND:                -1.991
REMARK  7 active torsions:
REMARK  status: ('A' for Active; 'I' for Inactive)
REMARK    1  A    between atoms: O_2  and  C_3 
REMARK    2  A    between atoms: C_5  and  O_6 
REMARK    3  A    between atoms: C_9  and  C_10 
REMARK       I    between atoms: C_10  and  N_12 
REMARK       I    between atoms: C_13  and  N_14 
REMARK       I    between atoms: C_13  and  N_26 
REMARK    4  A    between atoms: N_14  and  C_15 
REMARK    5  A    between atoms: C_15  and  C_16 
REMARK    6  A    between atoms: C_16  and  C_17 
REMARK    7  A    between atoms: N_26  and  C_27 
ROOT
ATOM      1  C   UNL d   1      27.849 -16.892  -0.412  0.00  0.00     0.294 C 
ATOM      2  O   UNL d   1      28.173 -17.978   0.045  0.00  0.00    -0.265 OA
ATOM      3  N   UNL d   1      28.673 -15.797  -0.544  0.00  0.00    -0.023 NA
ATOM      4  C   UNL d   1      29.934 -15.920  -0.258  0.00  0.00     0.704 C 
ATOM      5  N   UNL d   1      30.770 -14.874  -0.542  0.00  0.00    -0.224 N 
ATOM      6  N   UNL d   1      30.555 -17.042   0.221  0.00  0.00    -0.190 N 
ATOM      7  H   UNL d   1      31.756 -15.046  -0.383  0.00  0.00     0.177 HD
ATOM      8  H   UNL d   1      29.914 -17.824   0.390  0.00  0.00     0.184 HD
ENDROOT
BRANCH   5   9
ATOM      9  C   UNL d   1      30.315 -13.526  -0.784  0.00  0.00     0.142 C 
BRANCH   9  10
ATOM     10  C   UNL d   1      29.551 -12.964   0.410  0.00  0.00     0.057 C 
BRANCH  10  11
ATOM     11  C   UNL d   1      30.141 -13.267   1.754  0.00  0.00    -0.048 A 
ATOM     12  C   UNL d   1      29.402 -13.782   2.737  0.00  0.00    -0.006 A 
ATOM     13  C   UNL d   1      28.025 -14.118   2.798  0.00  0.00     0.014 A 
ATOM     14  C   UNL d   1      30.297 -13.924   3.891  0.00  0.00     0.038 A 
ATOM     15  C   UNL d   1      27.512 -14.450   3.987  0.00  0.00     0.001 A 
ATOM     16  C   UNL d   1      28.363 -14.617   5.157  0.00  0.00     0.002 A 
ATOM     17  C   UNL d   1      29.694 -14.392   5.156  0.00  0.00     0.030 A 
ATOM     18  N   UNL d   1      31.497 -13.589   3.601  0.00  0.00    -0.385 N 
ATOM     19  C   UNL d   1      31.554 -13.042   2.214  0.00  0.00     0.155 A 
ATOM     20  H   UNL d   1      32.270 -13.700   4.257  0.00  0.00     0.160 HD
ENDBRANCH  10  11
ENDBRANCH   9  10
ENDBRANCH   5   9
BRANCH   6  21
ATOM     21  C   UNL d   1      31.781 -17.216   0.891  0.00  0.00     0.055 A 
ATOM     22  C   UNL d   1      32.191 -16.176   1.751  0.00  0.00     0.031 A 
ATOM     23  C   UNL d   1      33.379 -16.257   2.480  0.00  0.00     0.009 A 
ATOM     24  C   UNL d   1      34.145 -17.420   2.428  0.00  0.00    -0.061 A 
ATOM     25  C   UNL d   1      35.335 -17.611   3.319  0.00  0.00     0.048 C 
ATOM     26  C   UNL d   1      33.768 -18.442   1.554  0.00  0.00     0.015 A 
ATOM     27  C   UNL d   1      32.615 -18.344   0.757  0.00  0.00    -0.034 A 
ATOM     28  C   UNL d   1      32.382 -19.443  -0.242  0.00  0.00     0.050 C 
ENDBRANCH   6  21
BRANCH   1  29
ATOM     29  C   UNL d   1      26.454 -16.692  -0.894  0.00  0.00     0.040 A 
ATOM     30  C   UNL d   1      25.431 -17.412  -0.279  0.00  0.00     0.054 A 
ATOM     31  C   UNL d   1      24.101 -17.161  -0.606  0.00  0.00     0.071 A 
ATOM     32  C   UNL d   1      23.811 -16.258  -1.637  0.00  0.00     0.073 A 
ATOM     33  C   UNL d   1      24.834 -15.530  -2.260  0.00  0.00     0.071 A 
ATOM     34  C   UNL d   1      26.155 -15.754  -1.885  0.00  0.00     0.054 A 
BRANCH  31  35
ATOM     35  O   UNL d   1      23.035 -17.710   0.058  0.00  0.00    -0.356 OA
ATOM     36  C   UNL d   1      22.529 -18.935  -0.485  0.00  0.00     0.210 C 
ENDBRANCH  31  35
BRANCH  33  37
ATOM     37  O   UNL d   1      24.444 -14.539  -3.122  0.00  0.00    -0.356 OA
ATOM     38  C   UNL d   1      25.417 -14.082  -4.053  0.00  0.00     0.210 C 
ENDBRANCH  33  37
ENDBRANCH   1  29
TORSDOF 7
ENDMDL
MODEL 9
REMARK VINA RESULT:    -7.558      2.682      7.827
REMARK INTER + INTRA:         -12.228
REMARK INTER:                  -9.646
REMARK INTRA:                  -2.582
REMARK CONF_INDEPENDENT:        2.088
REMARK UNBOUND:                -2.582
REMARK  7 active torsions:
REMARK  status: ('A' for Active; 'I' for Inactive)
REMARK    1  A    between atoms: O_2  and  C_3 
REMARK    2  A    between atoms: C_5  and  O_6 
REMARK    3  A    between atoms: C_9  and  C_10 
REMARK       I    between atoms: C_10  and  N_12 
REMARK       I    between atoms: C_13  and  N_14 
REMARK       I    between atoms: C_13  and  N_26 
REMARK    4  A    between atoms: N_14  and  C_15 
REMARK    5  A    between atoms: C_15  and  C_16 
REMARK    6  A    between atoms: C_16  and  C_17 
REMARK    7  A    between atoms: N_26  and  C_27 
ROOT
ATOM      1  C   UNL d   1      25.275 -14.655  -2.931  0.00  0.00     0.294 C 
ATOM      2  O   UNL d   1      24.921 -14.786  -4.092  0.00  0.00    -0.265 OA
ATOM      3  N   UNL d   1      25.955 -13.577  -2.413  0.00  0.00    -0.023 NA
ATOM      4  C   UNL d   1      26.172 -12.546  -3.173  0.00  0.00     0.704 C 
ATOM      5  N   UNL d   1      26.708 -11.421  -2.606  0.00  0.00    -0.224 N 
ATOM      6  N   UNL d   1      25.830 -12.420  -4.492  0.00  0.00    -0.190 N 
ATOM      7  H   UNL d   1      26.779 -10.614  -3.215  0.00  0.00     0.177 HD
ATOM      8  H   UNL d   1      25.397 -13.263  -4.885  0.00  0.00     0.184 HD
ENDROOT
BRANCH   5   9
ATOM      9  C   UNL d   1      27.388 -11.410  -1.333  0.00  0.00     0.142 C 
BRANCH   9  10
ATOM     10  C   UNL d   1      28.766 -12.056  -1.422  0.00  0.00     0.057 C 
BRANCH  10  11
ATOM     11  C   UNL d   1      28.881 -13.420  -0.813  0.00  0.00    -0.048 A 
ATOM     12  C   UNL d   1      29.084 -14.501  -1.565  0.00  0.00    -0.006 A 
ATOM     13  C   UNL d   1      29.202 -14.659  -2.970  0.00  0.00     0.014 A 
ATOM     14  C   UNL d   1      29.123 -15.641  -0.641  0.00  0.00     0.038 A 
ATOM     15  C   UNL d   1      29.219 -15.902  -3.463  0.00  0.00     0.001 A 
ATOM     16  C   UNL d   1      29.273 -17.062  -2.586  0.00  0.00     0.002 A 
ATOM     17  C   UNL d   1      29.245 -16.987  -1.238  0.00  0.00     0.030 A 
ATOM     18  N   UNL d   1      29.025 -15.264   0.577  0.00  0.00    -0.385 N 
ATOM     19  C   UNL d   1      28.774 -13.794   0.639  0.00  0.00     0.155 A 
ATOM     20  H   UNL d   1      29.115 -15.912   1.360  0.00  0.00     0.160 HD
ENDBRANCH  10  11
ENDBRANCH   9  10
ENDBRANCH   5   9
BRANCH   6  21
ATOM     21  C   UNL d   1      26.298 -11.554  -5.499  0.00  0.00     0.055 A 
ATOM     22  C   UNL d   1      25.646 -10.310  -5.626  0.00  0.00     0.031 A 
ATOM     23  C   UNL d   1      26.047  -9.370  -6.577  0.00  0.00     0.009 A 
ATOM     24  C   UNL d   1      27.164  -9.620  -7.370  0.00  0.00    -0.061 A 
ATOM     25  C   UNL d   1      27.723  -8.572  -8.284  0.00  0.00     0.048 C 
ATOM     26  C   UNL d   1      27.796 -10.863  -7.279  0.00  0.00     0.015 A 
ATOM     27  C   UNL d   1      27.359 -11.849  -6.380  0.00  0.00    -0.034 A 
ATOM     28  C   UNL d   1      28.028 -13.193  -6.464  0.00  0.00     0.050 C 
ENDBRANCH   6  21
BRANCH   1  29
ATOM     29  C   UNL d   1      24.954 -15.728  -1.948  0.00  0.00     0.040 A 
ATOM     30  C   UNL d   1      23.614 -15.970  -1.645  0.00  0.00     0.054 A 
ATOM     31  C   UNL d   1      23.261 -17.045  -0.835  0.00  0.00     0.071 A 
ATOM     32  C   UNL d   1      24.272 -17.813  -0.240  0.00  0.00     0.073 A 
ATOM     33  C   UNL d   1      25.620 -17.576  -0.540  0.00  0.00     0.071 A 
ATOM     34  C   UNL d   1      25.955 -16.529  -1.394  0.00  0.00     0.054 A 
BRANCH  31  35
ATOM     35  O   UNL d   1      21.968 -17.444  -0.616  0.00  0.00    -0.356 OA
ATOM     36  C   UNL d   1      21.746 -18.858  -0.613  0.00  0.00     0.210 C 
ENDBRANCH  31  35
BRANCH  33  37
ATOM     37  O   UNL d   1      26.524 -18.488  -0.062  0.00  0.00    -0.356 OA
ATOM     38  C   UNL d   1      26.655 -18.576   1.352  0.00  0.00     0.210 C 
ENDBRANCH  33  37
ENDBRANCH   1  29
TORSDOF 7
ENDMDL
