MODEL 1
REMARK VINA RESULT:    -8.360      0.000      0.000
REMARK INTER + INTRA:         -11.673
REMARK INTER:                  -9.851
REMARK INTRA:                  -1.822
REMARK CONF_INDEPENDENT:        1.492
REMARK UNBOUND:                -1.822
REMARK  5 active torsions:
REMARK  status: ('A' for Active; 'I' for Inactive)
REMARK    1  A    between atoms: N_7  and  C_8 
REMARK    2  A    between atoms: C_8  and  C_9 
REMARK    3  A    between atoms: C_10  and  O_11 
REMARK    4  A    between atoms: C_17  and  C_18 
REMARK    5  A    between atoms: C_27  and  N_28 
ROOT
ATOM      1  C   UNL d   1      28.726 -14.974  -1.366  0.00  0.00     0.036 C 
ATOM      2  C   UNL d   1      29.962 -15.579  -1.070  0.00  0.00     0.076 C 
ATOM      3  C   UNL d   1      30.017 -16.875  -0.603  0.00  0.00     0.038 C 
ATOM      4  C   UNL d   1      28.869 -17.490  -0.145  0.00  0.00     0.021 C 
ATOM      5  C   UNL d   1      27.617 -16.981  -0.483  0.00  0.00     0.050 A 
ATOM      6  C   UNL d   1      26.401 -17.799  -0.196  0.00  0.00     0.202 A 
ATOM      7  O   UNL d   1      26.501 -18.801   0.465  0.00  0.00    -0.286 OA
ATOM      8  C   UNL d   1      25.122 -17.311  -0.791  0.00  0.00     0.101 A 
ATOM      9  C   UNL d   1      25.156 -16.108  -1.424  0.00  0.00     0.159 A 
ATOM     10  O   UNL d   1      26.299 -15.298  -1.565  0.00  0.00    -0.292 OA
ATOM     11  C   UNL d   1      27.534 -15.757  -1.138  0.00  0.00     0.102 A 
ENDROOT
BRANCH   1  12
ATOM     12  C   UNL d   1      28.591 -13.571  -1.906  0.00  0.00     0.279 C 
BRANCH  12  13
ATOM     13  N   UNL d   1      28.783 -13.373  -3.425  0.00  0.00    -0.066 N 
ATOM     14  C   UNL d   1      28.698 -14.668  -4.287  0.00  0.00     0.235 C 
ATOM     15  C   UNL d   1      27.287 -15.027  -4.664  0.00  0.00     0.028 C 
ATOM     16  C   UNL d   1      26.679 -13.852  -5.395  0.00  0.00     0.012 C 
ATOM     17  C   UNL d   1      26.612 -12.619  -4.475  0.00  0.00    -0.024 C 
ATOM     18  C   UNL d   1      25.769 -12.908  -3.227  0.00  0.00     0.016 C 
ATOM     19  C   UNL d   1      25.901 -11.494  -5.228  0.00  0.00     0.016 C 
ATOM     20  C   UNL d   1      28.042 -12.213  -4.088  0.00  0.00     0.244 C 
ATOM     21  H   UNL d   1      29.728 -12.979  -3.428  0.00  0.00     0.280 HD
ENDBRANCH  12  13
ENDBRANCH   1  12
BRANCH   2  22
ATOM     22  O   UNL d   1      31.233 -15.092  -1.152  0.00  0.00    -0.360 OA
ATOM     23  H   UNL d   1      31.973 -15.674  -0.999  0.00  0.00     0.217 HD
ENDBRANCH   2  22
BRANCH   9  24
ATOM     24  N   UNL d   1      24.022 -15.591  -2.021  0.00  0.00    -0.379 N 
ATOM     25  H   UNL d   1      23.181 -16.180  -1.921  0.00  0.00     0.158 HD
ATOM     26  H   UNL d   1      23.846 -14.599  -2.014  0.00  0.00     0.158 HD
ENDBRANCH   9  24
BRANCH   8  27
ATOM     27  C   UNL d   1      23.817 -17.933  -0.615  0.00  0.00     0.113 C 
ATOM     28  N   UNL d   1      22.788 -17.290  -0.068  0.00  0.00    -0.243 NA
ATOM     29  C   UNL d   1      21.788 -18.202   0.067  0.00  0.00     0.061 C 
ATOM     30  C   UNL d   1      21.395 -18.950   1.188  0.00  0.00     0.029 C 
ATOM     31  C   UNL d   1      21.398 -18.709  -1.173  0.00  0.00     0.103 C 
ATOM     32  C   UNL d   1      20.392 -19.918   1.052  0.00  0.00     0.002 C 
ATOM     33  C   UNL d   1      19.644 -19.974  -0.116  0.00  0.00    -0.002 C 
ATOM     34  C   UNL d   1      20.118 -19.324  -1.270  0.00  0.00     0.003 C 
ATOM     35  S   UNL d   1      23.217 -19.456  -1.374  0.00  0.00    -0.086 SA
ENDBRANCH   8  27
TORSDOF 5
ENDMDL
MODEL 2
REMARK VINA RESULT:    -8.089      2.169      4.476
REMARK INTER + INTRA:         -11.776
REMARK INTER:                  -9.581
REMARK INTRA:                  -2.196
REMARK CONF_INDEPENDENT:        1.492
REMARK UNBOUND:                -2.196
REMARK  5 active torsions:
REMARK  status: ('A' for Active; 'I' for Inactive)
REMARK    1  A    between atoms: N_7  and  C_8 
REMARK    2  A    between atoms: C_8  and  C_9 
REMARK    3  A    between atoms: C_10  and  O_11 
REMARK    4  A    between atoms: C_17  and  C_18 
REMARK    5  A    between atoms: C_27  and  N_28 
ROOT
ATOM      1  C   UNL d   1      29.226 -15.586  -2.147  0.00  0.00     0.036 C 
ATOM      2  C   UNL d   1      29.388 -14.395  -2.879  0.00  0.00     0.076 C 
ATOM      3  C   UNL d   1      28.293 -13.679  -3.311  0.00  0.00     0.038 C 
ATOM      4  C   UNL d   1      27.040 -14.261  -3.290  0.00  0.00     0.021 C 
ATOM      5  C   UNL d   1      26.804 -15.392  -2.512  0.00  0.00     0.050 A 
ATOM      6  C   UNL d   1      25.397 -15.847  -2.305  0.00  0.00     0.202 A 
ATOM      7  O   UNL d   1      24.508 -15.337  -2.937  0.00  0.00    -0.286 OA
ATOM      8  C   UNL d   1      25.191 -16.910  -1.278  0.00  0.00     0.101 A 
ATOM      9  C   UNL d   1      26.308 -17.455  -0.724  0.00  0.00     0.159 A 
ATOM     10  O   UNL d   1      27.631 -17.090  -1.039  0.00  0.00    -0.292 OA
ATOM     11  C   UNL d   1      27.875 -16.029  -1.895  0.00  0.00     0.102 A 
ENDROOT
BRANCH   1  12
ATOM     12  C   UNL d   1      30.377 -16.406  -1.619  0.00  0.00     0.279 C 
BRANCH  12  13
ATOM     13  N   UNL d   1      30.397 -16.712  -0.105  0.00  0.00    -0.066 N 
ATOM     14  C   UNL d   1      31.633 -17.514   0.401  0.00  0.00     0.235 C 
ATOM     15  C   UNL d   1      32.812 -16.635   0.714  0.00  0.00     0.028 C 
ATOM     16  C   UNL d   1      32.379 -15.610   1.737  0.00  0.00     0.012 C 
ATOM     17  C   UNL d   1      31.270 -14.709   1.164  0.00  0.00    -0.024 C 
ATOM     18  C   UNL d   1      31.754 -13.973  -0.092  0.00  0.00     0.016 C 
ATOM     19  C   UNL d   1      30.942 -13.632   2.198  0.00  0.00     0.016 C 
ATOM     20  C   UNL d   1      30.042 -15.575   0.851  0.00  0.00     0.244 C 
ATOM     21  H   UNL d   1      29.535 -17.258  -0.030  0.00  0.00     0.280 HD
ENDBRANCH  12  13
ENDBRANCH   1  12
BRANCH   2  22
ATOM     22  O   UNL d   1      30.518 -13.752  -3.292  0.00  0.00    -0.360 OA
ATOM     23  H   UNL d   1      30.892 -13.953  -4.146  0.00  0.00     0.217 HD
ENDBRANCH   2  22
BRANCH   9  24
ATOM     24  N   UNL d   1      26.209 -18.432   0.249  0.00  0.00    -0.379 N 
ATOM     25  H   UNL d   1      26.564 -18.148   1.175  0.00  0.00     0.158 HD
ATOM     26  H   UNL d   1      25.417 -19.054   0.273  0.00  0.00     0.158 HD
ENDBRANCH   9  24
BRANCH   8  27
ATOM     27  C   UNL d   1      23.914 -17.521  -0.937  0.00  0.00     0.113 C 
ATOM     28  N   UNL d   1      23.715 -18.835  -0.988  0.00  0.00    -0.243 NA
ATOM     29  C   UNL d   1      22.392 -19.037  -0.747  0.00  0.00     0.061 C 
ATOM     30  C   UNL d   1      21.334 -19.250  -1.645  0.00  0.00     0.029 C 
ATOM     31  C   UNL d   1      22.035 -18.574   0.520  0.00  0.00     0.103 C 
ATOM     32  C   UNL d   1      20.023 -19.325  -1.158  0.00  0.00     0.002 C 
ATOM     33  C   UNL d   1      19.802 -19.417   0.210  0.00  0.00    -0.002 C 
ATOM     34  C   UNL d   1      20.835 -19.076   1.101  0.00  0.00     0.003 C 
ATOM     35  S   UNL d   1      22.530 -16.754  -0.070  0.00  0.00    -0.086 SA
ENDBRANCH   8  27
TORSDOF 5
ENDMDL
MODEL 3
REMARK VINA RESULT:    -8.076      3.408      5.830
REMARK INTER + INTRA:         -11.608
REMARK INTER:                  -9.567
REMARK INTRA:                  -2.040
REMARK CONF_INDEPENDENT:        1.492
REMARK UNBOUND:                -2.040
REMARK  5 active torsions:
REMARK  status: ('A' for Active; 'I' for Inactive)
REMARK    1  A    between atoms: N_7  and  C_8 
REMARK    2  A    between atoms: C_8  and  C_9 
REMARK    3  A    between atoms: C_10  and  O_11 
REMARK    4  A    between atoms: C_17  and  C_18 
REMARK    5  A    between atoms: C_27  and  N_28 
ROOT
ATOM      1  C   UNL d   1      27.211 -10.537  -5.763  0.00  0.00     0.036 C 
ATOM      2  C   UNL d   1      28.568 -10.238  -5.984  0.00  0.00     0.076 C 
ATOM      3  C   UNL d   1      29.561 -11.004  -5.412  0.00  0.00     0.038 C 
ATOM      4  C   UNL d   1      29.249 -11.883  -4.394  0.00  0.00     0.021 C 
ATOM      5  C   UNL d   1      27.930 -12.280  -4.187  0.00  0.00     0.050 A 
ATOM      6  C   UNL d   1      27.652 -13.414  -3.257  0.00  0.00     0.202 A 
ATOM      7  O   UNL d   1      28.543 -13.859  -2.579  0.00  0.00    -0.286 OA
ATOM      8  C   UNL d   1      26.257 -13.944  -3.260  0.00  0.00     0.101 A 
ATOM      9  C   UNL d   1      25.343 -13.267  -4.005  0.00  0.00     0.159 A 
ATOM     10  O   UNL d   1      25.613 -12.118  -4.773  0.00  0.00    -0.292 OA
ATOM     11  C   UNL d   1      26.912 -11.656  -4.900  0.00  0.00     0.102 A 
ENDROOT
BRANCH   1  12
ATOM     12  C   UNL d   1      26.073  -9.760  -6.377  0.00  0.00     0.279 C 
BRANCH  12  13
ATOM     13  N   UNL d   1      24.852  -9.459  -5.480  0.00  0.00    -0.066 N 
ATOM     14  C   UNL d   1      25.180  -8.851  -4.084  0.00  0.00     0.235 C 
ATOM     15  C   UNL d   1      25.335  -7.355  -4.120  0.00  0.00     0.028 C 
ATOM     16  C   UNL d   1      24.064  -6.762  -4.681  0.00  0.00     0.012 C 
ATOM     17  C   UNL d   1      23.838  -7.237  -6.128  0.00  0.00    -0.024 C 
ATOM     18  C   UNL d   1      25.009  -6.829  -7.030  0.00  0.00     0.016 C 
ATOM     19  C   UNL d   1      22.598  -6.531  -6.679  0.00  0.00     0.016 C 
ATOM     20  C   UNL d   1      23.655  -8.762  -6.124  0.00  0.00     0.244 C 
ATOM     21  H   UNL d   1      24.463 -10.402  -5.400  0.00  0.00     0.280 HD
ENDBRANCH  12  13
ENDBRANCH   1  12
BRANCH   2  22
ATOM     22  O   UNL d   1      29.152  -9.244  -6.712  0.00  0.00    -0.360 OA
ATOM     23  H   UNL d   1      30.044  -9.353  -7.032  0.00  0.00     0.217 HD
ENDBRANCH   2  22
BRANCH   9  24
ATOM     24  N   UNL d   1      24.032 -13.700  -4.081  0.00  0.00    -0.379 N 
ATOM     25  H   UNL d   1      23.595 -13.575  -5.006  0.00  0.00     0.158 HD
ATOM     26  H   UNL d   1      23.735 -14.523  -3.580  0.00  0.00     0.158 HD
ENDBRANCH   9  24
BRANCH   8  27
ATOM     27  C   UNL d   1      25.760 -15.021  -2.415  0.00  0.00     0.113 C 
ATOM     28  N   UNL d   1      25.155 -16.096  -2.911  0.00  0.00    -0.243 NA
ATOM     29  C   UNL d   1      24.703 -16.813  -1.848  0.00  0.00     0.061 C 
ATOM     30  C   UNL d   1      23.425 -16.861  -1.270  0.00  0.00     0.029 C 
ATOM     31  C   UNL d   1      25.758 -17.224  -1.032  0.00  0.00     0.103 C 
ATOM     32  C   UNL d   1      23.226 -17.602  -0.098  0.00  0.00     0.002 C 
ATOM     33  C   UNL d   1      24.223 -18.458   0.351  0.00  0.00    -0.002 C 
ATOM     34  C   UNL d   1      25.531 -18.314  -0.144  0.00  0.00     0.003 C 
ATOM     35  S   UNL d   1      26.147 -15.319  -0.677  0.00  0.00    -0.086 SA
ENDBRANCH   8  27
TORSDOF 5
ENDMDL
MODEL 4
REMARK VINA RESULT:    -8.041      4.420      6.731
REMARK INTER + INTRA:         -11.263
REMARK INTER:                  -9.533
REMARK INTRA:                  -1.730
REMARK CONF_INDEPENDENT:        1.492
REMARK UNBOUND:                -1.730
REMARK  5 active torsions:
REMARK  status: ('A' for Active; 'I' for Inactive)
REMARK    1  A    between atoms: N_7  and  C_8 
REMARK    2  A    between atoms: C_8  and  C_9 
REMARK    3  A    between atoms: C_10  and  O_11 
REMARK    4  A    between atoms: C_17  and  C_18 
REMARK    5  A    between atoms: C_27  and  N_28 
ROOT
ATOM      1  C   UNL d   1      25.800 -13.151  -2.748  0.00  0.00     0.036 C 
ATOM      2  C   UNL d   1      25.274 -14.280  -3.403  0.00  0.00     0.076 C 
ATOM      3  C   UNL d   1      25.212 -15.499  -2.765  0.00  0.00     0.038 C 
ATOM      4  C   UNL d   1      25.921 -15.701  -1.597  0.00  0.00     0.021 C 
ATOM      5  C   UNL d   1      26.388 -14.613  -0.862  0.00  0.00     0.050 A 
ATOM      6  C   UNL d   1      26.922 -14.844   0.513  0.00  0.00     0.202 A 
ATOM      7  O   UNL d   1      27.093 -15.970   0.902  0.00  0.00    -0.286 OA
ATOM      8  C   UNL d   1      27.183 -13.624   1.333  0.00  0.00     0.101 A 
ATOM      9  C   UNL d   1      27.037 -12.423   0.712  0.00  0.00     0.159 A 
ATOM     10  O   UNL d   1      26.655 -12.244  -0.631  0.00  0.00    -0.292 OA
ATOM     11  C   UNL d   1      26.286 -13.334  -1.400  0.00  0.00     0.102 A 
ENDROOT
BRANCH   1  12
ATOM     12  C   UNL d   1      25.875 -11.780  -3.374  0.00  0.00     0.279 C 
BRANCH  12  13
ATOM     13  N   UNL d   1      25.711 -11.689  -4.907  0.00  0.00    -0.066 N 
ATOM     14  C   UNL d   1      25.530 -10.251  -5.478  0.00  0.00     0.235 C 
ATOM     15  C   UNL d   1      26.839  -9.552  -5.726  0.00  0.00     0.028 C 
ATOM     16  C   UNL d   1      27.660 -10.405  -6.664  0.00  0.00     0.012 C 
ATOM     17  C   UNL d   1      27.978 -11.766  -6.019  0.00  0.00    -0.024 C 
ATOM     18  C   UNL d   1      28.759 -11.586  -4.711  0.00  0.00     0.016 C 
ATOM     19  C   UNL d   1      28.891 -12.547  -6.966  0.00  0.00     0.016 C 
ATOM     20  C   UNL d   1      26.661 -12.516  -5.771  0.00  0.00     0.244 C 
ATOM     21  H   UNL d   1      24.863 -12.250  -5.022  0.00  0.00     0.280 HD
ENDBRANCH  12  13
ENDBRANCH   1  12
BRANCH   2  22
ATOM     22  O   UNL d   1      24.776 -14.424  -4.665  0.00  0.00    -0.360 OA
ATOM     23  H   UNL d   1      24.088 -13.839  -4.972  0.00  0.00     0.217 HD
ENDBRANCH   2  22
BRANCH   9  24
ATOM     24  N   UNL d   1      27.239 -11.242   1.402  0.00  0.00    -0.379 N 
ATOM     25  H   UNL d   1      27.149 -11.326   2.426  0.00  0.00     0.158 HD
ATOM     26  H   UNL d   1      27.933 -10.579   1.093  0.00  0.00     0.158 HD
ENDBRANCH   9  24
BRANCH   8  27
ATOM     27  C   UNL d   1      27.730 -13.614   2.682  0.00  0.00     0.113 C 
ATOM     28  N   UNL d   1      27.030 -13.194   3.732  0.00  0.00    -0.243 NA
ATOM     29  C   UNL d   1      27.884 -13.188   4.791  0.00  0.00     0.061 C 
ATOM     30  C   UNL d   1      28.607 -12.128   5.360  0.00  0.00     0.029 C 
ATOM     31  C   UNL d   1      28.369 -14.469   5.053  0.00  0.00     0.103 C 
ATOM     32  C   UNL d   1      29.517 -12.392   6.391  0.00  0.00     0.002 C 
ATOM     33  C   UNL d   1      29.533 -13.644   6.992  0.00  0.00    -0.002 C 
ATOM     34  C   UNL d   1      28.912 -14.727   6.344  0.00  0.00     0.003 C 
ATOM     35  S   UNL d   1      29.218 -14.450   3.268  0.00  0.00    -0.086 SA
ENDBRANCH   8  27
TORSDOF 5
ENDMDL
MODEL 5
REMARK VINA RESULT:    -8.038      7.137      9.020
REMARK INTER + INTRA:         -11.560
REMARK INTER:                  -9.530
REMARK INTRA:                  -2.030
REMARK CONF_INDEPENDENT:        1.492
REMARK UNBOUND:                -2.030
REMARK  5 active torsions:
REMARK  status: ('A' for Active; 'I' for Inactive)
REMARK    1  A    between atoms: N_7  and  C_8 
REMARK    2  A    between atoms: C_8  and  C_9 
REMARK    3  A    between atoms: C_10  and  O_11 
REMARK    4  A    between atoms: C_17  and  C_18 
REMARK    5  A    between atoms: C_27  and  N_28 
ROOT
ATOM      1  C   UNL d   1      27.278 -13.236   1.400  0.00  0.00     0.036 C 
ATOM      2  C   UNL d   1      27.319 -12.032   0.674  0.00  0.00     0.076 C 
ATOM      3  C   UNL d   1      27.662 -10.848   1.292  0.00  0.00     0.038 C 
ATOM      4  C   UNL d   1      27.685 -10.775   2.671  0.00  0.00     0.021 C 
ATOM      5  C   UNL d   1      27.734 -11.938   3.436  0.00  0.00     0.050 A 
ATOM      6  C   UNL d   1      28.014 -11.831   4.898  0.00  0.00     0.202 A 
ATOM      7  O   UNL d   1      28.031 -10.747   5.423  0.00  0.00    -0.286 OA
ATOM      8  C   UNL d   1      28.288 -13.113   5.613  0.00  0.00     0.101 A 
ATOM      9  C   UNL d   1      28.128 -14.261   4.901  0.00  0.00     0.159 A 
ATOM     10  O   UNL d   1      27.735 -14.330   3.551  0.00  0.00    -0.292 OA
ATOM     11  C   UNL d   1      27.585 -13.171   2.809  0.00  0.00     0.102 A 
ENDROOT
BRANCH   1  12
ATOM     12  C   UNL d   1      26.936 -14.572   0.785  0.00  0.00     0.279 C 
BRANCH  12  13
ATOM     13  N   UNL d   1      27.931 -15.731   1.008  0.00  0.00    -0.066 N 
ATOM     14  C   UNL d   1      27.414 -17.146   0.608  0.00  0.00     0.235 C 
ATOM     15  C   UNL d   1      27.615 -17.450  -0.851  0.00  0.00     0.028 C 
ATOM     16  C   UNL d   1      29.086 -17.306  -1.165  0.00  0.00     0.012 C 
ATOM     17  C   UNL d   1      29.551 -15.858  -0.928  0.00  0.00    -0.024 C 
ATOM     18  C   UNL d   1      28.764 -14.877  -1.806  0.00  0.00     0.016 C 
ATOM     19  C   UNL d   1      31.015 -15.745  -1.355  0.00  0.00     0.016 C 
ATOM     20  C   UNL d   1      29.377 -15.521   0.560  0.00  0.00     0.244 C 
ATOM     21  H   UNL d   1      28.065 -15.650   2.019  0.00  0.00     0.280 HD
ENDBRANCH  12  13
ENDBRANCH   1  12
BRANCH   2  22
ATOM     22  O   UNL d   1      27.053 -11.775  -0.639  0.00  0.00    -0.360 OA
ATOM     23  H   UNL d   1      27.673 -11.268  -1.157  0.00  0.00     0.217 HD
ENDBRANCH   2  22
BRANCH   9  24
ATOM     24  N   UNL d   1      28.380 -15.491   5.479  0.00  0.00    -0.379 N 
ATOM     25  H   UNL d   1      28.928 -16.135   4.889  0.00  0.00     0.158 HD
ATOM     26  H   UNL d   1      28.563 -15.566   6.467  0.00  0.00     0.158 HD
ENDBRANCH   9  24
BRANCH   8  27
ATOM     27  C   UNL d   1      28.553 -13.246   7.038  0.00  0.00     0.113 C 
ATOM     28  N   UNL d   1      29.387 -14.161   7.527  0.00  0.00    -0.243 NA
ATOM     29  C   UNL d   1      29.287 -14.093   8.881  0.00  0.00     0.061 C 
ATOM     30  C   UNL d   1      28.542 -14.884   9.771  0.00  0.00     0.029 C 
ATOM     31  C   UNL d   1      29.668 -12.837   9.352  0.00  0.00     0.103 C 
ATOM     32  C   UNL d   1      28.514 -14.550  11.131  0.00  0.00     0.002 C 
ATOM     33  C   UNL d   1      29.392 -13.592  11.621  0.00  0.00    -0.002 C 
ATOM     34  C   UNL d   1      30.035 -12.721  10.723  0.00  0.00     0.003 C 
ATOM     35  S   UNL d   1      28.155 -12.064   8.343  0.00  0.00    -0.086 SA
ENDBRANCH   8  27
TORSDOF 5
ENDMDL
MODEL 6
REMARK VINA RESULT:    -7.969      8.461     11.361
REMARK INTER + INTRA:         -11.352
REMARK INTER:                  -9.461
REMARK INTRA:                  -1.891
REMARK CONF_INDEPENDENT:        1.492
REMARK UNBOUND:                -1.891
REMARK  5 active torsions:
REMARK  status: ('A' for Active; 'I' for Inactive)
REMARK    1  A    between atoms: N_7  and  C_8 
REMARK    2  A    between atoms: C_8  and  C_9 
REMARK    3  A    between atoms: C_10  and  O_11 
REMARK    4  A    between atoms: C_17  and  C_18 
REMARK    5  A    between atoms: C_27  and  N_28 
ROOT
ATOM      1  C   UNL d   1      28.321 -13.136   5.421  0.00  0.00     0.036 C 
ATOM      2  C   UNL d   1      28.523 -14.374   4.783  0.00  0.00     0.076 C 
ATOM      3  C   UNL d   1      28.291 -14.516   3.432  0.00  0.00     0.038 C 
ATOM      4  C   UNL d   1      27.588 -13.544   2.749  0.00  0.00     0.021 C 
ATOM      5  C   UNL d   1      27.433 -12.273   3.298  0.00  0.00     0.050 A 
ATOM      6  C   UNL d   1      26.897 -11.174   2.441  0.00  0.00     0.202 A 
ATOM      7  O   UNL d   1      26.456 -11.433   1.351  0.00  0.00    -0.286 OA
ATOM      8  C   UNL d   1      26.978  -9.795   3.007  0.00  0.00     0.101 A 
ATOM      9  C   UNL d   1      27.407  -9.682   4.293  0.00  0.00     0.159 A 
ATOM     10  O   UNL d   1      27.784 -10.757   5.120  0.00  0.00    -0.292 OA
ATOM     11  C   UNL d   1      27.842 -12.043   4.607  0.00  0.00     0.102 A 
ENDROOT
BRANCH   1  12
ATOM     12  C   UNL d   1      28.579 -12.900   6.889  0.00  0.00     0.279 C 
BRANCH  12  13
ATOM     13  N   UNL d   1      29.441 -13.941   7.635  0.00  0.00    -0.066 N 
ATOM     14  C   UNL d   1      30.960 -13.610   7.732  0.00  0.00     0.235 C 
ATOM     15  C   UNL d   1      31.290 -12.720   8.899  0.00  0.00     0.028 C 
ATOM     16  C   UNL d   1      30.804 -13.395  10.161  0.00  0.00     0.012 C 
ATOM     17  C   UNL d   1      29.275 -13.566  10.128  0.00  0.00    -0.024 C 
ATOM     18  C   UNL d   1      28.572 -12.208   9.998  0.00  0.00     0.016 C 
ATOM     19  C   UNL d   1      28.827 -14.160  11.464  0.00  0.00     0.016 C 
ATOM     20  C   UNL d   1      28.905 -14.487   8.957  0.00  0.00     0.244 C 
ATOM     21  H   UNL d   1      29.270 -14.759   7.044  0.00  0.00     0.280 HD
ENDBRANCH  12  13
ENDBRANCH   1  12
BRANCH   2  22
ATOM     22  O   UNL d   1      28.932 -15.575   5.283  0.00  0.00    -0.360 OA
ATOM     23  H   UNL d   1      29.345 -16.212   4.705  0.00  0.00     0.217 HD
ENDBRANCH   2  22
BRANCH   9  24
ATOM     24  N   UNL d   1      27.532  -8.442   4.890  0.00  0.00    -0.379 N 
ATOM     25  H   UNL d   1      27.779  -7.680   4.241  0.00  0.00     0.158 HD
ATOM     26  H   UNL d   1      26.921  -8.172   5.645  0.00  0.00     0.158 HD
ENDBRANCH   9  24
BRANCH   8  27
ATOM     27  C   UNL d   1      26.490  -8.586   2.361  0.00  0.00     0.113 C 
ATOM     28  N   UNL d   1      27.168  -7.442   2.382  0.00  0.00    -0.243 NA
ATOM     29  C   UNL d   1      26.365  -6.503   1.813  0.00  0.00     0.061 C 
ATOM     30  C   UNL d   1      25.528  -5.549   2.413  0.00  0.00     0.029 C 
ATOM     31  C   UNL d   1      26.070  -6.829   0.489  0.00  0.00     0.103 C 
ATOM     32  C   UNL d   1      24.705  -4.753   1.607  0.00  0.00     0.002 C 
ATOM     33  C   UNL d   1      24.885  -4.751   0.230  0.00  0.00    -0.002 C 
ATOM     34  C   UNL d   1      25.621  -5.787  -0.371  0.00  0.00     0.003 C 
ATOM     35  S   UNL d   1      25.155  -8.450   1.154  0.00  0.00    -0.086 SA
ENDBRANCH   8  27
TORSDOF 5
ENDMDL
MODEL 7
REMARK VINA RESULT:    -7.895      3.419      7.506
REMARK INTER + INTRA:         -11.121
REMARK INTER:                  -9.387
REMARK INTRA:                  -1.734
REMARK CONF_INDEPENDENT:        1.492
REMARK UNBOUND:                -1.734
REMARK  5 active torsions:
REMARK  status: ('A' for Active; 'I' for Inactive)
REMARK    1  A    between atoms: N_7  and  C_8 
REMARK    2  A    between atoms: C_8  and  C_9 
REMARK    3  A    between atoms: C_10  and  O_11 
REMARK    4  A    between atoms: C_17  and  C_18 
REMARK    5  A    between atoms: C_27  and  N_28 
ROOT
ATOM      1  C   UNL d   1      26.858 -16.331  -0.346  0.00  0.00     0.036 C 
ATOM      2  C   UNL d   1      25.987 -17.435  -0.385  0.00  0.00     0.076 C 
ATOM      3  C   UNL d   1      24.937 -17.474  -1.277  0.00  0.00     0.038 C 
ATOM      4  C   UNL d   1      24.551 -16.322  -1.934  0.00  0.00     0.021 C 
ATOM      5  C   UNL d   1      25.413 -15.229  -2.001  0.00  0.00     0.050 A 
ATOM      6  C   UNL d   1      25.084 -14.102  -2.924  0.00  0.00     0.202 A 
ATOM      7  O   UNL d   1      24.010 -14.075  -3.469  0.00  0.00    -0.286 OA
ATOM      8  C   UNL d   1      26.153 -13.081  -3.127  0.00  0.00     0.101 A 
ATOM      9  C   UNL d   1      27.270 -13.199  -2.360  0.00  0.00     0.159 A 
ATOM     10  O   UNL d   1      27.494 -14.205  -1.401  0.00  0.00    -0.292 OA
ATOM     11  C   UNL d   1      26.588 -15.243  -1.258  0.00  0.00     0.102 A 
ENDROOT
BRANCH   1  12
ATOM     12  C   UNL d   1      28.042 -16.232   0.584  0.00  0.00     0.279 C 
BRANCH  12  13
ATOM     13  N   UNL d   1      29.387 -16.803   0.085  0.00  0.00    -0.066 N 
ATOM     14  C   UNL d   1      29.472 -17.079  -1.446  0.00  0.00     0.235 C 
ATOM     15  C   UNL d   1      29.864 -15.862  -2.238  0.00  0.00     0.028 C 
ATOM     16  C   UNL d   1      31.187 -15.359  -1.707  0.00  0.00     0.012 C 
ATOM     17  C   UNL d   1      31.050 -14.928  -0.236  0.00  0.00    -0.024 C 
ATOM     18  C   UNL d   1      30.006 -13.815  -0.084  0.00  0.00     0.016 C 
ATOM     19  C   UNL d   1      32.384 -14.336   0.219  0.00  0.00     0.016 C 
ATOM     20  C   UNL d   1      30.668 -16.154   0.605  0.00  0.00     0.244 C 
ATOM     21  H   UNL d   1      29.416 -17.670   0.627  0.00  0.00     0.280 HD
ENDBRANCH  12  13
ENDBRANCH   1  12
BRANCH   2  22
ATOM     22  O   UNL d   1      25.966 -18.578   0.359  0.00  0.00    -0.360 OA
ATOM     23  H   UNL d   1      26.737 -18.830   0.861  0.00  0.00     0.217 HD
ENDBRANCH   2  22
BRANCH   9  24
ATOM     24  N   UNL d   1      28.319 -12.308  -2.497  0.00  0.00    -0.379 N 
ATOM     25  H   UNL d   1      29.102 -12.658  -3.068  0.00  0.00     0.158 HD
ATOM     26  H   UNL d   1      28.144 -11.319  -2.580  0.00  0.00     0.158 HD
ENDBRANCH   9  24
BRANCH   8  27
ATOM     27  C   UNL d   1      26.038 -11.890  -3.955  0.00  0.00     0.113 C 
ATOM     28  N   UNL d   1      26.294 -10.670  -3.490  0.00  0.00    -0.243 NA
ATOM     29  C   UNL d   1      25.953  -9.799  -4.477  0.00  0.00     0.061 C 
ATOM     30  C   UNL d   1      24.780  -9.047  -4.650  0.00  0.00     0.029 C 
ATOM     31  C   UNL d   1      26.715 -10.014  -5.625  0.00  0.00     0.103 C 
ATOM     32  C   UNL d   1      24.613  -8.291  -5.817  0.00  0.00     0.002 C 
ATOM     33  C   UNL d   1      25.686  -8.111  -6.680  0.00  0.00    -0.002 C 
ATOM     34  C   UNL d   1      26.804  -8.959  -6.577  0.00  0.00     0.003 C 
ATOM     35  S   UNL d   1      25.906 -11.813  -5.754  0.00  0.00    -0.086 SA
ENDBRANCH   8  27
TORSDOF 5
ENDMDL
MODEL 8
REMARK VINA RESULT:    -7.664      3.466      8.106
REMARK INTER + INTRA:         -11.213
REMARK INTER:                  -9.156
REMARK INTRA:                  -2.057
REMARK CONF_INDEPENDENT:        1.492
REMARK UNBOUND:                -2.057
REMARK  5 active torsions:
REMARK  status: ('A' for Active; 'I' for Inactive)
REMARK    1  A    between atoms: N_7  and  C_8 
REMARK    2  A    between atoms: C_8  and  C_9 
REMARK    3  A    between atoms: C_10  and  O_11 
REMARK    4  A    between atoms: C_17  and  C_18 
REMARK    5  A    between atoms: C_27  and  N_28 
ROOT
ATOM      1  C   UNL d   1      26.519 -16.339  -0.188  0.00  0.00     0.036 C 
ATOM      2  C   UNL d   1      25.412 -17.203  -0.094  0.00  0.00     0.076 C 
ATOM      3  C   UNL d   1      24.656 -17.503  -1.206  0.00  0.00     0.038 C 
ATOM      4  C   UNL d   1      24.789 -16.745  -2.352  0.00  0.00     0.021 C 
ATOM      5  C   UNL d   1      25.909 -15.938  -2.535  0.00  0.00     0.050 A 
ATOM      6  C   UNL d   1      26.154 -15.331  -3.877  0.00  0.00     0.202 A 
ATOM      7  O   UNL d   1      25.306 -15.411  -4.729  0.00  0.00    -0.286 OA
ATOM      8  C   UNL d   1      27.482 -14.679  -4.075  0.00  0.00     0.101 A 
ATOM      9  C   UNL d   1      28.288 -14.582  -2.984  0.00  0.00     0.159 A 
ATOM     10  O   UNL d   1      27.971 -15.052  -1.695  0.00  0.00    -0.292 OA
ATOM     11  C   UNL d   1      26.805 -15.770  -1.484  0.00  0.00     0.102 A 
ENDROOT
BRANCH   1  12
ATOM     12  C   UNL d   1      27.407 -15.987   0.980  0.00  0.00     0.279 C 
BRANCH  12  13
ATOM     13  N   UNL d   1      28.196 -14.662   0.899  0.00  0.00    -0.066 N 
ATOM     14  C   UNL d   1      27.336 -13.381   0.679  0.00  0.00     0.235 C 
ATOM     15  C   UNL d   1      26.800 -12.811   1.964  0.00  0.00     0.028 C 
ATOM     16  C   UNL d   1      27.968 -12.525   2.878  0.00  0.00     0.012 C 
ATOM     17  C   UNL d   1      28.713 -13.826   3.227  0.00  0.00    -0.024 C 
ATOM     18  C   UNL d   1      27.780 -14.825   3.922  0.00  0.00     0.016 C 
ATOM     19  C   UNL d   1      29.819 -13.495   4.229  0.00  0.00     0.016 C 
ATOM     20  C   UNL d   1      29.291 -14.425   1.937  0.00  0.00     0.244 C 
ATOM     21  H   UNL d   1      28.786 -14.864   0.088  0.00  0.00     0.280 HD
ENDBRANCH  12  13
ENDBRANCH   1  12
BRANCH   2  22
ATOM     22  O   UNL d   1      24.884 -17.858   0.980  0.00  0.00    -0.360 OA
ATOM     23  H   UNL d   1      24.034 -18.283   0.904  0.00  0.00     0.217 HD
ENDBRANCH   2  22
BRANCH   9  24
ATOM     24  N   UNL d   1      29.544 -14.011  -3.081  0.00  0.00    -0.379 N 
ATOM     25  H   UNL d   1      29.700 -13.472  -3.946  0.00  0.00     0.158 HD
ATOM     26  H   UNL d   1      30.004 -13.642  -2.264  0.00  0.00     0.158 HD
ENDBRANCH   9  24
BRANCH   8  27
ATOM     27  C   UNL d   1      27.919 -14.002  -5.287  0.00  0.00     0.113 C 
ATOM     28  N   UNL d   1      28.182 -12.698  -5.321  0.00  0.00    -0.243 NA
ATOM     29  C   UNL d   1      28.422 -12.385  -6.622  0.00  0.00     0.061 C 
ATOM     30  C   UNL d   1      27.568 -11.826  -7.587  0.00  0.00     0.029 C 
ATOM     31  C   UNL d   1      29.526 -13.081  -7.113  0.00  0.00     0.103 C 
ATOM     32  C   UNL d   1      28.016 -11.693  -8.908  0.00  0.00     0.002 C 
ATOM     33  C   UNL d   1      29.357 -11.899  -9.203  0.00  0.00    -0.002 C 
ATOM     34  C   UNL d   1      30.172 -12.575  -8.277  0.00  0.00     0.003 C 
ATOM     35  S   UNL d   1      28.529 -14.760  -6.807  0.00  0.00    -0.086 SA
ENDBRANCH   8  27
TORSDOF 5
ENDMDL
MODEL 9
REMARK VINA RESULT:    -7.615      8.316     10.553
REMARK INTER + INTRA:         -11.344
REMARK INTER:                  -9.106
REMARK INTRA:                  -2.238
REMARK CONF_INDEPENDENT:        1.492
REMARK UNBOUND:                -2.238
REMARK  5 active torsions:
REMARK  status: ('A' for Active; 'I' for Inactive)
REMARK    1  A    between atoms: N_7  and  C_8 
REMARK    2  A    between atoms: C_8  and  C_9 
REMARK    3  A    between atoms: C_10  and  O_11 
REMARK    4  A    between atoms: C_17  and  C_18 
REMARK    5  A    between atoms: C_27  and  N_28 
ROOT
ATOM      1  C   UNL d   1      30.163 -11.650   7.494  0.00  0.00     0.036 C 
ATOM      2  C   UNL d   1      29.764 -10.376   7.939  0.00  0.00     0.076 C 
ATOM      3  C   UNL d   1      28.906  -9.604   7.186  0.00  0.00     0.038 C 
ATOM      4  C   UNL d   1      28.661  -9.936   5.868  0.00  0.00     0.021 C 
ATOM      5  C   UNL d   1      28.957 -11.213   5.398  0.00  0.00     0.050 A 
ATOM      6  C   UNL d   1      28.453 -11.626   4.055  0.00  0.00     0.202 A 
ATOM      7  O   UNL d   1      27.944 -10.807   3.334  0.00  0.00    -0.286 OA
ATOM      8  C   UNL d   1      28.596 -13.071   3.711  0.00  0.00     0.101 A 
ATOM      9  C   UNL d   1      29.286 -13.847   4.590  0.00  0.00     0.159 A 
ATOM     10  O   UNL d   1      29.863 -13.396   5.792  0.00  0.00    -0.292 OA
ATOM     11  C   UNL d   1      29.657 -12.094   6.216  0.00  0.00     0.102 A 
ENDROOT
BRANCH   1  12
ATOM     12  C   UNL d   1      31.077 -12.560   8.277  0.00  0.00     0.279 C 
BRANCH  12  13
ATOM     13  N   UNL d   1      30.594 -14.004   8.532  0.00  0.00    -0.066 N 
ATOM     14  C   UNL d   1      31.511 -14.867   9.449  0.00  0.00     0.235 C 
ATOM     15  C   UNL d   1      31.223 -14.671  10.913  0.00  0.00     0.028 C 
ATOM     16  C   UNL d   1      29.765 -14.991  11.154  0.00  0.00     0.012 C 
ATOM     17  C   UNL d   1      28.863 -14.019  10.372  0.00  0.00    -0.024 C 
ATOM     18  C   UNL d   1      29.122 -12.567  10.792  0.00  0.00     0.016 C 
ATOM     19  C   UNL d   1      27.407 -14.321  10.729  0.00  0.00     0.016 C 
ATOM     20  C   UNL d   1      29.118 -14.208   8.870  0.00  0.00     0.244 C 
ATOM     21  H   UNL d   1      30.586 -14.354   7.570  0.00  0.00     0.280 HD
ENDBRANCH  12  13
ENDBRANCH   1  12
BRANCH   2  22
ATOM     22  O   UNL d   1      30.093  -9.684   9.067  0.00  0.00    -0.360 OA
ATOM     23  H   UNL d   1      29.485  -9.659   9.802  0.00  0.00     0.217 HD
ENDBRANCH   2  22
BRANCH   9  24
ATOM     24  N   UNL d   1      29.449 -15.201   4.360  0.00  0.00    -0.379 N 
ATOM     25  H   UNL d   1      28.622 -15.668   3.958  0.00  0.00     0.158 HD
ATOM     26  H   UNL d   1      30.335 -15.564   4.044  0.00  0.00     0.158 HD
ENDBRANCH   9  24
BRANCH   8  27
ATOM     27  C   UNL d   1      28.203 -13.684   2.450  0.00  0.00     0.113 C 
ATOM     28  N   UNL d   1      27.460 -14.786   2.394  0.00  0.00    -0.243 NA
ATOM     29  C   UNL d   1      27.406 -15.150   1.084  0.00  0.00     0.061 C 
ATOM     30  C   UNL d   1      28.156 -16.107   0.383  0.00  0.00     0.029 C 
ATOM     31  C   UNL d   1      26.804 -14.159   0.310  0.00  0.00     0.103 C 
ATOM     32  C   UNL d   1      27.993 -16.230  -1.002  0.00  0.00     0.002 C 
ATOM     33  C   UNL d   1      26.942 -15.575  -1.631  0.00  0.00    -0.002 C 
ATOM     34  C   UNL d   1      26.281 -14.529  -0.962  0.00  0.00     0.003 C 
ATOM     35  S   UNL d   1      28.291 -12.954   0.802  0.00  0.00    -0.086 SA
ENDBRANCH   8  27
TORSDOF 5
ENDMDL
