MODEL 1
REMARK VINA RESULT:   -12.141      0.000      0.000
REMARK INTER + INTRA:         -16.063
REMARK INTER:                 -14.528
REMARK INTRA:                  -1.536
REMARK CONF_INDEPENDENT:        2.386
REMARK UNBOUND:                -1.536
REMARK  8 active torsions:
REMARK  status: ('A' for Active; 'I' for Inactive)
REMARK    1  A    between atoms: C_2  and  C_3 
REMARK       I    between atoms: C_2  and  N_14 
REMARK    2  A    between atoms: C_3  and  C_4 
REMARK    3  A    between atoms: C_4  and  C_5 
REMARK    4  A    between atoms: N_14  and  N_15 
REMARK    5  A    between atoms: C_25  and  S_26 
REMARK    6  A    between atoms: S_26  and  C_27 
REMARK    7  A    between atoms: C_27  and  C_28 
REMARK    8  A    between atoms: C_28  and  C_30 
ROOT
ATOM      1  N   UNL d   1      28.610 -14.461   2.590  0.00  0.00    -0.117 NA
ATOM      2  C   UNL d   1      30.030 -14.260   2.543  0.00  0.00     0.237 C 
ATOM      3  O   UNL d   1      30.778 -14.659   3.388  0.00  0.00    -0.277 OA
ATOM      4  C   UNL d   1      30.516 -13.882   1.152  0.00  0.00     0.120 C 
ATOM      5  C   UNL d   1      29.951 -12.882   0.360  0.00  0.00    -0.003 C 
ATOM      6  C   UNL d   1      29.954 -12.973  -1.067  0.00  0.00    -0.003 C 
ATOM      7  C   UNL d   1      30.693 -13.955  -1.714  0.00  0.00    -0.002 C 
ATOM      8  C   UNL d   1      31.182 -14.971  -0.922  0.00  0.00     0.019 C 
ATOM      9  C   UNL d   1      30.710 -15.037   0.418  0.00  0.00     0.239 C 
ATOM     10  N   UNL d   1      29.410 -15.889   0.623  0.00  0.00     0.131 N 
ATOM     11  C   UNL d   1      28.180 -15.096   1.352  0.00  0.00     0.386 C 
ATOM     12  H   UNL d   1      29.806 -16.511   1.354  0.00  0.00     0.320 HD
ENDROOT
BRANCH   1  13
ATOM     13  N   UNL d   1      28.154 -15.158   3.846  0.00  0.00    -0.280 N 
ATOM     14  C   UNL d   1      28.207 -14.662   5.145  0.00  0.00     0.232 C 
ATOM     15  O   UNL d   1      28.150 -15.414   6.118  0.00  0.00    -0.272 OA
ATOM     16  H   UNL d   1      28.153 -16.182   3.786  0.00  0.00     0.184 HD
BRANCH  14  17
ATOM     17  C   UNL d   1      28.313 -13.175   5.356  0.00  0.00     0.108 C 
BRANCH  17  18
ATOM     18  C   UNL d   1      29.646 -12.700   5.962  0.00  0.00     0.046 C 
BRANCH  18  19
ATOM     19  C   UNL d   1      29.439 -12.134   7.332  0.00  0.00    -0.050 A 
ATOM     20  C   UNL d   1      29.205 -12.868   8.412  0.00  0.00    -0.006 A 
ATOM     21  C   UNL d   1      29.039 -14.258   8.573  0.00  0.00     0.014 C 
ATOM     22  C   UNL d   1      29.023 -11.911   9.513  0.00  0.00     0.038 A 
ATOM     23  C   UNL d   1      28.527 -14.639   9.740  0.00  0.00     0.001 C 
ATOM     24  C   UNL d   1      28.300 -13.705  10.833  0.00  0.00     0.002 C 
ATOM     25  C   UNL d   1      28.682 -12.421  10.834  0.00  0.00     0.030 C 
ATOM     26  N   UNL d   1      29.098 -10.709   9.128  0.00  0.00    -0.385 N 
ATOM     27  C   UNL d   1      29.321 -10.677   7.667  0.00  0.00     0.155 A 
ATOM     28  H   UNL d   1      28.915  -9.931   9.765  0.00  0.00     0.160 HD
ENDBRANCH  18  19
ENDBRANCH  17  18
ENDBRANCH  14  17
ENDBRANCH   1  13
BRANCH  11  29
ATOM     29  S   UNL d   1      27.006 -13.860   0.141  0.00  0.00    -0.109 SA
BRANCH  29  30
ATOM     30  C   UNL d   1      26.170 -14.689  -1.574  0.00  0.00     0.161 C 
BRANCH  30  31
ATOM     31  C   UNL d   1      25.967 -16.313  -1.477  0.00  0.00     0.168 C 
ATOM     32  O   UNL d   1      26.927 -17.063  -1.685  0.00  0.00    -0.292 OA
BRANCH  31  33
ATOM     33  C   UNL d   1      24.679 -17.039  -0.865  0.00  0.00     0.011 C 
ATOM     34  C   UNL d   1      24.628 -18.377  -0.439  0.00  0.00     0.017 C 
ATOM     35  C   UNL d   1      23.379 -19.068  -0.284  0.00  0.00     0.025 C 
ATOM     36  C   UNL d   1      22.157 -18.414  -0.456  0.00  0.00     0.034 C 
ATOM     37 CL   UNL d   1      20.726 -19.330  -0.806  0.00  0.00    -0.084 Cl
ATOM     38  C   UNL d   1      22.164 -17.039  -0.653  0.00  0.00     0.025 C 
ATOM     39  C   UNL d   1      23.411 -16.371  -0.889  0.00  0.00     0.017 C 
ENDBRANCH  31  33
ENDBRANCH  30  31
ENDBRANCH  29  30
ENDBRANCH  11  29
TORSDOF 8
ENDMDL
MODEL 2
REMARK VINA RESULT:   -10.728      2.204      3.589
REMARK INTER + INTRA:         -15.595
REMARK INTER:                 -13.114
REMARK INTRA:                  -2.481
REMARK CONF_INDEPENDENT:        2.386
REMARK UNBOUND:                -2.481
REMARK  8 active torsions:
REMARK  status: ('A' for Active; 'I' for Inactive)
REMARK    1  A    between atoms: C_2  and  C_3 
REMARK       I    between atoms: C_2  and  N_14 
REMARK    2  A    between atoms: C_3  and  C_4 
REMARK    3  A    between atoms: C_4  and  C_5 
REMARK    4  A    between atoms: N_14  and  N_15 
REMARK    5  A    between atoms: C_25  and  S_26 
REMARK    6  A    between atoms: S_26  and  C_27 
REMARK    7  A    between atoms: C_27  and  C_28 
REMARK    8  A    between atoms: C_28  and  C_30 
ROOT
ATOM      1  N   UNL d   1      28.719 -14.192   2.950  0.00  0.00    -0.117 NA
ATOM      2  C   UNL d   1      30.082 -13.821   2.700  0.00  0.00     0.237 C 
ATOM      3  O   UNL d   1      30.979 -14.072   3.451  0.00  0.00    -0.277 OA
ATOM      4  C   UNL d   1      30.330 -13.474   1.240  0.00  0.00     0.120 C 
ATOM      5  C   UNL d   1      29.541 -12.602   0.488  0.00  0.00    -0.003 C 
ATOM      6  C   UNL d   1      29.370 -12.781  -0.920  0.00  0.00    -0.003 C 
ATOM      7  C   UNL d   1      30.140 -13.703  -1.617  0.00  0.00    -0.002 C 
ATOM      8  C   UNL d   1      30.856 -14.600  -0.855  0.00  0.00     0.019 C 
ATOM      9  C   UNL d   1      30.574 -14.640   0.539  0.00  0.00     0.239 C 
ATOM     10  N   UNL d   1      29.434 -15.630   0.959  0.00  0.00     0.131 N 
ATOM     11  C   UNL d   1      28.217 -14.950   1.813  0.00  0.00     0.386 C 
ATOM     12  H   UNL d   1      29.999 -16.153   1.656  0.00  0.00     0.320 HD
ENDROOT
BRANCH   1  13
ATOM     13  N   UNL d   1      28.525 -14.859   4.287  0.00  0.00    -0.280 N 
ATOM     14  C   UNL d   1      28.325 -14.235   5.514  0.00  0.00     0.232 C 
ATOM     15  O   UNL d   1      28.530 -14.828   6.573  0.00  0.00    -0.272 OA
ATOM     16  H   UNL d   1      28.931 -15.799   4.355  0.00  0.00     0.184 HD
BRANCH  14  17
ATOM     17  C   UNL d   1      27.826 -12.814   5.538  0.00  0.00     0.108 C 
BRANCH  17  18
ATOM     18  C   UNL d   1      28.903 -11.745   5.281  0.00  0.00     0.046 C 
BRANCH  18  19
ATOM     19  C   UNL d   1      28.285 -10.464   4.815  0.00  0.00    -0.050 A 
ATOM     20  C   UNL d   1      27.535 -10.354   3.726  0.00  0.00    -0.006 A 
ATOM     21  C   UNL d   1      27.176 -11.300   2.746  0.00  0.00     0.014 C 
ATOM     22  C   UNL d   1      27.181  -8.931   3.628  0.00  0.00     0.038 A 
ATOM     23  C   UNL d   1      26.655 -10.795   1.631  0.00  0.00     0.001 C 
ATOM     24  C   UNL d   1      26.332  -9.382   1.492  0.00  0.00     0.002 C 
ATOM     25  C   UNL d   1      26.405  -8.481   2.480  0.00  0.00     0.030 C 
ATOM     26  N   UNL d   1      27.704  -8.236   4.546  0.00  0.00    -0.385 N 
ATOM     27  C   UNL d   1      28.529  -9.108   5.408  0.00  0.00     0.155 A 
ATOM     28  H   UNL d   1      27.613  -7.219   4.565  0.00  0.00     0.160 HD
ENDBRANCH  18  19
ENDBRANCH  17  18
ENDBRANCH  14  17
ENDBRANCH   1  13
BRANCH  11  29
ATOM     29  S   UNL d   1      26.745 -13.945   0.719  0.00  0.00    -0.109 SA
BRANCH  29  30
ATOM     30  C   UNL d   1      26.280 -14.665  -1.177  0.00  0.00     0.161 C 
BRANCH  30  31
ATOM     31  C   UNL d   1      26.011 -16.282  -1.209  0.00  0.00     0.168 C 
ATOM     32  O   UNL d   1      26.945 -17.053  -1.449  0.00  0.00    -0.292 OA
BRANCH  31  33
ATOM     33  C   UNL d   1      24.679 -16.998  -0.685  0.00  0.00     0.011 C 
ATOM     34  C   UNL d   1      24.591 -18.332  -0.252  0.00  0.00     0.017 C 
ATOM     35  C   UNL d   1      23.332 -19.017  -0.182  0.00  0.00     0.025 C 
ATOM     36  C   UNL d   1      22.128 -18.361  -0.449  0.00  0.00     0.034 C 
ATOM     37 CL   UNL d   1      20.723 -19.276  -0.895  0.00  0.00    -0.084 Cl
ATOM     38  C   UNL d   1      22.155 -16.988  -0.658  0.00  0.00     0.025 C 
ATOM     39  C   UNL d   1      23.418 -16.326  -0.809  0.00  0.00     0.017 C 
ENDBRANCH  31  33
ENDBRANCH  30  31
ENDBRANCH  29  30
ENDBRANCH  11  29
TORSDOF 8
ENDMDL
MODEL 3
REMARK VINA RESULT:   -10.710      3.235      9.376
REMARK INTER + INTRA:         -15.674
REMARK INTER:                 -13.096
REMARK INTRA:                  -2.578
REMARK CONF_INDEPENDENT:        2.386
REMARK UNBOUND:                -2.578
REMARK  8 active torsions:
REMARK  status: ('A' for Active; 'I' for Inactive)
REMARK    1  A    between atoms: C_2  and  C_3 
REMARK       I    between atoms: C_2  and  N_14 
REMARK    2  A    between atoms: C_3  and  C_4 
REMARK    3  A    between atoms: C_4  and  C_5 
REMARK    4  A    between atoms: N_14  and  N_15 
REMARK    5  A    between atoms: C_25  and  S_26 
REMARK    6  A    between atoms: S_26  and  C_27 
REMARK    7  A    between atoms: C_27  and  C_28 
REMARK    8  A    between atoms: C_28  and  C_30 
ROOT
ATOM      1  N   UNL d   1      29.530 -14.506   1.741  0.00  0.00    -0.117 NA
ATOM      2  C   UNL d   1      28.146 -14.712   2.057  0.00  0.00     0.237 C 
ATOM      3  O   UNL d   1      27.529 -15.676   1.706  0.00  0.00    -0.277 OA
ATOM      4  C   UNL d   1      27.674 -13.830   3.202  0.00  0.00     0.120 C 
ATOM      5  C   UNL d   1      27.896 -12.454   3.285  0.00  0.00    -0.003 C 
ATOM      6  C   UNL d   1      28.048 -11.801   4.547  0.00  0.00    -0.003 C 
ATOM      7  C   UNL d   1      27.781 -12.474   5.732  0.00  0.00    -0.002 C 
ATOM      8  C   UNL d   1      27.636 -13.841   5.637  0.00  0.00     0.019 C 
ATOM      9  C   UNL d   1      27.984 -14.448   4.399  0.00  0.00     0.239 C 
ATOM     10  N   UNL d   1      29.484 -14.885   4.271  0.00  0.00     0.131 N 
ATOM     11  C   UNL d   1      30.268 -14.270   2.974  0.00  0.00     0.386 C 
ATOM     12  H   UNL d   1      29.286 -15.875   4.027  0.00  0.00     0.320 HD
ENDROOT
BRANCH   1  13
ATOM     13  N   UNL d   1      30.102 -15.587   0.862  0.00  0.00    -0.280 N 
ATOM     14  C   UNL d   1      29.632 -15.991  -0.384  0.00  0.00     0.232 C 
ATOM     15  O   UNL d   1      29.931 -17.088  -0.855  0.00  0.00    -0.272 OA
ATOM     16  H   UNL d   1      30.630 -16.309   1.366  0.00  0.00     0.184 HD
BRANCH  14  17
ATOM     17  C   UNL d   1      28.760 -15.052  -1.175  0.00  0.00     0.108 C 
BRANCH  17  18
ATOM     18  C   UNL d   1      28.002 -15.704  -2.346  0.00  0.00     0.046 C 
BRANCH  18  19
ATOM     19  C   UNL d   1      26.532 -15.752  -2.070  0.00  0.00    -0.050 A 
ATOM     20  C   UNL d   1      25.966 -16.572  -1.194  0.00  0.00    -0.006 A 
ATOM     21  C   UNL d   1      26.512 -17.584  -0.381  0.00  0.00     0.014 C 
ATOM     22  C   UNL d   1      24.522 -16.312  -1.280  0.00  0.00     0.038 A 
ATOM     23  C   UNL d   1      25.630 -18.415   0.166  0.00  0.00     0.001 C 
ATOM     24  C   UNL d   1      24.193 -18.203   0.062  0.00  0.00     0.002 C 
ATOM     25  C   UNL d   1      23.617 -17.119  -0.471  0.00  0.00     0.030 C 
ATOM     26  N   UNL d   1      24.235 -15.447  -2.157  0.00  0.00    -0.385 N 
ATOM     27  C   UNL d   1      25.475 -15.002  -2.827  0.00  0.00     0.155 A 
ATOM     28  H   UNL d   1      23.266 -15.219  -2.386  0.00  0.00     0.160 HD
ENDBRANCH  18  19
ENDBRANCH  17  18
ENDBRANCH  14  17
ENDBRANCH   1  13
BRANCH  11  29
ATOM     29  S   UNL d   1      31.001 -12.320   3.153  0.00  0.00    -0.109 SA
BRANCH  29  30
ATOM     30  C   UNL d   1      31.963 -11.801   4.922  0.00  0.00     0.161 C 
BRANCH  30  31
ATOM     31  C   UNL d   1      30.952 -11.173   6.051  0.00  0.00     0.168 C 
ATOM     32  O   UNL d   1      30.301 -10.156   5.790  0.00  0.00    -0.292 OA
BRANCH  31  33
ATOM     33  C   UNL d   1      30.513 -11.914   7.399  0.00  0.00     0.011 C 
ATOM     34  C   UNL d   1      30.675 -13.285   7.661  0.00  0.00     0.017 C 
ATOM     35  C   UNL d   1      29.919 -13.949   8.684  0.00  0.00     0.025 C 
ATOM     36  C   UNL d   1      29.059 -13.243   9.529  0.00  0.00     0.034 C 
ATOM     37 CL   UNL d   1      27.781 -14.076  10.356  0.00  0.00    -0.084 Cl
ATOM     38  C   UNL d   1      29.045 -11.857   9.451  0.00  0.00     0.025 C 
ATOM     39  C   UNL d   1      29.736 -11.207   8.376  0.00  0.00     0.017 C 
ENDBRANCH  31  33
ENDBRANCH  30  31
ENDBRANCH  29  30
ENDBRANCH  11  29
TORSDOF 8
ENDMDL
MODEL 4
REMARK VINA RESULT:   -10.544      4.035      6.810
REMARK INTER + INTRA:         -15.603
REMARK INTER:                 -12.931
REMARK INTRA:                  -2.673
REMARK CONF_INDEPENDENT:        2.386
REMARK UNBOUND:                -2.673
REMARK  8 active torsions:
REMARK  status: ('A' for Active; 'I' for Inactive)
REMARK    1  A    between atoms: C_2  and  C_3 
REMARK       I    between atoms: C_2  and  N_14 
REMARK    2  A    between atoms: C_3  and  C_4 
REMARK    3  A    between atoms: C_4  and  C_5 
REMARK    4  A    between atoms: N_14  and  N_15 
REMARK    5  A    between atoms: C_25  and  S_26 
REMARK    6  A    between atoms: S_26  and  C_27 
REMARK    7  A    between atoms: C_27  and  C_28 
REMARK    8  A    between atoms: C_28  and  C_30 
ROOT
ATOM      1  N   UNL d   1      28.613 -15.269   0.625  0.00  0.00    -0.117 NA
ATOM      2  C   UNL d   1      29.811 -14.811  -0.017  0.00  0.00     0.237 C 
ATOM      3  O   UNL d   1      30.651 -14.169   0.544  0.00  0.00    -0.277 OA
ATOM      4  C   UNL d   1      30.100 -15.560  -1.309  0.00  0.00     0.120 C 
ATOM      5  C   UNL d   1      29.168 -15.775  -2.324  0.00  0.00    -0.003 C 
ATOM      6  C   UNL d   1      29.220 -16.945  -3.145  0.00  0.00    -0.003 C 
ATOM      7  C   UNL d   1      30.312 -17.801  -3.092  0.00  0.00    -0.002 C 
ATOM      8  C   UNL d   1      31.183 -17.615  -2.040  0.00  0.00     0.019 C 
ATOM      9  C   UNL d   1      30.773 -16.728  -1.007  0.00  0.00     0.239 C 
ATOM     10  N   UNL d   1      29.960 -17.393   0.157  0.00  0.00     0.131 N 
ATOM     11  C   UNL d   1      28.504 -16.711   0.451  0.00  0.00     0.386 C 
ATOM     12  H   UNL d   1      30.578 -17.061   0.922  0.00  0.00     0.320 HD
ENDROOT
BRANCH   1  13
ATOM     13  N   UNL d   1      28.489 -14.796   2.050  0.00  0.00    -0.280 N 
ATOM     14  C   UNL d   1      27.721 -13.734   2.516  0.00  0.00     0.232 C 
ATOM     15  O   UNL d   1      27.951 -13.208   3.605  0.00  0.00    -0.272 OA
ATOM     16  H   UNL d   1      29.292 -15.026   2.646  0.00  0.00     0.184 HD
BRANCH  14  17
ATOM     17  C   UNL d   1      26.572 -13.239   1.677  0.00  0.00     0.108 C 
BRANCH  17  18
ATOM     18  C   UNL d   1      26.222 -14.128   0.470  0.00  0.00     0.046 C 
BRANCH  18  19
ATOM     19  C   UNL d   1      26.648 -13.482  -0.811  0.00  0.00    -0.050 A 
ATOM     20  C   UNL d   1      26.268 -13.894  -2.014  0.00  0.00    -0.006 A 
ATOM     21  C   UNL d   1      25.476 -14.987  -2.414  0.00  0.00     0.014 C 
ATOM     22  C   UNL d   1      26.950 -13.011  -2.971  0.00  0.00     0.038 A 
ATOM     23  C   UNL d   1      25.529 -15.287  -3.709  0.00  0.00     0.001 C 
ATOM     24  C   UNL d   1      26.231 -14.451  -4.673  0.00  0.00     0.002 C 
ATOM     25  C   UNL d   1      26.780 -13.261  -4.397  0.00  0.00     0.030 C 
ATOM     26  N   UNL d   1      27.706 -12.171  -2.404  0.00  0.00    -0.385 N 
ATOM     27  C   UNL d   1      27.664 -12.386  -0.942  0.00  0.00     0.155 A 
ATOM     28  H   UNL d   1      28.305 -11.542  -2.941  0.00  0.00     0.160 HD
ENDBRANCH  18  19
ENDBRANCH  17  18
ENDBRANCH  14  17
ENDBRANCH   1  13
BRANCH  11  29
ATOM     29  S   UNL d   1      26.923 -17.288  -0.791  0.00  0.00    -0.109 SA
BRANCH  29  30
ATOM     30  C   UNL d   1      25.209 -18.051   0.108  0.00  0.00     0.161 C 
BRANCH  30  31
ATOM     31  C   UNL d   1      23.886 -17.984  -0.859  0.00  0.00     0.168 C 
ATOM     32  O   UNL d   1      24.023 -17.790  -2.071  0.00  0.00    -0.292 OA
BRANCH  31  33
ATOM     33  C   UNL d   1      22.410 -18.419  -0.419  0.00  0.00     0.011 C 
ATOM     34  C   UNL d   1      21.967 -18.561   0.906  0.00  0.00     0.017 C 
ATOM     35  C   UNL d   1      20.794 -19.323   1.229  0.00  0.00     0.025 C 
ATOM     36  C   UNL d   1      19.987 -19.877   0.232  0.00  0.00     0.034 C 
ATOM     37 CL   UNL d   1      18.937 -21.206   0.607  0.00  0.00    -0.084 Cl
ATOM     38  C   UNL d   1      20.265 -19.566  -1.093  0.00  0.00     0.025 C 
ATOM     39  C   UNL d   1      21.481 -18.876  -1.412  0.00  0.00     0.017 C 
ENDBRANCH  31  33
ENDBRANCH  30  31
ENDBRANCH  29  30
ENDBRANCH  11  29
TORSDOF 8
ENDMDL
MODEL 5
REMARK VINA RESULT:   -10.487      1.824      2.888
REMARK INTER + INTRA:         -15.597
REMARK INTER:                 -12.873
REMARK INTRA:                  -2.724
REMARK CONF_INDEPENDENT:        2.386
REMARK UNBOUND:                -2.724
REMARK  8 active torsions:
REMARK  status: ('A' for Active; 'I' for Inactive)
REMARK    1  A    between atoms: C_2  and  C_3 
REMARK       I    between atoms: C_2  and  N_14 
REMARK    2  A    between atoms: C_3  and  C_4 
REMARK    3  A    between atoms: C_4  and  C_5 
REMARK    4  A    between atoms: N_14  and  N_15 
REMARK    5  A    between atoms: C_25  and  S_26 
REMARK    6  A    between atoms: S_26  and  C_27 
REMARK    7  A    between atoms: C_27  and  C_28 
REMARK    8  A    between atoms: C_28  and  C_30 
ROOT
ATOM      1  N   UNL d   1      30.511 -14.093   1.162  0.00  0.00    -0.117 NA
ATOM      2  C   UNL d   1      31.505 -14.874   0.482  0.00  0.00     0.237 C 
ATOM      3  O   UNL d   1      32.484 -15.301   1.021  0.00  0.00    -0.277 OA
ATOM      4  C   UNL d   1      30.994 -15.446  -0.831  0.00  0.00     0.120 C 
ATOM      5  C   UNL d   1      30.335 -14.706  -1.814  0.00  0.00    -0.003 C 
ATOM      6  C   UNL d   1      29.345 -15.304  -2.655  0.00  0.00    -0.003 C 
ATOM      7  C   UNL d   1      29.152 -16.679  -2.658  0.00  0.00    -0.002 C 
ATOM      8  C   UNL d   1      29.754 -17.381  -1.636  0.00  0.00     0.019 C 
ATOM      9  C   UNL d   1      30.322 -16.625  -0.574  0.00  0.00     0.239 C 
ATOM     10  N   UNL d   1      29.345 -16.303   0.609  0.00  0.00     0.131 N 
ATOM     11  C   UNL d   1      29.207 -14.714   0.969  0.00  0.00     0.386 C 
ATOM     12  H   UNL d   1      29.946 -16.702   1.355  0.00  0.00     0.320 HD
ENDROOT
BRANCH   1  13
ATOM     13  N   UNL d   1      30.865 -13.807   2.597  0.00  0.00    -0.280 N 
ATOM     14  C   UNL d   1      30.490 -12.697   3.348  0.00  0.00     0.232 C 
ATOM     15  O   UNL d   1      31.102 -12.378   4.367  0.00  0.00    -0.272 OA
ATOM     16  H   UNL d   1      31.728 -14.260   2.920  0.00  0.00     0.184 HD
BRANCH  14  17
ATOM     17  C   UNL d   1      29.295 -11.891   2.912  0.00  0.00     0.108 C 
BRANCH  17  18
ATOM     18  C   UNL d   1      27.938 -12.425   3.406  0.00  0.00     0.046 C 
BRANCH  18  19
ATOM     19  C   UNL d   1      28.117 -13.340   4.576  0.00  0.00    -0.050 A 
ATOM     20  C   UNL d   1      28.396 -12.928   5.807  0.00  0.00    -0.006 A 
ATOM     21  C   UNL d   1      28.639 -11.640   6.322  0.00  0.00     0.014 C 
ATOM     22  C   UNL d   1      28.527 -14.148   6.615  0.00  0.00     0.038 A 
ATOM     23  C   UNL d   1      29.176 -11.605   7.538  0.00  0.00     0.001 C 
ATOM     24  C   UNL d   1      29.354 -12.803   8.346  0.00  0.00     0.002 C 
ATOM     25  C   UNL d   1      28.901 -14.020   8.018  0.00  0.00     0.030 C 
ATOM     26  N   UNL d   1      28.385 -15.202   5.931  0.00  0.00    -0.385 N 
ATOM     27  C   UNL d   1      28.155 -14.838   4.517  0.00  0.00     0.155 A 
ATOM     28  H   UNL d   1      28.526 -16.128   6.339  0.00  0.00     0.160 HD
ENDBRANCH  18  19
ENDBRANCH  17  18
ENDBRANCH  14  17
ENDBRANCH   1  13
BRANCH  11  29
ATOM     29  S   UNL d   1      27.910 -13.586  -0.221  0.00  0.00    -0.109 SA
BRANCH  29  30
ATOM     30  C   UNL d   1      26.183 -14.510  -0.924  0.00  0.00     0.161 C 
BRANCH  30  31
ATOM     31  C   UNL d   1      25.963 -16.019  -0.320  0.00  0.00     0.168 C 
ATOM     32  O   UNL d   1      26.698 -16.429   0.584  0.00  0.00    -0.292 OA
BRANCH  31  33
ATOM     33  C   UNL d   1      24.689 -16.943  -0.609  0.00  0.00     0.011 C 
ATOM     34  C   UNL d   1      23.434 -16.482  -1.039  0.00  0.00     0.017 C 
ATOM     35  C   UNL d   1      22.250 -17.280  -0.894  0.00  0.00     0.025 C 
ATOM     36  C   UNL d   1      22.308 -18.588  -0.408  0.00  0.00     0.034 C 
ATOM     37 CL   UNL d   1      20.889 -19.325   0.267  0.00  0.00    -0.084 Cl
ATOM     38  C   UNL d   1      23.555 -19.158  -0.187  0.00  0.00     0.025 C 
ATOM     39  C   UNL d   1      24.725 -18.332  -0.253  0.00  0.00     0.017 C 
ENDBRANCH  31  33
ENDBRANCH  30  31
ENDBRANCH  29  30
ENDBRANCH  11  29
TORSDOF 8
ENDMDL
MODEL 6
REMARK VINA RESULT:    -9.933      3.928      6.068
REMARK INTER + INTRA:         -15.974
REMARK INTER:                 -12.319
REMARK INTRA:                  -3.654
REMARK CONF_INDEPENDENT:        2.386
REMARK UNBOUND:                -3.654
REMARK  8 active torsions:
REMARK  status: ('A' for Active; 'I' for Inactive)
REMARK    1  A    between atoms: C_2  and  C_3 
REMARK       I    between atoms: C_2  and  N_14 
REMARK    2  A    between atoms: C_3  and  C_4 
REMARK    3  A    between atoms: C_4  and  C_5 
REMARK    4  A    between atoms: N_14  and  N_15 
REMARK    5  A    between atoms: C_25  and  S_26 
REMARK    6  A    between atoms: S_26  and  C_27 
REMARK    7  A    between atoms: C_27  and  C_28 
REMARK    8  A    between atoms: C_28  and  C_30 
ROOT
ATOM      1  N   UNL d   1      28.895 -15.401  -0.707  0.00  0.00    -0.117 NA
ATOM      2  C   UNL d   1      28.883 -16.820  -0.924  0.00  0.00     0.237 C 
ATOM      3  O   UNL d   1      29.866 -17.501  -0.863  0.00  0.00    -0.277 OA
ATOM      4  C   UNL d   1      27.486 -17.411  -0.817  0.00  0.00     0.120 C 
ATOM      5  C   UNL d   1      26.360 -16.905  -1.466  0.00  0.00    -0.003 C 
ATOM      6  C   UNL d   1      25.056 -17.019  -0.891  0.00  0.00    -0.003 C 
ATOM      7  C   UNL d   1      24.841 -17.812   0.229  0.00  0.00    -0.002 C 
ATOM      8  C   UNL d   1      25.968 -18.242   0.896  0.00  0.00     0.019 C 
ATOM      9  C   UNL d   1      27.210 -17.667   0.513  0.00  0.00     0.239 C 
ATOM     10  N   UNL d   1      27.603 -16.359   1.283  0.00  0.00     0.131 N 
ATOM     11  C   UNL d   1      27.924 -15.072   0.327  0.00  0.00     0.386 C 
ATOM     12  H   UNL d   1      28.530 -16.699   1.604  0.00  0.00     0.320 HD
ENDROOT
BRANCH   1  13
ATOM     13  N   UNL d   1      30.278 -14.852  -0.470  0.00  0.00    -0.280 N 
ATOM     14  C   UNL d   1      30.674 -13.521  -0.543  0.00  0.00     0.232 C 
ATOM     15  O   UNL d   1      31.858 -13.214  -0.685  0.00  0.00    -0.272 OA
ATOM     16  H   UNL d   1      31.035 -15.526  -0.631  0.00  0.00     0.184 HD
BRANCH  14  17
ATOM     17  C   UNL d   1      29.632 -12.440  -0.423  0.00  0.00     0.108 C 
BRANCH  17  18
ATOM     18  C   UNL d   1      29.576 -11.745   0.950  0.00  0.00     0.046 C 
BRANCH  18  19
ATOM     19  C   UNL d   1      29.929 -12.700   2.047  0.00  0.00    -0.050 A 
ATOM     20  C   UNL d   1      29.037 -13.298   2.827  0.00  0.00    -0.006 A 
ATOM     21  C   UNL d   1      27.635 -13.185   2.892  0.00  0.00     0.014 C 
ATOM     22  C   UNL d   1      29.817 -14.102   3.780  0.00  0.00     0.038 A 
ATOM     23  C   UNL d   1      27.070 -13.700   3.981  0.00  0.00     0.001 C 
ATOM     24  C   UNL d   1      27.827 -14.467   4.960  0.00  0.00     0.002 C 
ATOM     25  C   UNL d   1      29.107 -14.833   4.822  0.00  0.00     0.030 C 
ATOM     26  N   UNL d   1      31.064 -13.969   3.620  0.00  0.00    -0.385 N 
ATOM     27  C   UNL d   1      31.317 -13.012   2.523  0.00  0.00     0.155 A 
ATOM     28  H   UNL d   1      31.734 -14.405   4.257  0.00  0.00     0.160 HD
ENDBRANCH  18  19
ENDBRANCH  17  18
ENDBRANCH  14  17
ENDBRANCH   1  13
BRANCH  11  29
ATOM     29  S   UNL d   1      26.280 -13.990  -0.381  0.00  0.00    -0.109 SA
BRANCH  29  30
ATOM     30  C   UNL d   1      26.408 -13.163  -2.285  0.00  0.00     0.161 C 
BRANCH  30  31
ATOM     31  C   UNL d   1      26.146 -14.251  -3.485  0.00  0.00     0.168 C 
ATOM     32  O   UNL d   1      24.997 -14.450  -3.890  0.00  0.00    -0.292 OA
BRANCH  31  33
ATOM     33  C   UNL d   1      27.292 -14.908  -4.389  0.00  0.00     0.011 C 
ATOM     34  C   UNL d   1      28.339 -15.714  -3.913  0.00  0.00     0.017 C 
ATOM     35  C   UNL d   1      29.530 -15.932  -4.685  0.00  0.00     0.025 C 
ATOM     36  C   UNL d   1      29.659 -15.431  -5.982  0.00  0.00     0.034 C 
ATOM     37 CL   UNL d   1      31.236 -15.219  -6.675  0.00  0.00    -0.084 Cl
ATOM     38  C   UNL d   1      28.557 -14.825  -6.571  0.00  0.00     0.025 C 
ATOM     39  C   UNL d   1      27.403 -14.537  -5.770  0.00  0.00     0.017 C 
ENDBRANCH  31  33
ENDBRANCH  30  31
ENDBRANCH  29  30
ENDBRANCH  11  29
TORSDOF 8
ENDMDL
MODEL 7
REMARK VINA RESULT:    -9.592      3.728      8.994
REMARK INTER + INTRA:         -15.402
REMARK INTER:                 -11.979
REMARK INTRA:                  -3.423
REMARK CONF_INDEPENDENT:        2.386
REMARK UNBOUND:                -3.423
REMARK  8 active torsions:
REMARK  status: ('A' for Active; 'I' for Inactive)
REMARK    1  A    between atoms: C_2  and  C_3 
REMARK       I    between atoms: C_2  and  N_14 
REMARK    2  A    between atoms: C_3  and  C_4 
REMARK    3  A    between atoms: C_4  and  C_5 
REMARK    4  A    between atoms: N_14  and  N_15 
REMARK    5  A    between atoms: C_25  and  S_26 
REMARK    6  A    between atoms: S_26  and  C_27 
REMARK    7  A    between atoms: C_27  and  C_28 
REMARK    8  A    between atoms: C_28  and  C_30 
ROOT
ATOM      1  N   UNL d   1      28.695 -15.147  -0.901  0.00  0.00    -0.117 NA
ATOM      2  C   UNL d   1      28.585 -16.444  -1.504  0.00  0.00     0.237 C 
ATOM      3  O   UNL d   1      29.530 -17.079  -1.872  0.00  0.00    -0.277 OA
ATOM      4  C   UNL d   1      27.234 -17.092  -1.243  0.00  0.00     0.120 C 
ATOM      5  C   UNL d   1      26.004 -16.463  -1.436  0.00  0.00    -0.003 C 
ATOM      6  C   UNL d   1      24.869 -16.783  -0.627  0.00  0.00    -0.003 C 
ATOM      7  C   UNL d   1      24.899 -17.869   0.238  0.00  0.00    -0.002 C 
ATOM      8  C   UNL d   1      26.136 -18.431   0.470  0.00  0.00     0.019 C 
ATOM      9  C   UNL d   1      27.271 -17.725  -0.016  0.00  0.00     0.239 C 
ATOM     10  N   UNL d   1      27.879 -16.677   0.980  0.00  0.00     0.131 N 
ATOM     11  C   UNL d   1      28.007 -15.161   0.383  0.00  0.00     0.386 C 
ATOM     12  H   UNL d   1      28.843 -17.061   0.963  0.00  0.00     0.320 HD
ENDROOT
BRANCH   1  13
ATOM     13  N   UNL d   1      30.112 -14.639  -0.850  0.00  0.00    -0.280 N 
ATOM     14  C   UNL d   1      30.559 -13.367  -1.195  0.00  0.00     0.232 C 
ATOM     15  O   UNL d   1      31.742 -13.155  -1.459  0.00  0.00    -0.272 OA
ATOM     16  H   UNL d   1      30.829 -15.370  -0.924  0.00  0.00     0.184 HD
BRANCH  14  17
ATOM     17  C   UNL d   1      29.574 -12.228  -1.221  0.00  0.00     0.108 C 
BRANCH  17  18
ATOM     18  C   UNL d   1      29.214 -11.715  -2.626  0.00  0.00     0.046 C 
BRANCH  18  19
ATOM     19  C   UNL d   1      27.782 -12.006  -2.952  0.00  0.00    -0.050 A 
ATOM     20  C   UNL d   1      27.351 -13.163  -3.439  0.00  0.00    -0.006 A 
ATOM     21  C   UNL d   1      28.045 -14.330  -3.814  0.00  0.00     0.014 C 
ATOM     22  C   UNL d   1      25.906 -12.994  -3.647  0.00  0.00     0.038 A 
ATOM     23  C   UNL d   1      27.348 -15.200  -4.539  0.00  0.00     0.001 C 
ATOM     24  C   UNL d   1      25.923 -15.037  -4.793  0.00  0.00     0.002 C 
ATOM     25  C   UNL d   1      25.153 -14.089  -4.244  0.00  0.00     0.030 C 
ATOM     26  N   UNL d   1      25.506 -11.831  -3.354  0.00  0.00    -0.385 N 
ATOM     27  C   UNL d   1      26.658 -11.014  -2.918  0.00  0.00     0.155 A 
ATOM     28  H   UNL d   1      24.541 -11.539  -3.520  0.00  0.00     0.160 HD
ENDBRANCH  18  19
ENDBRANCH  17  18
ENDBRANCH  14  17
ENDBRANCH   1  13
BRANCH  11  29
ATOM     29  S   UNL d   1      26.280 -13.982   0.421  0.00  0.00    -0.109 SA
BRANCH  29  30
ATOM     30  C   UNL d   1      26.378 -12.145   1.390  0.00  0.00     0.161 C 
BRANCH  30  31
ATOM     31  C   UNL d   1      27.674 -12.004   2.385  0.00  0.00     0.168 C 
ATOM     32  O   UNL d   1      28.615 -11.272   2.064  0.00  0.00    -0.292 OA
BRANCH  31  33
ATOM     33  C   UNL d   1      27.728 -12.528   3.896  0.00  0.00     0.011 C 
ATOM     34  C   UNL d   1      27.793 -11.711   5.037  0.00  0.00     0.017 C 
ATOM     35  C   UNL d   1      28.237 -12.221   6.303  0.00  0.00     0.025 C 
ATOM     36  C   UNL d   1      28.530 -13.575   6.480  0.00  0.00     0.034 C 
ATOM     37 CL   UNL d   1      29.555 -14.075   7.788  0.00  0.00    -0.084 Cl
ATOM     38  C   UNL d   1      28.259 -14.454   5.439  0.00  0.00     0.025 C 
ATOM     39  C   UNL d   1      27.897 -13.929   4.155  0.00  0.00     0.017 C 
ENDBRANCH  31  33
ENDBRANCH  30  31
ENDBRANCH  29  30
ENDBRANCH  11  29
TORSDOF 8
ENDMDL
MODEL 8
REMARK VINA RESULT:    -9.378      2.802      3.990
REMARK INTER + INTRA:         -15.573
REMARK INTER:                 -11.764
REMARK INTRA:                  -3.809
REMARK CONF_INDEPENDENT:        2.386
REMARK UNBOUND:                -3.809
REMARK  8 active torsions:
REMARK  status: ('A' for Active; 'I' for Inactive)
REMARK    1  A    between atoms: C_2  and  C_3 
REMARK       I    between atoms: C_2  and  N_14 
REMARK    2  A    between atoms: C_3  and  C_4 
REMARK    3  A    between atoms: C_4  and  C_5 
REMARK    4  A    between atoms: N_14  and  N_15 
REMARK    5  A    between atoms: C_25  and  S_26 
REMARK    6  A    between atoms: S_26  and  C_27 
REMARK    7  A    between atoms: C_27  and  C_28 
REMARK    8  A    between atoms: C_28  and  C_30 
ROOT
ATOM      1  N   UNL d   1      32.028 -12.807   3.134  0.00  0.00    -0.117 NA
ATOM      2  C   UNL d   1      33.269 -13.469   2.852  0.00  0.00     0.237 C 
ATOM      3  O   UNL d   1      34.235 -13.378   3.552  0.00  0.00    -0.277 OA
ATOM      4  C   UNL d   1      33.108 -14.599   1.846  0.00  0.00     0.120 C 
ATOM      5  C   UNL d   1      32.437 -14.486   0.629  0.00  0.00    -0.003 C 
ATOM      6  C   UNL d   1      31.753 -15.601   0.050  0.00  0.00    -0.003 C 
ATOM      7  C   UNL d   1      31.904 -16.877   0.576  0.00  0.00    -0.002 C 
ATOM      8  C   UNL d   1      32.506 -16.959   1.813  0.00  0.00     0.019 C 
ATOM      9  C   UNL d   1      32.714 -15.741   2.517  0.00  0.00     0.239 C 
ATOM     10  N   UNL d   1      31.528 -15.298   3.442  0.00  0.00     0.131 N 
ATOM     11  C   UNL d   1      30.957 -13.795   3.149  0.00  0.00     0.386 C 
ATOM     12  H   UNL d   1      32.095 -15.211   4.308  0.00  0.00     0.320 HD
ENDROOT
BRANCH   1  13
ATOM     13  N   UNL d   1      32.092 -11.930   4.357  0.00  0.00    -0.280 N 
ATOM     14  C   UNL d   1      31.555 -10.655   4.503  0.00  0.00     0.232 C 
ATOM     15  O   UNL d   1      31.952  -9.891   5.383  0.00  0.00    -0.272 OA
ATOM     16  H   UNL d   1      32.885 -12.126   4.979  0.00  0.00     0.184 HD
BRANCH  14  17
ATOM     17  C   UNL d   1      30.451 -10.217   3.577  0.00  0.00     0.108 C 
BRANCH  17  18
ATOM     18  C   UNL d   1      29.058 -10.131   4.227  0.00  0.00     0.046 C 
BRANCH  18  19
ATOM     19  C   UNL d   1      28.295 -11.402   4.026  0.00  0.00    -0.050 A 
ATOM     20  C   UNL d   1      28.433 -12.480   4.787  0.00  0.00    -0.006 A 
ATOM     21  C   UNL d   1      29.292 -12.750   5.870  0.00  0.00     0.014 C 
ATOM     22  C   UNL d   1      27.536 -13.492   4.210  0.00  0.00     0.038 A 
ATOM     23  C   UNL d   1      29.381 -14.029   6.223  0.00  0.00     0.001 C 
ATOM     24  C   UNL d   1      28.532 -15.058   5.640  0.00  0.00     0.002 C 
ATOM     25  C   UNL d   1      27.516 -14.826   4.799  0.00  0.00     0.030 C 
ATOM     26  N   UNL d   1      26.943 -13.081   3.172  0.00  0.00    -0.385 N 
ATOM     27  C   UNL d   1      27.383 -11.702   2.873  0.00  0.00     0.155 A 
ATOM     28  H   UNL d   1      26.347 -13.698   2.617  0.00  0.00     0.160 HD
ENDBRANCH  18  19
ENDBRANCH  17  18
ENDBRANCH  14  17
ENDBRANCH   1  13
BRANCH  11  29
ATOM     29  S   UNL d   1      29.608 -13.591   1.564  0.00  0.00    -0.109 SA
BRANCH  29  30
ATOM     30  C   UNL d   1      28.616 -15.297   0.906  0.00  0.00     0.161 C 
BRANCH  30  31
ATOM     31  C   UNL d   1      27.054 -15.019   0.491  0.00  0.00     0.168 C 
ATOM     32  O   UNL d   1      26.620 -13.863   0.481  0.00  0.00    -0.292 OA
BRANCH  31  33
ATOM     33  C   UNL d   1      26.080 -16.099  -0.178  0.00  0.00     0.011 C 
ATOM     34  C   UNL d   1      25.006 -15.803  -1.034  0.00  0.00     0.017 C 
ATOM     35  C   UNL d   1      23.951 -16.747  -1.270  0.00  0.00     0.025 C 
ATOM     36  C   UNL d   1      23.993 -18.037  -0.735  0.00  0.00     0.034 C 
ATOM     37 CL   UNL d   1      22.528 -18.949  -0.557  0.00  0.00    -0.084 Cl
ATOM     38  C   UNL d   1      25.145 -18.441  -0.072  0.00  0.00     0.025 C 
ATOM     39  C   UNL d   1      26.157 -17.472   0.231  0.00  0.00     0.017 C 
ENDBRANCH  31  33
ENDBRANCH  30  31
ENDBRANCH  29  30
ENDBRANCH  11  29
TORSDOF 8
ENDMDL
