MODEL 1
REMARK VINA RESULT:    -8.235      0.000      0.000
REMARK INTER + INTRA:          -9.745
REMARK INTER:                  -9.428
REMARK INTRA:                  -0.317
REMARK CONF_INDEPENDENT:        1.193
REMARK UNBOUND:                -0.317
REMARK  4 active torsions:
REMARK  status: ('A' for Active; 'I' for Inactive)
REMARK    1  A    between atoms: C_5  and  N_6 
REMARK       I    between atoms: N_6  and  C_7 
REMARK       I    between atoms: C_7  and  N_9 
REMARK    2  A    between atoms: N_9  and  N_10 
REMARK    3  A    between atoms: C_11  and  C_12 
REMARK    4  A    between atoms: C_18  and  O_19 
ROOT
ATOM      1  N   UNL d   1      22.414 -18.227   0.431  0.00  0.00    -0.308 N 
ATOM      2  C   UNL d   1      23.235 -17.898  -0.652  0.00  0.00     0.341 C 
ATOM      3  O   UNL d   1      22.986 -18.202  -1.823  0.00  0.00    -0.245 OA
ATOM      4  N   UNL d   1      24.399 -17.183  -0.352  0.00  0.00    -0.229 N 
ATOM      5  H   UNL d   1      22.689 -17.929   1.355  0.00  0.00     0.170 HD
ATOM      6  H   UNL d   1      24.663 -16.890   0.575  0.00  0.00     0.194 HD
ENDROOT
BRANCH   4   7
ATOM      7  N   UNL d   1      25.196 -16.868  -1.432  0.00  0.00    -0.182 NA
ATOM      8  C   UNL d   1      25.276 -15.679  -1.933  0.00  0.00     0.153 C 
BRANCH   8   9
ATOM      9  C   UNL d   1      26.157 -15.382  -3.122  0.00  0.00     0.017 A 
ATOM     10  C   UNL d   1      27.489 -15.828  -3.119  0.00  0.00     0.034 A 
ATOM     11  C   UNL d   1      28.329 -15.549  -4.209  0.00  0.00     0.011 A 
ATOM     12 BR   UNL d   1      30.126 -16.152  -4.206  0.00  0.00    -0.051 Br
ATOM     13  C   UNL d   1      27.865 -14.829  -5.308  0.00  0.00     0.022 A 
ATOM     14  C   UNL d   1      26.543 -14.389  -5.327  0.00  0.00     0.039 A 
ATOM     15  C   UNL d   1      25.699 -14.663  -4.244  0.00  0.00     0.077 A 
BRANCH  15  16
ATOM     16  O   UNL d   1      24.413 -14.216  -4.294  0.00  0.00    -0.360 OA
ATOM     17  H   UNL d   1      24.238 -13.674  -5.075  0.00  0.00     0.217 HD
ENDBRANCH  15  16
ENDBRANCH   8   9
ENDBRANCH   4   7
BRANCH   1  18
ATOM     18  C   UNL d   1      21.177 -18.956   0.320  0.00  0.00     0.036 A 
ATOM     19  C   UNL d   1      20.435 -18.963  -0.873  0.00  0.00     0.030 A 
ATOM     20  C   UNL d   1      19.226 -19.700  -0.976  0.00  0.00     0.009 A 
ATOM     21  C   UNL d   1      18.738 -20.441   0.107  0.00  0.00    -0.062 A 
ATOM     22  C   UNL d   1      17.480 -21.255   0.049  0.00  0.00     0.048 C 
ATOM     23  C   UNL d   1      19.466 -20.425   1.289  0.00  0.00     0.009 A 
ATOM     24  C   UNL d   1      20.652 -19.696   1.386  0.00  0.00     0.030 A 
ENDBRANCH   1  18
TORSDOF 4
ENDMDL
MODEL 2
REMARK VINA RESULT:    -7.251      4.172      9.739
REMARK INTER + INTRA:          -8.814
REMARK INTER:                  -8.444
REMARK INTRA:                  -0.370
REMARK CONF_INDEPENDENT:        1.193
REMARK UNBOUND:                -0.370
REMARK  4 active torsions:
REMARK  status: ('A' for Active; 'I' for Inactive)
REMARK    1  A    between atoms: C_5  and  N_6 
REMARK       I    between atoms: N_6  and  C_7 
REMARK       I    between atoms: C_7  and  N_9 
REMARK    2  A    between atoms: N_9  and  N_10 
REMARK    3  A    between atoms: C_11  and  C_12 
REMARK    4  A    between atoms: C_18  and  O_19 
ROOT
ATOM      1  N   UNL d   1      25.800 -12.087  -5.456  0.00  0.00    -0.308 N 
ATOM      2  C   UNL d   1      25.645 -13.278  -4.741  0.00  0.00     0.341 C 
ATOM      3  O   UNL d   1      26.385 -14.259  -4.865  0.00  0.00    -0.245 OA
ATOM      4  N   UNL d   1      24.573 -13.325  -3.843  0.00  0.00    -0.229 N 
ATOM      5  H   UNL d   1      25.155 -11.331  -5.285  0.00  0.00     0.170 HD
ATOM      6  H   UNL d   1      23.935 -12.563  -3.679  0.00  0.00     0.194 HD
ENDROOT
BRANCH   4   7
ATOM      7  N   UNL d   1      24.435 -14.508  -3.147  0.00  0.00    -0.182 NA
ATOM      8  C   UNL d   1      25.173 -14.828  -2.135  0.00  0.00     0.153 C 
BRANCH   8   9
ATOM      9  C   UNL d   1      24.990 -16.138  -1.408  0.00  0.00     0.017 A 
ATOM     10  C   UNL d   1      23.706 -16.702  -1.322  0.00  0.00     0.034 A 
ATOM     11  C   UNL d   1      23.513 -17.913  -0.637  0.00  0.00     0.011 A 
ATOM     12 BR   UNL d   1      21.781 -18.675  -0.520  0.00  0.00    -0.051 Br
ATOM     13  C   UNL d   1      24.580 -18.575  -0.033  0.00  0.00     0.022 A 
ATOM     14  C   UNL d   1      25.859 -18.030  -0.120  0.00  0.00     0.039 A 
ATOM     15  C   UNL d   1      26.060 -16.823  -0.801  0.00  0.00     0.077 A 
BRANCH  15  16
ATOM     16  O   UNL d   1      27.324 -16.317  -0.865  0.00  0.00    -0.360 OA
ATOM     17  H   UNL d   1      27.934 -16.765  -0.264  0.00  0.00     0.217 HD
ENDBRANCH  15  16
ENDBRANCH   8   9
ENDBRANCH   4   7
BRANCH   1  18
ATOM     18  C   UNL d   1      26.843 -11.850  -6.422  0.00  0.00     0.036 A 
ATOM     19  C   UNL d   1      28.120 -12.416  -6.274  0.00  0.00     0.030 A 
ATOM     20  C   UNL d   1      29.134 -12.190  -7.241  0.00  0.00     0.009 A 
ATOM     21  C   UNL d   1      28.891 -11.398  -8.370  0.00  0.00    -0.062 A 
ATOM     22  C   UNL d   1      29.916 -11.142  -9.435  0.00  0.00     0.048 C 
ATOM     23  C   UNL d   1      27.633 -10.830  -8.510  0.00  0.00     0.009 A 
ATOM     24  C   UNL d   1      26.640 -11.053  -7.553  0.00  0.00     0.030 A 
ENDBRANCH   1  18
TORSDOF 4
ENDMDL
MODEL 3
REMARK VINA RESULT:    -7.218      4.139      9.961
REMARK INTER + INTRA:          -8.718
REMARK INTER:                  -8.412
REMARK INTRA:                  -0.307
REMARK CONF_INDEPENDENT:        1.193
REMARK UNBOUND:                -0.307
REMARK  4 active torsions:
REMARK  status: ('A' for Active; 'I' for Inactive)
REMARK    1  A    between atoms: C_5  and  N_6 
REMARK       I    between atoms: N_6  and  C_7 
REMARK       I    between atoms: C_7  and  N_9 
REMARK    2  A    between atoms: N_9  and  N_10 
REMARK    3  A    between atoms: C_11  and  C_12 
REMARK    4  A    between atoms: C_18  and  O_19 
ROOT
ATOM      1  N   UNL d   1      27.412 -13.520  -6.143  0.00  0.00    -0.308 N 
ATOM      2  C   UNL d   1      27.016 -14.520  -5.249  0.00  0.00     0.341 C 
ATOM      3  O   UNL d   1      27.696 -15.516  -4.983  0.00  0.00    -0.245 OA
ATOM      4  N   UNL d   1      25.768 -14.348  -4.642  0.00  0.00    -0.229 N 
ATOM      5  H   UNL d   1      26.798 -12.735  -6.295  0.00  0.00     0.170 HD
ATOM      6  H   UNL d   1      25.162 -13.558  -4.800  0.00  0.00     0.194 HD
ENDROOT
BRANCH   4   7
ATOM      7  N   UNL d   1      25.393 -15.343  -3.764  0.00  0.00    -0.182 NA
ATOM      8  C   UNL d   1      25.798 -15.399  -2.537  0.00  0.00     0.153 C 
BRANCH   8   9
ATOM      9  C   UNL d   1      25.368 -16.512  -1.614  0.00  0.00     0.017 A 
ATOM     10  C   UNL d   1      24.034 -16.954  -1.645  0.00  0.00     0.034 A 
ATOM     11  C   UNL d   1      23.611 -17.979  -0.783  0.00  0.00     0.011 A 
ATOM     12 BR   UNL d   1      21.812 -18.575  -0.824  0.00  0.00    -0.051 Br
ATOM     13  C   UNL d   1      24.496 -18.575   0.113  0.00  0.00     0.022 A 
ATOM     14  C   UNL d   1      25.823 -18.152   0.146  0.00  0.00     0.039 A 
ATOM     15  C   UNL d   1      26.252 -17.131  -0.710  0.00  0.00     0.077 A 
BRANCH  15  16
ATOM     16  O   UNL d   1      27.557 -16.740  -0.650  0.00  0.00    -0.360 OA
ATOM     17  H   UNL d   1      27.923 -16.804   0.243  0.00  0.00     0.217 HD
ENDBRANCH  15  16
ENDBRANCH   8   9
ENDBRANCH   4   7
BRANCH   1  18
ATOM     18  C   UNL d   1      28.661 -13.522  -6.861  0.00  0.00     0.036 A 
ATOM     19  C   UNL d   1      28.932 -12.574  -7.862  0.00  0.00     0.030 A 
ATOM     20  C   UNL d   1      30.174 -12.575  -8.550  0.00  0.00     0.009 A 
ATOM     21  C   UNL d   1      31.163 -13.519  -8.251  0.00  0.00    -0.062 A 
ATOM     22  C   UNL d   1      32.501 -13.555  -8.929  0.00  0.00     0.048 C 
ATOM     23  C   UNL d   1      30.891 -14.462  -7.270  0.00  0.00     0.009 A 
ATOM     24  C   UNL d   1      29.667 -14.459  -6.599  0.00  0.00     0.030 A 
ENDBRANCH   1  18
TORSDOF 4
ENDMDL
MODEL 4
REMARK VINA RESULT:    -6.770      7.318      9.269
REMARK INTER + INTRA:          -8.935
REMARK INTER:                  -7.963
REMARK INTRA:                  -0.972
REMARK CONF_INDEPENDENT:        1.193
REMARK UNBOUND:                -0.972
REMARK  4 active torsions:
REMARK  status: ('A' for Active; 'I' for Inactive)
REMARK    1  A    between atoms: C_5  and  N_6 
REMARK       I    between atoms: N_6  and  C_7 
REMARK       I    between atoms: C_7  and  N_9 
REMARK    2  A    between atoms: N_9  and  N_10 
REMARK    3  A    between atoms: C_11  and  C_12 
REMARK    4  A    between atoms: C_18  and  O_19 
ROOT
ATOM      1  N   UNL d   1      29.367 -14.131   4.580  0.00  0.00    -0.308 N 
ATOM      2  C   UNL d   1      28.385 -14.324   3.603  0.00  0.00     0.341 C 
ATOM      3  O   UNL d   1      27.186 -14.083   3.773  0.00  0.00    -0.245 OA
ATOM      4  N   UNL d   1      28.827 -14.825   2.374  0.00  0.00    -0.229 N 
ATOM      5  H   UNL d   1      30.326 -14.345   4.354  0.00  0.00     0.170 HD
ATOM      6  H   UNL d   1      29.789 -15.035   2.157  0.00  0.00     0.194 HD
ENDROOT
BRANCH   4   7
ATOM      7  N   UNL d   1      27.847 -15.010   1.422  0.00  0.00    -0.182 NA
ATOM      8  C   UNL d   1      27.501 -16.172   0.975  0.00  0.00     0.153 C 
BRANCH   8   9
ATOM      9  C   UNL d   1      26.426 -16.326  -0.074  0.00  0.00     0.017 A 
ATOM     10  C   UNL d   1      25.445 -17.318   0.089  0.00  0.00     0.034 A 
ATOM     11  C   UNL d   1      24.445 -17.487  -0.883  0.00  0.00     0.011 A 
ATOM     12 BR   UNL d   1      23.121 -18.825  -0.665  0.00  0.00    -0.051 Br
ATOM     13  C   UNL d   1      24.405 -16.682  -2.020  0.00  0.00     0.022 A 
ATOM     14  C   UNL d   1      25.367 -15.688  -2.188  0.00  0.00     0.039 A 
ATOM     15  C   UNL d   1      26.367 -15.514  -1.223  0.00  0.00     0.077 A 
BRANCH  15  16
ATOM     16  O   UNL d   1      27.293 -14.534  -1.419  0.00  0.00    -0.360 OA
ATOM     17  H   UNL d   1      27.655 -14.193  -0.590  0.00  0.00     0.217 HD
ENDBRANCH  15  16
ENDBRANCH   8   9
ENDBRANCH   4   7
BRANCH   1  18
ATOM     18  C   UNL d   1      29.106 -13.623   5.903  0.00  0.00     0.036 A 
ATOM     19  C   UNL d   1      28.422 -12.412   6.101  0.00  0.00     0.030 A 
ATOM     20  C   UNL d   1      28.155 -11.930   7.409  0.00  0.00     0.009 A 
ATOM     21  C   UNL d   1      28.564 -12.648   8.540  0.00  0.00    -0.062 A 
ATOM     22  C   UNL d   1      28.291 -12.200   9.945  0.00  0.00     0.048 C 
ATOM     23  C   UNL d   1      29.249 -13.839   8.344  0.00  0.00     0.009 A 
ATOM     24  C   UNL d   1      29.512 -14.306   7.055  0.00  0.00     0.030 A 
ENDBRANCH   1  18
TORSDOF 4
ENDMDL
MODEL 5
REMARK VINA RESULT:    -6.750      4.836      9.590
REMARK INTER + INTRA:          -8.959
REMARK INTER:                  -7.944
REMARK INTRA:                  -1.015
REMARK CONF_INDEPENDENT:        1.193
REMARK UNBOUND:                -1.015
REMARK  4 active torsions:
REMARK  status: ('A' for Active; 'I' for Inactive)
REMARK    1  A    between atoms: C_5  and  N_6 
REMARK       I    between atoms: N_6  and  C_7 
REMARK       I    between atoms: C_7  and  N_9 
REMARK    2  A    between atoms: N_9  and  N_10 
REMARK    3  A    between atoms: C_11  and  C_12 
REMARK    4  A    between atoms: C_18  and  O_19 
ROOT
ATOM      1  N   UNL d   1      25.530 -11.384  -4.595  0.00  0.00    -0.308 N 
ATOM      2  C   UNL d   1      25.577 -12.539  -3.808  0.00  0.00     0.341 C 
ATOM      3  O   UNL d   1      26.097 -12.591  -2.690  0.00  0.00    -0.245 OA
ATOM      4  N   UNL d   1      24.991 -13.684  -4.357  0.00  0.00    -0.229 N 
ATOM      5  H   UNL d   1      25.076 -11.428  -5.495  0.00  0.00     0.170 HD
ATOM      6  H   UNL d   1      24.538 -13.717  -5.256  0.00  0.00     0.194 HD
ENDROOT
BRANCH   4   7
ATOM      7  N   UNL d   1      25.046 -14.814  -3.567  0.00  0.00    -0.182 NA
ATOM      8  C   UNL d   1      24.375 -14.949  -2.471  0.00  0.00     0.153 C 
BRANCH   8   9
ATOM      9  C   UNL d   1      24.473 -16.201  -1.635  0.00  0.00     0.017 A 
ATOM     10  C   UNL d   1      23.297 -16.878  -1.270  0.00  0.00     0.034 A 
ATOM     11  C   UNL d   1      23.366 -18.037  -0.480  0.00  0.00     0.011 A 
ATOM     12 BR   UNL d   1      21.780 -18.950   0.013  0.00  0.00    -0.051 Br
ATOM     13  C   UNL d   1      24.592 -18.537  -0.044  0.00  0.00     0.022 A 
ATOM     14  C   UNL d   1      25.766 -17.880  -0.407  0.00  0.00     0.039 A 
ATOM     15  C   UNL d   1      25.705 -16.724  -1.195  0.00  0.00     0.077 A 
BRANCH  15  16
ATOM     16  O   UNL d   1      26.872 -16.105  -1.530  0.00  0.00    -0.360 OA
ATOM     17  H   UNL d   1      26.755 -15.444  -2.226  0.00  0.00     0.217 HD
ENDBRANCH  15  16
ENDBRANCH   8   9
ENDBRANCH   4   7
BRANCH   1  18
ATOM     18  C   UNL d   1      26.077 -10.110  -4.201  0.00  0.00     0.036 A 
ATOM     19  C   UNL d   1      25.313  -8.933  -4.264  0.00  0.00     0.030 A 
ATOM     20  C   UNL d   1      25.857  -7.688  -3.856  0.00  0.00     0.009 A 
ATOM     21  C   UNL d   1      27.170  -7.596  -3.378  0.00  0.00    -0.062 A 
ATOM     22  C   UNL d   1      27.790  -6.312  -2.912  0.00  0.00     0.048 C 
ATOM     23  C   UNL d   1      27.928  -8.757  -3.325  0.00  0.00     0.009 A 
ATOM     24  C   UNL d   1      27.389  -9.979  -3.731  0.00  0.00     0.030 A 
ENDBRANCH   1  18
TORSDOF 4
ENDMDL
MODEL 6
REMARK VINA RESULT:    -6.671      3.274      3.872
REMARK INTER + INTRA:          -8.780
REMARK INTER:                  -7.864
REMARK INTRA:                  -0.916
REMARK CONF_INDEPENDENT:        1.193
REMARK UNBOUND:                -0.916
REMARK  4 active torsions:
REMARK  status: ('A' for Active; 'I' for Inactive)
REMARK    1  A    between atoms: C_5  and  N_6 
REMARK       I    between atoms: N_6  and  C_7 
REMARK       I    between atoms: C_7  and  N_9 
REMARK    2  A    between atoms: N_9  and  N_10 
REMARK    3  A    between atoms: C_11  and  C_12 
REMARK    4  A    between atoms: C_18  and  O_19 
ROOT
ATOM      1  N   UNL d   1      22.523 -18.361  -1.302  0.00  0.00    -0.308 N 
ATOM      2  C   UNL d   1      23.730 -17.973  -0.713  0.00  0.00     0.341 C 
ATOM      3  O   UNL d   1      23.963 -18.052   0.498  0.00  0.00    -0.245 OA
ATOM      4  N   UNL d   1      24.706 -17.467  -1.578  0.00  0.00    -0.229 N 
ATOM      5  H   UNL d   1      22.420 -18.272  -2.301  0.00  0.00     0.170 HD
ATOM      6  H   UNL d   1      24.594 -17.383  -2.576  0.00  0.00     0.194 HD
ENDROOT
BRANCH   4   7
ATOM      7  N   UNL d   1      25.889 -17.089  -0.979  0.00  0.00    -0.182 NA
ATOM      8  C   UNL d   1      26.094 -15.909  -0.492  0.00  0.00     0.153 C 
BRANCH   8   9
ATOM      9  C   UNL d   1      27.410 -15.537   0.148  0.00  0.00     0.017 A 
ATOM     10  C   UNL d   1      27.409 -14.749   1.311  0.00  0.00     0.034 A 
ATOM     11  C   UNL d   1      28.624 -14.380   1.913  0.00  0.00     0.011 A 
ATOM     12 BR   UNL d   1      28.625 -13.318   3.482  0.00  0.00    -0.051 Br
ATOM     13  C   UNL d   1      29.844 -14.783   1.374  0.00  0.00     0.022 A 
ATOM     14  C   UNL d   1      29.857 -15.572   0.226  0.00  0.00     0.039 A 
ATOM     15  C   UNL d   1      28.650 -15.945  -0.380  0.00  0.00     0.077 A 
BRANCH  15  16
ATOM     16  O   UNL d   1      28.699 -16.715  -1.503  0.00  0.00    -0.360 OA
ATOM     17  H   UNL d   1      27.939 -17.307  -1.580  0.00  0.00     0.217 HD
ENDBRANCH  15  16
ENDBRANCH   8   9
ENDBRANCH   4   7
BRANCH   1  18
ATOM     18  C   UNL d   1      21.403 -18.905  -0.576  0.00  0.00     0.036 A 
ATOM     19  C   UNL d   1      20.280 -19.424  -1.242  0.00  0.00     0.030 A 
ATOM     20  C   UNL d   1      19.192 -19.973  -0.516  0.00  0.00     0.009 A 
ATOM     21  C   UNL d   1      19.205 -20.015   0.883  0.00  0.00    -0.062 A 
ATOM     22  C   UNL d   1      18.094 -20.603   1.701  0.00  0.00     0.048 C 
ATOM     23  C   UNL d   1      20.310 -19.493   1.541  0.00  0.00     0.009 A 
ATOM     24  C   UNL d   1      21.376 -18.950   0.822  0.00  0.00     0.030 A 
ENDBRANCH   1  18
TORSDOF 4
ENDMDL
MODEL 7
REMARK VINA RESULT:    -6.615      8.526     10.575
REMARK INTER + INTRA:          -8.784
REMARK INTER:                  -7.808
REMARK INTRA:                  -0.975
REMARK CONF_INDEPENDENT:        1.193
REMARK UNBOUND:                -0.975
REMARK  4 active torsions:
REMARK  status: ('A' for Active; 'I' for Inactive)
REMARK    1  A    between atoms: C_5  and  N_6 
REMARK       I    between atoms: N_6  and  C_7 
REMARK       I    between atoms: C_7  and  N_9 
REMARK    2  A    between atoms: N_9  and  N_10 
REMARK    3  A    between atoms: C_11  and  C_12 
REMARK    4  A    between atoms: C_18  and  O_19 
ROOT
ATOM      1  N   UNL d   1      28.186 -15.182   1.649  0.00  0.00    -0.308 N 
ATOM      2  C   UNL d   1      28.001 -14.474   2.840  0.00  0.00     0.341 C 
ATOM      3  O   UNL d   1      27.161 -13.581   2.988  0.00  0.00    -0.245 OA
ATOM      4  N   UNL d   1      28.838 -14.825   3.905  0.00  0.00    -0.229 N 
ATOM      5  H   UNL d   1      28.889 -15.904   1.618  0.00  0.00     0.170 HD
ATOM      6  H   UNL d   1      29.537 -15.549   3.864  0.00  0.00     0.194 HD
ENDROOT
BRANCH   4   7
ATOM      7  N   UNL d   1      28.642 -14.117   5.071  0.00  0.00    -0.182 NA
ATOM      8  C   UNL d   1      29.213 -14.418   6.191  0.00  0.00     0.153 C 
BRANCH   8   9
ATOM      9  C   UNL d   1      28.963 -13.618   7.445  0.00  0.00     0.017 A 
ATOM     10  C   UNL d   1      28.905 -14.281   8.683  0.00  0.00     0.034 A 
ATOM     11  C   UNL d   1      28.658 -13.556   9.860  0.00  0.00     0.011 A 
ATOM     12 BR   UNL d   1      28.581 -14.449  11.530  0.00  0.00    -0.051 Br
ATOM     13  C   UNL d   1      28.466 -12.176   9.828  0.00  0.00     0.022 A 
ATOM     14  C   UNL d   1      28.530 -11.507   8.608  0.00  0.00     0.039 A 
ATOM     15  C   UNL d   1      28.776 -12.222   7.429  0.00  0.00     0.077 A 
BRANCH  15  16
ATOM     16  O   UNL d   1      28.829 -11.537   6.253  0.00  0.00    -0.360 OA
ATOM     17  H   UNL d   1      28.934 -12.119   5.488  0.00  0.00     0.217 HD
ENDBRANCH  15  16
ENDBRANCH   8   9
ENDBRANCH   4   7
BRANCH   1  18
ATOM     18  C   UNL d   1      27.420 -14.964   0.448  0.00  0.00     0.036 A 
ATOM     19  C   UNL d   1      27.390 -13.710  -0.185  0.00  0.00     0.030 A 
ATOM     20  C   UNL d   1      26.645 -13.513  -1.377  0.00  0.00     0.009 A 
ATOM     21  C   UNL d   1      25.921 -14.561  -1.957  0.00  0.00    -0.062 A 
ATOM     22  C   UNL d   1      25.135 -14.416  -3.227  0.00  0.00     0.048 C 
ATOM     23  C   UNL d   1      25.942 -15.796  -1.326  0.00  0.00     0.009 A 
ATOM     24  C   UNL d   1      26.673 -15.984  -0.152  0.00  0.00     0.030 A 
ENDBRANCH   1  18
TORSDOF 4
ENDMDL
MODEL 8
REMARK VINA RESULT:    -6.555      2.107      2.936
REMARK INTER + INTRA:          -8.776
REMARK INTER:                  -7.748
REMARK INTRA:                  -1.028
REMARK CONF_INDEPENDENT:        1.193
REMARK UNBOUND:                -1.028
REMARK  4 active torsions:
REMARK  status: ('A' for Active; 'I' for Inactive)
REMARK    1  A    between atoms: C_5  and  N_6 
REMARK       I    between atoms: N_6  and  C_7 
REMARK       I    between atoms: C_7  and  N_9 
REMARK    2  A    between atoms: N_9  and  N_10 
REMARK    3  A    between atoms: C_11  and  C_12 
REMARK    4  A    between atoms: C_18  and  O_19 
ROOT
ATOM      1  N   UNL d   1      21.506 -18.010  -0.887  0.00  0.00    -0.308 N 
ATOM      2  C   UNL d   1      22.896 -18.156  -0.843  0.00  0.00     0.341 C 
ATOM      3  O   UNL d   1      23.473 -19.106  -0.304  0.00  0.00    -0.245 OA
ATOM      4  N   UNL d   1      23.644 -17.144  -1.454  0.00  0.00    -0.229 N 
ATOM      5  H   UNL d   1      21.118 -17.207  -1.358  0.00  0.00     0.170 HD
ATOM      6  H   UNL d   1      23.246 -16.346  -1.923  0.00  0.00     0.194 HD
ENDROOT
BRANCH   4   7
ATOM      7  N   UNL d   1      25.013 -17.304  -1.401  0.00  0.00    -0.182 NA
ATOM      8  C   UNL d   1      25.850 -16.344  -1.621  0.00  0.00     0.153 C 
BRANCH   8   9
ATOM      9  C   UNL d   1      27.341 -16.568  -1.559  0.00  0.00     0.017 A 
ATOM     10  C   UNL d   1      28.163 -16.001  -2.548  0.00  0.00     0.034 A 
ATOM     11  C   UNL d   1      29.551 -16.210  -2.516  0.00  0.00     0.011 A 
ATOM     12 BR   UNL d   1      30.660 -15.445  -3.849  0.00  0.00    -0.051 Br
ATOM     13  C   UNL d   1      30.140 -16.978  -1.513  0.00  0.00     0.022 A 
ATOM     14  C   UNL d   1      29.336 -17.537  -0.521  0.00  0.00     0.039 A 
ATOM     15  C   UNL d   1      27.951 -17.333  -0.546  0.00  0.00     0.077 A 
BRANCH  15  16
ATOM     16  O   UNL d   1      27.195 -17.897   0.437  0.00  0.00    -0.360 OA
ATOM     17  H   UNL d   1      26.305 -18.126   0.137  0.00  0.00     0.217 HD
ENDBRANCH  15  16
ENDBRANCH   8   9
ENDBRANCH   4   7
BRANCH   1  18
ATOM     18  C   UNL d   1      20.573 -18.947  -0.316  0.00  0.00     0.036 A 
ATOM     19  C   UNL d   1      20.687 -19.374   1.017  0.00  0.00     0.030 A 
ATOM     20  C   UNL d   1      19.751 -20.285   1.574  0.00  0.00     0.009 A 
ATOM     21  C   UNL d   1      18.688 -20.783   0.811  0.00  0.00    -0.062 A 
ATOM     22  C   UNL d   1      17.657 -21.729   1.352  0.00  0.00     0.048 C 
ATOM     23  C   UNL d   1      18.582 -20.369  -0.509  0.00  0.00     0.009 A 
ATOM     24  C   UNL d   1      19.507 -19.476  -1.052  0.00  0.00     0.030 A 
ENDBRANCH   1  18
TORSDOF 4
ENDMDL
MODEL 9
REMARK VINA RESULT:    -6.525      3.012      4.590
REMARK INTER + INTRA:          -8.714
REMARK INTER:                  -7.719
REMARK INTRA:                  -0.996
REMARK CONF_INDEPENDENT:        1.193
REMARK UNBOUND:                -0.996
REMARK  4 active torsions:
REMARK  status: ('A' for Active; 'I' for Inactive)
REMARK    1  A    between atoms: C_5  and  N_6 
REMARK       I    between atoms: N_6  and  C_7 
REMARK       I    between atoms: C_7  and  N_9 
REMARK    2  A    between atoms: N_9  and  N_10 
REMARK    3  A    between atoms: C_11  and  C_12 
REMARK    4  A    between atoms: C_18  and  O_19 
ROOT
ATOM      1  N   UNL d   1      25.558 -15.725  -1.298  0.00  0.00    -0.308 N 
ATOM      2  C   UNL d   1      25.534 -14.835  -2.375  0.00  0.00     0.341 C 
ATOM      3  O   UNL d   1      24.615 -14.773  -3.198  0.00  0.00    -0.245 OA
ATOM      4  N   UNL d   1      26.635 -13.981  -2.498  0.00  0.00    -0.229 N 
ATOM      5  H   UNL d   1      26.345 -15.702  -0.667  0.00  0.00     0.170 HD
ATOM      6  H   UNL d   1      27.416 -13.965  -1.861  0.00  0.00     0.194 HD
ENDROOT
BRANCH   4   7
ATOM      7  N   UNL d   1      26.595 -13.110  -3.566  0.00  0.00    -0.182 NA
ATOM      8  C   UNL d   1      27.113 -13.376  -4.720  0.00  0.00     0.153 C 
BRANCH   8   9
ATOM      9  C   UNL d   1      27.051 -12.388  -5.859  0.00  0.00     0.017 A 
ATOM     10  C   UNL d   1      27.798 -12.635  -7.023  0.00  0.00     0.034 A 
ATOM     11  C   UNL d   1      27.765 -11.720  -8.089  0.00  0.00     0.011 A 
ATOM     12 BR   UNL d   1      28.771 -12.052  -9.660  0.00  0.00    -0.051 Br
ATOM     13  C   UNL d   1      27.000 -10.558  -8.015  0.00  0.00     0.022 A 
ATOM     14  C   UNL d   1      26.248 -10.307  -6.869  0.00  0.00     0.039 A 
ATOM     15  C   UNL d   1      26.275 -11.214  -5.803  0.00  0.00     0.077 A 
BRANCH  15  16
ATOM     16  O   UNL d   1      25.530 -10.937  -4.696  0.00  0.00    -0.360 OA
ATOM     17  H   UNL d   1      25.107 -11.723  -4.326  0.00  0.00     0.217 HD
ENDBRANCH  15  16
ENDBRANCH   8   9
ENDBRANCH   4   7
BRANCH   1  18
ATOM     18  C   UNL d   1      24.516 -16.677  -1.008  0.00  0.00     0.036 A 
ATOM     19  C   UNL d   1      24.800 -18.040  -0.819  0.00  0.00     0.030 A 
ATOM     20  C   UNL d   1      23.767 -18.965  -0.516  0.00  0.00     0.009 A 
ATOM     21  C   UNL d   1      22.436 -18.546  -0.396  0.00  0.00    -0.062 A 
ATOM     22  C   UNL d   1      21.307 -19.474  -0.057  0.00  0.00     0.048 C 
ATOM     23  C   UNL d   1      22.154 -17.202  -0.594  0.00  0.00     0.009 A 
ATOM     24  C   UNL d   1      23.174 -16.297  -0.895  0.00  0.00     0.030 A 
ENDBRANCH   1  18
TORSDOF 4
ENDMDL
