MODEL 1
REMARK VINA RESULT:    -6.461      0.000      0.000
REMARK INTER + INTRA:         -11.614
REMARK INTER:                  -9.146
REMARK INTRA:                  -2.468
REMARK CONF_INDEPENDENT:        2.685
REMARK UNBOUND:                -2.468
REMARK  9 active torsions:
REMARK  status: ('A' for Active; 'I' for Inactive)
REMARK    1  A    between atoms: C_3  and  N_4 
REMARK       I    between atoms: N_4  and  C_5 
REMARK    2  A    between atoms: C_5  and  C_7 
REMARK    3  A    between atoms: C_7  and  C_8 
REMARK    4  A    between atoms: C_8  and  N_9 
REMARK       I    between atoms: N_9  and  C_10 
REMARK       I    between atoms: C_10  and  N_12 
REMARK    5  A    between atoms: N_12  and  C_13 
REMARK    6  A    between atoms: C_13  and  C_14 
REMARK    7  A    between atoms: C_14  and  N_15 
REMARK    8  A    between atoms: N_15  and  C_16 
REMARK    9  A    between atoms: C_21  and  N_22 
ROOT
ATOM      1  C   UNL d   1      17.703 -21.578   0.831  0.00  0.00     0.014 C 
ATOM      2  C   UNL d   1      18.609 -20.784   1.326  0.00  0.00    -0.098 C 
ATOM      3  C   UNL d   1      19.667 -19.857   1.903  0.00  0.00     0.216 C 
ENDROOT
BRANCH   3   4
ATOM      4  N   UNL d   1      20.753 -19.586   0.943  0.00  0.00    -0.351 N 
ATOM      5  C   UNL d   1      20.474 -19.186  -0.358  0.00  0.00     0.219 C 
ATOM      6  O   UNL d   1      19.315 -19.045  -0.743  0.00  0.00    -0.274 OA
ATOM      7  H   UNL d   1      21.708 -19.701   1.253  0.00  0.00     0.163 HD
BRANCH   5   8
ATOM      8  C   UNL d   1      21.681 -18.929  -1.289  0.00  0.00     0.122 C 
BRANCH   8   9
ATOM      9  C   UNL d   1      23.002 -18.812  -0.492  0.00  0.00     0.133 C 
BRANCH   9  10
ATOM     10  N   UNL d   1      23.920 -17.734  -0.898  0.00  0.00    -0.343 N 
ATOM     11  C   UNL d   1      25.066 -17.489  -0.163  0.00  0.00     0.316 C 
ATOM     12  O   UNL d   1      25.362 -18.107   0.848  0.00  0.00    -0.247 OA
ATOM     13  N   UNL d   1      25.879 -16.512  -0.693  0.00  0.00    -0.342 N 
ATOM     14  H   UNL d   1      25.512 -15.902  -1.407  0.00  0.00     0.164 HD
ATOM     15  H   UNL d   1      23.717 -17.172  -1.709  0.00  0.00     0.164 HD
BRANCH  13  16
ATOM     16  C   UNL d   1      27.122 -16.124  -0.006  0.00  0.00     0.144 C 
BRANCH  16  17
ATOM     17  C   UNL d   1      28.207 -15.621  -0.970  0.00  0.00     0.139 C 
BRANCH  17  18
ATOM     18  N   UNL d   1      28.200 -16.290  -2.275  0.00  0.00    -0.386 N 
ATOM     19  H   UNL d   1      28.651 -17.201  -2.355  0.00  0.00     0.159 HD
BRANCH  18  20
ATOM     20  C   UNL d   1      28.008 -15.597  -3.469  0.00  0.00     0.061 A 
ATOM     21  C   UNL d   1      29.172 -15.135  -4.127  0.00  0.00     0.031 A 
ATOM     22  C   UNL d   1      29.122 -14.459  -5.357  0.00  0.00     0.002 A 
ATOM     23  C   UNL d   1      27.904 -14.270  -5.995  0.00  0.00     0.003 A 
ATOM     24  C   UNL d   1      26.736 -14.683  -5.366  0.00  0.00     0.038 A 
ATOM     25  C   UNL d   1      26.781 -15.305  -4.100  0.00  0.00     0.129 A 
BRANCH  25  26
ATOM     26  N   UNL d   1      25.475 -15.543  -3.473  0.00  0.00    -0.113 N 
ATOM     27  O   UNL d   1      24.762 -14.550  -3.256  0.00  0.00    -0.532 OA
ATOM     28  O   UNL d   1      25.159 -16.699  -3.161  0.00  0.00    -0.532 OA
ENDBRANCH  25  26
ENDBRANCH  18  20
ENDBRANCH  17  18
ENDBRANCH  16  17
ENDBRANCH  13  16
ENDBRANCH   9  10
ENDBRANCH   8   9
ENDBRANCH   5   8
ENDBRANCH   3   4
TORSDOF 9
ENDMDL
MODEL 2
REMARK VINA RESULT:    -6.346      1.526      1.981
REMARK INTER + INTRA:         -12.151
REMARK INTER:                  -9.030
REMARK INTRA:                  -3.121
REMARK CONF_INDEPENDENT:        2.685
REMARK UNBOUND:                -3.121
REMARK  9 active torsions:
REMARK  status: ('A' for Active; 'I' for Inactive)
REMARK    1  A    between atoms: C_3  and  N_4 
REMARK       I    between atoms: N_4  and  C_5 
REMARK    2  A    between atoms: C_5  and  C_7 
REMARK    3  A    between atoms: C_7  and  C_8 
REMARK    4  A    between atoms: C_8  and  N_9 
REMARK       I    between atoms: N_9  and  C_10 
REMARK       I    between atoms: C_10  and  N_12 
REMARK    5  A    between atoms: N_12  and  C_13 
REMARK    6  A    between atoms: C_13  and  C_14 
REMARK    7  A    between atoms: C_14  and  N_15 
REMARK    8  A    between atoms: N_15  and  C_16 
REMARK    9  A    between atoms: C_21  and  N_22 
ROOT
ATOM      1  C   UNL d   1      19.293 -20.450   2.852  0.00  0.00     0.014 C 
ATOM      2  C   UNL d   1      19.600 -20.280   1.597  0.00  0.00    -0.098 C 
ATOM      3  C   UNL d   1      19.957 -20.083   0.133  0.00  0.00     0.216 C 
ENDROOT
BRANCH   3   4
ATOM      4  N   UNL d   1      21.362 -19.671  -0.046  0.00  0.00    -0.351 N 
ATOM      5  C   UNL d   1      21.686 -18.526  -0.763  0.00  0.00     0.219 C 
ATOM      6  O   UNL d   1      20.811 -17.826  -1.266  0.00  0.00    -0.274 OA
ATOM      7  H   UNL d   1      22.086 -20.244   0.365  0.00  0.00     0.163 HD
BRANCH   5   8
ATOM      8  C   UNL d   1      23.186 -18.180  -0.896  0.00  0.00     0.122 C 
BRANCH   8   9
ATOM      9  C   UNL d   1      23.408 -16.659  -1.071  0.00  0.00     0.133 C 
BRANCH   9  10
ATOM     10  N   UNL d   1      24.558 -16.255  -1.899  0.00  0.00    -0.343 N 
ATOM     11  C   UNL d   1      25.847 -16.476  -1.445  0.00  0.00     0.316 C 
ATOM     12  O   UNL d   1      26.101 -16.970  -0.358  0.00  0.00    -0.247 OA
ATOM     13  N   UNL d   1      26.828 -16.129  -2.346  0.00  0.00    -0.342 N 
ATOM     14  H   UNL d   1      26.588 -15.555  -3.138  0.00  0.00     0.164 HD
ATOM     15  H   UNL d   1      24.411 -15.819  -2.795  0.00  0.00     0.164 HD
BRANCH  13  16
ATOM     16  C   UNL d   1      28.250 -16.282  -1.993  0.00  0.00     0.144 C 
BRANCH  16  17
ATOM     17  C   UNL d   1      29.181 -16.214  -3.213  0.00  0.00     0.139 C 
BRANCH  17  18
ATOM     18  N   UNL d   1      28.493 -15.896  -4.468  0.00  0.00    -0.386 N 
ATOM     19  H   UNL d   1      28.553 -16.563  -5.237  0.00  0.00     0.159 HD
BRANCH  18  20
ATOM     20  C   UNL d   1      28.141 -14.593  -4.818  0.00  0.00     0.061 A 
ATOM     21  C   UNL d   1      29.204 -13.703  -5.100  0.00  0.00     0.031 A 
ATOM     22  C   UNL d   1      28.987 -12.376  -5.503  0.00  0.00     0.002 A 
ATOM     23  C   UNL d   1      27.693 -11.911  -5.689  0.00  0.00     0.003 A 
ATOM     24  C   UNL d   1      26.622 -12.745  -5.393  0.00  0.00     0.038 A 
ATOM     25  C   UNL d   1      26.840 -14.059  -4.926  0.00  0.00     0.129 A 
BRANCH  25  26
ATOM     26  N   UNL d   1      25.635 -14.778  -4.495  0.00  0.00    -0.113 N 
ATOM     27  O   UNL d   1      25.502 -15.948  -4.892  0.00  0.00    -0.532 OA
ATOM     28  O   UNL d   1      24.800 -14.190  -3.794  0.00  0.00    -0.532 OA
ENDBRANCH  25  26
ENDBRANCH  18  20
ENDBRANCH  17  18
ENDBRANCH  16  17
ENDBRANCH  13  16
ENDBRANCH   9  10
ENDBRANCH   8   9
ENDBRANCH   5   8
ENDBRANCH   3   4
TORSDOF 9
ENDMDL
MODEL 3
REMARK VINA RESULT:    -5.855      2.234      2.469
REMARK INTER + INTRA:         -12.111
REMARK INTER:                  -8.540
REMARK INTRA:                  -3.571
REMARK CONF_INDEPENDENT:        2.685
REMARK UNBOUND:                -3.571
REMARK  9 active torsions:
REMARK  status: ('A' for Active; 'I' for Inactive)
REMARK    1  A    between atoms: C_3  and  N_4 
REMARK       I    between atoms: N_4  and  C_5 
REMARK    2  A    between atoms: C_5  and  C_7 
REMARK    3  A    between atoms: C_7  and  C_8 
REMARK    4  A    between atoms: C_8  and  N_9 
REMARK       I    between atoms: N_9  and  C_10 
REMARK       I    between atoms: C_10  and  N_12 
REMARK    5  A    between atoms: N_12  and  C_13 
REMARK    6  A    between atoms: C_13  and  C_14 
REMARK    7  A    between atoms: C_14  and  N_15 
REMARK    8  A    between atoms: N_15  and  C_16 
REMARK    9  A    between atoms: C_21  and  N_22 
ROOT
ATOM      1  C   UNL d   1      19.052 -20.198   2.105  0.00  0.00     0.014 C 
ATOM      2  C   UNL d   1      19.100 -19.940   0.829  0.00  0.00    -0.098 C 
ATOM      3  C   UNL d   1      19.155 -19.638  -0.660  0.00  0.00     0.216 C 
ENDROOT
BRANCH   3   4
ATOM      4  N   UNL d   1      20.151 -18.599  -0.980  0.00  0.00    -0.351 N 
ATOM      5  C   UNL d   1      21.455 -18.688  -0.507  0.00  0.00     0.219 C 
ATOM      6  O   UNL d   1      21.812 -19.636   0.190  0.00  0.00    -0.274 OA
ATOM      7  H   UNL d   1      19.863 -17.817  -1.551  0.00  0.00     0.163 HD
BRANCH   5   8
ATOM      8  C   UNL d   1      22.424 -17.549  -0.895  0.00  0.00     0.122 C 
BRANCH   8   9
ATOM      9  C   UNL d   1      23.667 -18.087  -1.643  0.00  0.00     0.133 C 
BRANCH   9  10
ATOM     10  N   UNL d   1      24.673 -17.088  -2.045  0.00  0.00    -0.343 N 
ATOM     11  C   UNL d   1      25.630 -16.669  -1.137  0.00  0.00     0.316 C 
ATOM     12  O   UNL d   1      25.680 -17.063   0.018  0.00  0.00    -0.247 OA
ATOM     13  N   UNL d   1      26.559 -15.798  -1.659  0.00  0.00    -0.342 N 
ATOM     14  H   UNL d   1      26.374 -15.354  -2.545  0.00  0.00     0.164 HD
ATOM     15  H   UNL d   1      24.668 -16.707  -2.977  0.00  0.00     0.164 HD
BRANCH  13  16
ATOM     16  C   UNL d   1      27.624 -15.245  -0.805  0.00  0.00     0.144 C 
BRANCH  16  17
ATOM     17  C   UNL d   1      27.659 -13.709  -0.809  0.00  0.00     0.139 C 
BRANCH  17  18
ATOM     18  N   UNL d   1      26.429 -13.089  -1.312  0.00  0.00    -0.386 N 
ATOM     19  H   UNL d   1      25.547 -13.326  -0.861  0.00  0.00     0.159 HD
BRANCH  18  20
ATOM     20  C   UNL d   1      26.333 -12.554  -2.595  0.00  0.00     0.061 A 
ATOM     21  C   UNL d   1      26.795 -11.227  -2.765  0.00  0.00     0.031 A 
ATOM     22  C   UNL d   1      26.792 -10.584  -4.014  0.00  0.00     0.002 A 
ATOM     23  C   UNL d   1      26.375 -11.269  -5.146  0.00  0.00     0.003 A 
ATOM     24  C   UNL d   1      25.886 -12.564  -5.015  0.00  0.00     0.038 A 
ATOM     25  C   UNL d   1      25.829 -13.187  -3.750  0.00  0.00     0.129 A 
BRANCH  25  26
ATOM     26  N   UNL d   1      25.144 -14.485  -3.723  0.00  0.00    -0.113 N 
ATOM     27  O   UNL d   1      24.262 -14.641  -2.862  0.00  0.00    -0.532 OA
ATOM     28  O   UNL d   1      25.489 -15.366  -4.523  0.00  0.00    -0.532 OA
ENDBRANCH  25  26
ENDBRANCH  18  20
ENDBRANCH  17  18
ENDBRANCH  16  17
ENDBRANCH  13  16
ENDBRANCH   9  10
ENDBRANCH   8   9
ENDBRANCH   5   8
ENDBRANCH   3   4
TORSDOF 9
ENDMDL
MODEL 4
REMARK VINA RESULT:    -4.873      2.217      3.883
REMARK INTER + INTRA:         -11.363
REMARK INTER:                  -7.557
REMARK INTRA:                  -3.805
REMARK CONF_INDEPENDENT:        2.685
REMARK UNBOUND:                -3.805
REMARK  9 active torsions:
REMARK  status: ('A' for Active; 'I' for Inactive)
REMARK    1  A    between atoms: C_3  and  N_4 
REMARK       I    between atoms: N_4  and  C_5 
REMARK    2  A    between atoms: C_5  and  C_7 
REMARK    3  A    between atoms: C_7  and  C_8 
REMARK    4  A    between atoms: C_8  and  N_9 
REMARK       I    between atoms: N_9  and  C_10 
REMARK       I    between atoms: C_10  and  N_12 
REMARK    5  A    between atoms: N_12  and  C_13 
REMARK    6  A    between atoms: C_13  and  C_14 
REMARK    7  A    between atoms: C_14  and  N_15 
REMARK    8  A    between atoms: N_15  and  C_16 
REMARK    9  A    between atoms: C_21  and  N_22 
ROOT
ATOM      1  C   UNL d   1      20.183 -19.748   0.284  0.00  0.00     0.014 C 
ATOM      2  C   UNL d   1      21.022 -19.060  -0.438  0.00  0.00    -0.098 C 
ATOM      3  C   UNL d   1      22.001 -18.258  -1.281  0.00  0.00     0.216 C 
ENDROOT
BRANCH   3   4
ATOM      4  N   UNL d   1      23.388 -18.395  -0.803  0.00  0.00    -0.351 N 
ATOM      5  C   UNL d   1      24.291 -17.346  -0.916  0.00  0.00     0.219 C 
ATOM      6  O   UNL d   1      23.957 -16.274  -1.417  0.00  0.00    -0.274 OA
ATOM      7  H   UNL d   1      23.670 -19.274  -0.391  0.00  0.00     0.163 HD
BRANCH   5   8
ATOM      8  C   UNL d   1      25.723 -17.588  -0.388  0.00  0.00     0.122 C 
BRANCH   8   9
ATOM      9  C   UNL d   1      26.568 -16.292  -0.410  0.00  0.00     0.133 C 
BRANCH   9  10
ATOM     10  N   UNL d   1      26.245 -15.318  -1.467  0.00  0.00    -0.343 N 
ATOM     11  C   UNL d   1      26.436 -13.966  -1.241  0.00  0.00     0.316 C 
ATOM     12  O   UNL d   1      26.839 -13.511  -0.182  0.00  0.00    -0.247 OA
ATOM     13  N   UNL d   1      26.175 -13.169  -2.333  0.00  0.00    -0.342 N 
ATOM     14  H   UNL d   1      25.668 -13.556  -3.113  0.00  0.00     0.164 HD
ATOM     15  H   UNL d   1      25.885 -15.630  -2.354  0.00  0.00     0.164 HD
BRANCH  13  16
ATOM     16  C   UNL d   1      26.308 -11.706  -2.236  0.00  0.00     0.144 C 
BRANCH  16  17
ATOM     17  C   UNL d   1      25.865 -10.978  -3.514  0.00  0.00     0.139 C 
BRANCH  17  18
ATOM     18  N   UNL d   1      25.538 -11.875  -4.626  0.00  0.00    -0.386 N 
ATOM     19  H   UNL d   1      24.616 -12.309  -4.645  0.00  0.00     0.159 HD
BRANCH  18  20
ATOM     20  C   UNL d   1      26.519 -12.496  -5.398  0.00  0.00     0.061 A 
ATOM     21  C   UNL d   1      27.187 -11.684  -6.346  0.00  0.00     0.031 A 
ATOM     22  C   UNL d   1      28.223 -12.174  -7.158  0.00  0.00     0.002 A 
ATOM     23  C   UNL d   1      28.660 -13.482  -7.011  0.00  0.00     0.003 A 
ATOM     24  C   UNL d   1      28.009 -14.319  -6.112  0.00  0.00     0.038 A 
ATOM     25  C   UNL d   1      26.926 -13.845  -5.342  0.00  0.00     0.129 A 
BRANCH  25  26
ATOM     26  N   UNL d   1      26.222 -14.866  -4.556  0.00  0.00    -0.113 N 
ATOM     27  O   UNL d   1      26.850 -15.903  -4.285  0.00  0.00    -0.532 OA
ATOM     28  O   UNL d   1      25.044 -14.670  -4.230  0.00  0.00    -0.532 OA
ENDBRANCH  25  26
ENDBRANCH  18  20
ENDBRANCH  17  18
ENDBRANCH  16  17
ENDBRANCH  13  16
ENDBRANCH   9  10
ENDBRANCH   8   9
ENDBRANCH   5   8
ENDBRANCH   3   4
TORSDOF 9
ENDMDL
MODEL 5
REMARK VINA RESULT:    -4.215      3.391      8.096
REMARK INTER + INTRA:         -10.766
REMARK INTER:                  -6.899
REMARK INTRA:                  -3.866
REMARK CONF_INDEPENDENT:        2.685
REMARK UNBOUND:                -3.866
REMARK  9 active torsions:
REMARK  status: ('A' for Active; 'I' for Inactive)
REMARK    1  A    between atoms: C_3  and  N_4 
REMARK       I    between atoms: N_4  and  C_5 
REMARK    2  A    between atoms: C_5  and  C_7 
REMARK    3  A    between atoms: C_7  and  C_8 
REMARK    4  A    between atoms: C_8  and  N_9 
REMARK       I    between atoms: N_9  and  C_10 
REMARK       I    between atoms: C_10  and  N_12 
REMARK    5  A    between atoms: N_12  and  C_13 
REMARK    6  A    between atoms: C_13  and  C_14 
REMARK    7  A    between atoms: C_14  and  N_15 
REMARK    8  A    between atoms: N_15  and  C_16 
REMARK    9  A    between atoms: C_21  and  N_22 
ROOT
ATOM      1  C   UNL d   1      32.394 -16.597  -5.135  0.00  0.00     0.014 C 
ATOM      2  C   UNL d   1      31.136 -16.450  -5.441  0.00  0.00    -0.098 C 
ATOM      3  C   UNL d   1      29.668 -16.279  -5.798  0.00  0.00     0.216 C 
ENDROOT
BRANCH   3   4
ATOM      4  N   UNL d   1      29.314 -14.867  -6.033  0.00  0.00    -0.351 N 
ATOM      5  C   UNL d   1      27.988 -14.451  -6.027  0.00  0.00     0.219 C 
ATOM      6  O   UNL d   1      27.076 -15.250  -5.824  0.00  0.00    -0.274 OA
ATOM      7  H   UNL d   1      30.060 -14.206  -6.201  0.00  0.00     0.163 HD
BRANCH   5   8
ATOM      8  C   UNL d   1      27.720 -12.952  -6.284  0.00  0.00     0.122 C 
BRANCH   8   9
ATOM      9  C   UNL d   1      26.981 -12.291  -5.095  0.00  0.00     0.133 C 
BRANCH   9  10
ATOM     10  N   UNL d   1      26.639 -13.173  -3.965  0.00  0.00    -0.343 N 
ATOM     11  C   UNL d   1      27.551 -13.370  -2.943  0.00  0.00     0.316 C 
ATOM     12  O   UNL d   1      28.665 -12.870  -2.930  0.00  0.00    -0.247 OA
ATOM     13  N   UNL d   1      27.080 -14.148  -1.910  0.00  0.00    -0.342 N 
ATOM     14  H   UNL d   1      26.242 -14.691  -2.046  0.00  0.00     0.164 HD
ATOM     15  H   UNL d   1      25.745 -13.634  -3.933  0.00  0.00     0.164 HD
BRANCH  13  16
ATOM     16  C   UNL d   1      27.947 -14.466  -0.763  0.00  0.00     0.144 C 
BRANCH  16  17
ATOM     17  C   UNL d   1      27.971 -15.965  -0.429  0.00  0.00     0.139 C 
BRANCH  17  18
ATOM     18  N   UNL d   1      27.156 -16.788  -1.328  0.00  0.00    -0.386 N 
ATOM     19  H   UNL d   1      27.467 -16.908  -2.291  0.00  0.00     0.159 HD
BRANCH  18  20
ATOM     20  C   UNL d   1      25.808 -17.047  -1.086  0.00  0.00     0.061 A 
ATOM     21  C   UNL d   1      25.517 -18.053  -0.133  0.00  0.00     0.031 A 
ATOM     22  C   UNL d   1      24.203 -18.384   0.233  0.00  0.00     0.002 A 
ATOM     23  C   UNL d   1      23.135 -17.680  -0.305  0.00  0.00     0.003 A 
ATOM     24  C   UNL d   1      23.378 -16.706  -1.266  0.00  0.00     0.038 A 
ATOM     25  C   UNL d   1      24.695 -16.418  -1.682  0.00  0.00     0.129 A 
BRANCH  25  26
ATOM     26  N   UNL d   1      24.805 -15.490  -2.814  0.00  0.00    -0.113 N 
ATOM     27  O   UNL d   1      24.128 -14.450  -2.762  0.00  0.00    -0.532 OA
ATOM     28  O   UNL d   1      25.530 -15.792  -3.772  0.00  0.00    -0.532 OA
ENDBRANCH  25  26
ENDBRANCH  18  20
ENDBRANCH  17  18
ENDBRANCH  16  17
ENDBRANCH  13  16
ENDBRANCH   9  10
ENDBRANCH   8   9
ENDBRANCH   5   8
ENDBRANCH   3   4
TORSDOF 9
ENDMDL
MODEL 6
REMARK VINA RESULT:    -4.059      2.306      3.463
REMARK INTER + INTRA:         -10.796
REMARK INTER:                  -6.744
REMARK INTRA:                  -4.052
REMARK CONF_INDEPENDENT:        2.685
REMARK UNBOUND:                -4.052
REMARK  9 active torsions:
REMARK  status: ('A' for Active; 'I' for Inactive)
REMARK    1  A    between atoms: C_3  and  N_4 
REMARK       I    between atoms: N_4  and  C_5 
REMARK    2  A    between atoms: C_5  and  C_7 
REMARK    3  A    between atoms: C_7  and  C_8 
REMARK    4  A    between atoms: C_8  and  N_9 
REMARK       I    between atoms: N_9  and  C_10 
REMARK       I    between atoms: C_10  and  N_12 
REMARK    5  A    between atoms: N_12  and  C_13 
REMARK    6  A    between atoms: C_13  and  C_14 
REMARK    7  A    between atoms: C_14  and  N_15 
REMARK    8  A    between atoms: N_15  and  C_16 
REMARK    9  A    between atoms: C_21  and  N_22 
ROOT
ATOM      1  C   UNL d   1      19.704 -19.780   0.392  0.00  0.00     0.014 C 
ATOM      2  C   UNL d   1      20.766 -19.348  -0.226  0.00  0.00    -0.098 C 
ATOM      3  C   UNL d   1      22.006 -18.845  -0.947  0.00  0.00     0.216 C 
ENDROOT
BRANCH   3   4
ATOM      4  N   UNL d   1      23.197 -18.854  -0.079  0.00  0.00    -0.351 N 
ATOM      5  C   UNL d   1      24.334 -18.131  -0.416  0.00  0.00     0.219 C 
ATOM      6  O   UNL d   1      24.377 -17.464  -1.448  0.00  0.00    -0.274 OA
ATOM      7  H   UNL d   1      23.168 -19.401   0.770  0.00  0.00     0.163 HD
BRANCH   5   8
ATOM      8  C   UNL d   1      25.531 -18.206   0.558  0.00  0.00     0.122 C 
BRANCH   8   9
ATOM      9  C   UNL d   1      26.883 -18.122  -0.190  0.00  0.00     0.133 C 
BRANCH   9  10
ATOM     10  N   UNL d   1      27.088 -16.938  -1.043  0.00  0.00    -0.343 N 
ATOM     11  C   UNL d   1      28.267 -16.218  -0.951  0.00  0.00     0.316 C 
ATOM     12  O   UNL d   1      29.162 -16.490  -0.167  0.00  0.00    -0.247 OA
ATOM     13  N   UNL d   1      28.368 -15.186  -1.857  0.00  0.00    -0.342 N 
ATOM     14  H   UNL d   1      27.542 -14.878  -2.346  0.00  0.00     0.164 HD
ATOM     15  H   UNL d   1      26.375 -16.649  -1.691  0.00  0.00     0.164 HD
BRANCH  13  16
ATOM     16  C   UNL d   1      29.554 -14.314  -1.862  0.00  0.00     0.144 C 
BRANCH  16  17
ATOM     17  C   UNL d   1      29.200 -12.821  -1.930  0.00  0.00     0.139 C 
BRANCH  17  18
ATOM     18  N   UNL d   1      27.762 -12.547  -1.845  0.00  0.00    -0.386 N 
ATOM     19  H   UNL d   1      27.278 -12.762  -0.975  0.00  0.00     0.159 HD
BRANCH  18  20
ATOM     20  C   UNL d   1      26.957 -12.425  -2.977  0.00  0.00     0.061 A 
ATOM     21  C   UNL d   1      27.041 -11.203  -3.686  0.00  0.00     0.031 A 
ATOM     22  C   UNL d   1      26.315 -10.966  -4.864  0.00  0.00     0.002 A 
ATOM     23  C   UNL d   1      25.518 -11.968  -5.401  0.00  0.00     0.003 A 
ATOM     24  C   UNL d   1      25.386 -13.171  -4.717  0.00  0.00     0.038 A 
ATOM     25  C   UNL d   1      26.066 -13.385  -3.500  0.00  0.00     0.129 A 
BRANCH  25  26
ATOM     26  N   UNL d   1      25.716 -14.626  -2.798  0.00  0.00    -0.113 N 
ATOM     27  O   UNL d   1      25.519 -15.634  -3.495  0.00  0.00    -0.532 OA
ATOM     28  O   UNL d   1      25.602 -14.609  -1.564  0.00  0.00    -0.532 OA
ENDBRANCH  25  26
ENDBRANCH  18  20
ENDBRANCH  17  18
ENDBRANCH  16  17
ENDBRANCH  13  16
ENDBRANCH   9  10
ENDBRANCH   8   9
ENDBRANCH   5   8
ENDBRANCH   3   4
TORSDOF 9
ENDMDL
