MODEL 1
REMARK VINA RESULT:   -32.278      0.000      0.000
REMARK INTER + INTRA:         -33.667
REMARK INTER:                 -33.173
REMARK INTRA:                  -0.493
REMARK CONF_INDEPENDENT:        0.895
REMARK UNBOUND:                -0.493
REMARK  3 active torsions:
REMARK  status: ('A' for Active; 'I' for Inactive)
REMARK       I    between atoms: C_2  and  N_4 
REMARK    1  A    between atoms: N_4  and  C_5 
REMARK    2  A    between atoms: C_7  and  C_8 
REMARK       I    between atoms: C_8  and  N_10 
REMARK    3  A    between atoms: N_10  and  C_11 
ROOT
ATOM      1  C   UNL d   1      25.203 -15.754  -1.547  0.00  0.00     0.041 A 
ATOM      2  C   UNL d   1      24.046 -16.551  -1.617  0.00  0.00     0.047 A 
ATOM      3  C   UNL d   1      23.928 -17.734  -0.888  0.00  0.00     0.034 A 
ATOM      4  C   UNL d   1      25.003 -18.122  -0.074  0.00  0.00     0.018 A 
ATOM      5  C   UNL d   1      26.165 -17.342   0.000  0.00  0.00     0.010 A 
ATOM      6  C   UNL d   1      26.285 -16.155  -0.742  0.00  0.00    -0.035 A 
ATOM      7  C   UNL d   1      27.515 -15.309  -0.568  0.00  0.00     0.050 C 
ENDROOT
BRANCH   3   8
ATOM      8  C   UNL d   1      22.693 -18.584  -0.915  0.00  0.00     0.257 C 
ATOM      9  O   UNL d   1      22.488 -19.257  -1.932  0.00  0.00    -0.267 OA
ATOM     10  N   UNL d   1      21.827 -18.537   0.166  0.00  0.00    -0.307 N 
ATOM     11  H   UNL d   1      21.858 -17.780   0.830  0.00  0.00     0.170 HD
BRANCH  10  12
ATOM     12  C   UNL d   1      20.634 -19.278   0.220  0.00  0.00     0.129 A 
ATOM     13  C   UNL d   1      20.258 -19.925   1.390  0.00  0.00     0.050 A 
ATOM     14  C   UNL d   1      19.086 -20.675   1.410  0.00  0.00     0.005 A 
ATOM     15  C   UNL d   1      18.330 -20.777   0.252  0.00  0.00     0.019 A 
ATOM     16  C   UNL d   1      18.760 -20.075  -0.864  0.00  0.00     0.119 A 
ATOM     17  N   UNL d   1      19.870 -19.293  -0.895  0.00  0.00    -0.243 NA
ENDBRANCH  10  12
ENDBRANCH   3   8
BRANCH   1  18
ATOM     18  N   UNL d   1      25.250 -14.547  -2.294  0.00  0.00    -0.327 N 
ATOM     19  C   UNL d   1      25.414 -14.550  -3.674  0.00  0.00     0.218 C 
ATOM     20  C   UNL d   1      25.423 -13.190  -4.319  0.00  0.00     0.117 C 
ATOM     21  O   UNL d   1      25.517 -15.561  -4.366  0.00  0.00    -0.274 OA
ATOM     22  H   UNL d   1      24.910 -13.703  -1.851  0.00  0.00     0.169 HD
ENDBRANCH   1  18
TORSDOF 3
ENDMDL
MODEL 2
REMARK VINA RESULT:   -30.595      1.683      2.666
REMARK INTER + INTRA:         -31.834
REMARK INTER:                 -31.490
REMARK INTRA:                  -0.344
REMARK CONF_INDEPENDENT:        0.895
REMARK UNBOUND:                -0.344
REMARK  3 active torsions:
REMARK  status: ('A' for Active; 'I' for Inactive)
REMARK       I    between atoms: C_2  and  N_4 
REMARK    1  A    between atoms: N_4  and  C_5 
REMARK    2  A    between atoms: C_7  and  C_8 
REMARK       I    between atoms: C_8  and  N_10 
REMARK    3  A    between atoms: N_10  and  C_11 
ROOT
ATOM      1  C   UNL d   1      26.298 -17.002  -0.693  0.00  0.00     0.041 A 
ATOM      2  C   UNL d   1      25.211 -17.888  -0.591  0.00  0.00     0.047 A 
ATOM      3  C   UNL d   1      23.930 -17.525  -1.008  0.00  0.00     0.034 A 
ATOM      4  C   UNL d   1      23.743 -16.238  -1.534  0.00  0.00     0.018 A 
ATOM      5  C   UNL d   1      24.815 -15.341  -1.634  0.00  0.00     0.010 A 
ATOM      6  C   UNL d   1      26.103 -15.706  -1.205  0.00  0.00    -0.035 A 
ATOM      7  C   UNL d   1      27.239 -14.742  -1.408  0.00  0.00     0.050 C 
ENDROOT
BRANCH   3   8
ATOM      8  C   UNL d   1      22.761 -18.462  -0.945  0.00  0.00     0.257 C 
ATOM      9  O   UNL d   1      22.666 -19.315  -1.835  0.00  0.00    -0.267 OA
ATOM     10  N   UNL d   1      21.827 -18.296   0.066  0.00  0.00    -0.307 N 
ATOM     11  H   UNL d   1      21.765 -17.435   0.587  0.00  0.00     0.170 HD
BRANCH  10  12
ATOM     12  C   UNL d   1      20.687 -19.108   0.192  0.00  0.00     0.129 A 
ATOM     13  C   UNL d   1      20.391 -19.725   1.400  0.00  0.00     0.050 A 
ATOM     14  C   UNL d   1      19.270 -20.546   1.492  0.00  0.00     0.005 A 
ATOM     15  C   UNL d   1      18.488 -20.747   0.365  0.00  0.00     0.019 A 
ATOM     16  C   UNL d   1      18.836 -20.070  -0.794  0.00  0.00     0.119 A 
ATOM     17  N   UNL d   1      19.892 -19.221  -0.895  0.00  0.00    -0.243 NA
ENDBRANCH  10  12
ENDBRANCH   3   8
BRANCH   1  18
ATOM     18  N   UNL d   1      27.583 -17.442  -0.275  0.00  0.00    -0.327 N 
ATOM     19  C   UNL d   1      28.667 -17.449  -1.144  0.00  0.00     0.218 C 
ATOM     20  C   UNL d   1      29.963 -17.924  -0.542  0.00  0.00     0.117 C 
ATOM     21  O   UNL d   1      28.632 -17.076  -2.315  0.00  0.00    -0.274 OA
ATOM     22  H   UNL d   1      27.761 -17.507   0.718  0.00  0.00     0.169 HD
ENDBRANCH   1  18
TORSDOF 3
ENDMDL
MODEL 3
REMARK VINA RESULT:   -30.572      1.884      1.924
REMARK INTER + INTRA:         -31.886
REMARK INTER:                 -31.466
REMARK INTRA:                  -0.419
REMARK CONF_INDEPENDENT:        0.895
REMARK UNBOUND:                -0.419
REMARK  3 active torsions:
REMARK  status: ('A' for Active; 'I' for Inactive)
REMARK       I    between atoms: C_2  and  N_4 
REMARK    1  A    between atoms: N_4  and  C_5 
REMARK    2  A    between atoms: C_7  and  C_8 
REMARK       I    between atoms: C_8  and  N_10 
REMARK    3  A    between atoms: N_10  and  C_11 
ROOT
ATOM      1  C   UNL d   1      25.694 -16.012  -0.794  0.00  0.00     0.041 A 
ATOM      2  C   UNL d   1      24.328 -16.347  -0.839  0.00  0.00     0.047 A 
ATOM      3  C   UNL d   1      23.860 -17.573  -0.365  0.00  0.00     0.034 A 
ATOM      4  C   UNL d   1      24.791 -18.480   0.163  0.00  0.00     0.018 A 
ATOM      5  C   UNL d   1      26.155 -18.163   0.208  0.00  0.00     0.010 A 
ATOM      6  C   UNL d   1      26.626 -16.932  -0.279  0.00  0.00    -0.035 A 
ATOM      7  C   UNL d   1      28.086 -16.601  -0.135  0.00  0.00     0.050 C 
ENDROOT
BRANCH   3   8
ATOM      8  C   UNL d   1      22.407 -17.942  -0.367  0.00  0.00     0.257 C 
ATOM      9  O   UNL d   1      21.599 -17.071  -0.711  0.00  0.00    -0.267 OA
ATOM     10  N   UNL d   1      22.039 -19.209   0.058  0.00  0.00    -0.307 N 
ATOM     11  H   UNL d   1      22.666 -19.781   0.602  0.00  0.00     0.170 HD
BRANCH  10  12
ATOM     12  C   UNL d   1      20.702 -19.636   0.114  0.00  0.00     0.129 A 
ATOM     13  C   UNL d   1      20.232 -20.338   1.217  0.00  0.00     0.050 A 
ATOM     14  C   UNL d   1      18.910 -20.773   1.237  0.00  0.00     0.005 A 
ATOM     15  C   UNL d   1      18.098 -20.516   0.143  0.00  0.00     0.019 A 
ATOM     16  C   UNL d   1      18.637 -19.783  -0.904  0.00  0.00     0.119 A 
ATOM     17  N   UNL d   1      19.906 -19.299  -0.925  0.00  0.00    -0.243 NA
ENDBRANCH  10  12
ENDBRANCH   3   8
BRANCH   1  18
ATOM     18  N   UNL d   1      26.103 -14.738  -1.269  0.00  0.00    -0.327 N 
ATOM     19  C   UNL d   1      26.663 -13.790  -0.422  0.00  0.00     0.218 C 
ATOM     20  C   UNL d   1      27.063 -12.499  -1.084  0.00  0.00     0.117 C 
ATOM     21  O   UNL d   1      26.866 -13.955   0.780  0.00  0.00    -0.274 OA
ATOM     22  H   UNL d   1      26.220 -14.621  -2.267  0.00  0.00     0.169 HD
ENDBRANCH   1  18
TORSDOF 3
ENDMDL
MODEL 4
REMARK VINA RESULT:   -30.339      1.991      2.849
REMARK INTER + INTRA:         -31.754
REMARK INTER:                 -31.234
REMARK INTRA:                  -0.520
REMARK CONF_INDEPENDENT:        0.895
REMARK UNBOUND:                -0.520
REMARK  3 active torsions:
REMARK  status: ('A' for Active; 'I' for Inactive)
REMARK       I    between atoms: C_2  and  N_4 
REMARK    1  A    between atoms: N_4  and  C_5 
REMARK    2  A    between atoms: C_7  and  C_8 
REMARK       I    between atoms: C_8  and  N_10 
REMARK    3  A    between atoms: N_10  and  C_11 
ROOT
ATOM      1  C   UNL d   1      26.298 -16.355  -0.179  0.00  0.00     0.041 A 
ATOM      2  C   UNL d   1      25.261 -17.223   0.208  0.00  0.00     0.047 A 
ATOM      3  C   UNL d   1      24.289 -17.652  -0.697  0.00  0.00     0.034 A 
ATOM      4  C   UNL d   1      24.365 -17.190  -2.020  0.00  0.00     0.018 A 
ATOM      5  C   UNL d   1      25.387 -16.319  -2.418  0.00  0.00     0.010 A 
ATOM      6  C   UNL d   1      26.360 -15.882  -1.503  0.00  0.00    -0.035 A 
ATOM      7  C   UNL d   1      27.485 -15.014  -1.994  0.00  0.00     0.050 C 
ENDROOT
BRANCH   3   8
ATOM      8  C   UNL d   1      23.195 -18.605  -0.321  0.00  0.00     0.257 C 
ATOM      9  O   UNL d   1      23.506 -19.789  -0.144  0.00  0.00    -0.267 OA
ATOM     10  N   UNL d   1      21.895 -18.129  -0.238  0.00  0.00    -0.307 N 
ATOM     11  H   UNL d   1      21.628 -17.256  -0.666  0.00  0.00     0.170 HD
BRANCH  10  12
ATOM     12  C   UNL d   1      20.802 -18.951   0.082  0.00  0.00     0.129 A 
ATOM     13  C   UNL d   1      20.650 -19.453   1.369  0.00  0.00     0.050 A 
ATOM     14  C   UNL d   1      19.573 -20.286   1.655  0.00  0.00     0.005 A 
ATOM     15  C   UNL d   1      18.687 -20.616   0.640  0.00  0.00     0.019 A 
ATOM     16  C   UNL d   1      18.893 -20.049  -0.608  0.00  0.00     0.119 A 
ATOM     17  N   UNL d   1      19.904 -19.189  -0.900  0.00  0.00    -0.243 NA
ENDBRANCH  10  12
ENDBRANCH   3   8
BRANCH   1  18
ATOM     18  N   UNL d   1      27.271 -15.977   0.783  0.00  0.00    -0.327 N 
ATOM     19  C   UNL d   1      27.331 -14.685   1.290  0.00  0.00     0.218 C 
ATOM     20  C   UNL d   1      28.406 -14.451   2.317  0.00  0.00     0.117 C 
ATOM     21  O   UNL d   1      26.567 -13.773   0.978  0.00  0.00    -0.274 OA
ATOM     22  H   UNL d   1      27.752 -16.713   1.283  0.00  0.00     0.169 HD
ENDBRANCH   1  18
TORSDOF 3
ENDMDL
