MODEL 1
REMARK VINA RESULT:   -31.846      0.000      0.000
REMARK INTER + INTRA:         -34.798
REMARK INTER:                 -33.934
REMARK INTRA:                  -0.864
REMARK CONF_INDEPENDENT:        2.088
REMARK UNBOUND:                -0.864
REMARK  7 active torsions:
REMARK  status: ('A' for Active; 'I' for Inactive)
REMARK    1  A    between atoms: C_2  and  N_11 
REMARK    2  A    between atoms: C_2  and  C_3 
REMARK    3  A    between atoms: C_3  and  C_4 
REMARK    4  A    between atoms: C_7  and  O_8 
REMARK       I    between atoms: N_11  and  C_12 
REMARK       I    between atoms: C_12  and  N_14 
REMARK    5  A    between atoms: N_14  and  N_15 
REMARK    6  A    between atoms: N_15  and  C_16 
REMARK    7  A    between atoms: C_19  and  N_20 
ROOT
ATOM      1  N   UNL d   1      28.230 -15.358   0.911  0.00  0.00    -0.338 N 
ATOM      2  C   UNL d   1      27.223 -15.503  -0.028  0.00  0.00     0.331 C 
ATOM      3  O   UNL d   1      26.700 -14.547  -0.607  0.00  0.00    -0.246 OA
ATOM      4  N   UNL d   1      26.853 -16.810  -0.290  0.00  0.00    -0.267 N 
ATOM      5  H   UNL d   1      28.459 -16.143   1.502  0.00  0.00     0.164 HD
ATOM      6  H   UNL d   1      27.289 -17.616   0.137  0.00  0.00     0.186 HD
ENDROOT
BRANCH   1   7
ATOM      7  C   UNL d   1      28.620 -14.008   1.358  0.00  0.00     0.086 C 
ATOM      8  C   UNL d   1      30.028 -14.009   1.960  0.00  0.00     0.032 C 
BRANCH   7   9
ATOM      9  C   UNL d   1      27.643 -13.351   2.378  0.00  0.00     0.063 C 
BRANCH   9  10
ATOM     10  C   UNL d   1      27.956 -13.545   3.858  0.00  0.00    -0.056 A 
ATOM     11  C   UNL d   1      28.095 -12.486   4.771  0.00  0.00     0.010 A 
ATOM     12  C   UNL d   1      28.407 -12.711   6.113  0.00  0.00     0.037 A 
ATOM     13  C   UNL d   1      28.599 -14.008   6.558  0.00  0.00     0.065 A 
ATOM     14  C   UNL d   1      28.480 -15.078   5.683  0.00  0.00     0.037 A 
ATOM     15  C   UNL d   1      28.157 -14.851   4.340  0.00  0.00     0.010 A 
BRANCH  13  16
ATOM     16  O   UNL d   1      28.913 -14.272   7.858  0.00  0.00    -0.361 OA
ATOM     17  H   UNL d   1      29.199 -15.198   7.924  0.00  0.00     0.217 HD
ENDBRANCH  13  16
ENDBRANCH   9  10
ENDBRANCH   7   9
ENDBRANCH   1   7
BRANCH   4  18
ATOM     18  N   UNL d   1      25.797 -16.999  -1.235  0.00  0.00    -0.183 NA
ATOM     19  H   UNL d   1      26.125 -17.496  -2.070  0.00  0.00     0.154 HD
BRANCH  18  20
ATOM     20  C   UNL d   1      24.565 -17.521  -0.774  0.00  0.00     0.143 A 
ATOM     21  C   UNL d   1      23.420 -16.735  -0.808  0.00  0.00     0.051 A 
ATOM     22  C   UNL d   1      22.154 -17.302  -0.585  0.00  0.00     0.058 A 
ATOM     23  C   UNL d   1      22.065 -18.645  -0.252  0.00  0.00     0.172 A 
ATOM     24  N   UNL d   1      23.182 -19.392  -0.145  0.00  0.00    -0.129 NA
ATOM     25  N   UNL d   1      24.436 -18.828  -0.456  0.00  0.00    -0.135 NA
BRANCH  23  26
ATOM     26  N   UNL d   1      20.782 -19.234  -0.072  0.00  0.00    -0.225 N 
ATOM     27  C   UNL d   1      20.332 -19.894   1.057  0.00  0.00     0.122 A 
ATOM     28  C   UNL d   1      19.095 -20.415   0.759  0.00  0.00     0.040 A 
ATOM     29  C   UNL d   1      18.885 -20.062  -0.584  0.00  0.00     0.141 A 
ATOM     30  N   UNL d   1      19.879 -19.322  -1.084  0.00  0.00    -0.179 NA
ENDBRANCH  23  26
ENDBRANCH  18  20
ENDBRANCH   4  18
TORSDOF 7
ENDMDL
MODEL 2
REMARK VINA RESULT:   -31.554      1.685      2.209
REMARK INTER + INTRA:         -34.534
REMARK INTER:                 -33.642
REMARK INTRA:                  -0.891
REMARK CONF_INDEPENDENT:        2.088
REMARK UNBOUND:                -0.891
REMARK  7 active torsions:
REMARK  status: ('A' for Active; 'I' for Inactive)
REMARK    1  A    between atoms: C_2  and  N_11 
REMARK    2  A    between atoms: C_2  and  C_3 
REMARK    3  A    between atoms: C_3  and  C_4 
REMARK    4  A    between atoms: C_7  and  O_8 
REMARK       I    between atoms: N_11  and  C_12 
REMARK       I    between atoms: C_12  and  N_14 
REMARK    5  A    between atoms: N_14  and  N_15 
REMARK    6  A    between atoms: N_15  and  C_16 
REMARK    7  A    between atoms: C_19  and  N_20 
ROOT
ATOM      1  N   UNL d   1      28.229 -15.589   0.987  0.00  0.00    -0.338 N 
ATOM      2  C   UNL d   1      27.212 -15.679   0.051  0.00  0.00     0.331 C 
ATOM      3  O   UNL d   1      26.615 -14.693  -0.390  0.00  0.00    -0.246 OA
ATOM      4  N   UNL d   1      26.923 -16.962  -0.376  0.00  0.00    -0.267 N 
ATOM      5  H   UNL d   1      28.522 -16.427   1.466  0.00  0.00     0.164 HD
ATOM      6  H   UNL d   1      27.421 -17.785  -0.065  0.00  0.00     0.186 HD
ENDROOT
BRANCH   1   7
ATOM      7  C   UNL d   1      28.539 -14.286   1.602  0.00  0.00     0.086 C 
ATOM      8  C   UNL d   1      30.048 -14.109   1.795  0.00  0.00     0.032 C 
BRANCH   7   9
ATOM      9  C   UNL d   1      27.829 -14.022   2.964  0.00  0.00     0.063 C 
BRANCH   9  10
ATOM     10  C   UNL d   1      27.593 -12.565   3.349  0.00  0.00    -0.056 A 
ATOM     11  C   UNL d   1      26.951 -11.633   2.517  0.00  0.00     0.010 A 
ATOM     12  C   UNL d   1      26.780 -10.302   2.902  0.00  0.00     0.037 A 
ATOM     13  C   UNL d   1      27.265  -9.882   4.129  0.00  0.00     0.065 A 
ATOM     14  C   UNL d   1      27.914 -10.772   4.973  0.00  0.00     0.037 A 
ATOM     15  C   UNL d   1      28.075 -12.109   4.589  0.00  0.00     0.010 A 
BRANCH  13  16
ATOM     16  O   UNL d   1      27.126  -8.589   4.541  0.00  0.00    -0.361 OA
ATOM     17  H   UNL d   1      26.882  -8.591   5.481  0.00  0.00     0.217 HD
ENDBRANCH  13  16
ENDBRANCH   9  10
ENDBRANCH   7   9
ENDBRANCH   1   7
BRANCH   4  18
ATOM     18  N   UNL d   1      25.861 -17.097  -1.323  0.00  0.00    -0.183 NA
ATOM     19  H   UNL d   1      26.167 -17.604  -2.161  0.00  0.00     0.154 HD
BRANCH  18  20
ATOM     20  C   UNL d   1      24.606 -17.566  -0.866  0.00  0.00     0.143 A 
ATOM     21  C   UNL d   1      23.474 -16.771  -1.005  0.00  0.00     0.051 A 
ATOM     22  C   UNL d   1      22.194 -17.303  -0.783  0.00  0.00     0.058 A 
ATOM     23  C   UNL d   1      22.073 -18.613  -0.346  0.00  0.00     0.172 A 
ATOM     24  N   UNL d   1      23.174 -19.362  -0.139  0.00  0.00    -0.129 NA
ATOM     25  N   UNL d   1      24.446 -18.841  -0.448  0.00  0.00    -0.135 NA
BRANCH  23  26
ATOM     26  N   UNL d   1      20.776 -19.170  -0.165  0.00  0.00    -0.225 N 
ATOM     27  C   UNL d   1      20.278 -19.736   0.995  0.00  0.00     0.122 A 
ATOM     28  C   UNL d   1      19.044 -20.263   0.694  0.00  0.00     0.040 A 
ATOM     29  C   UNL d   1      18.883 -20.010  -0.677  0.00  0.00     0.141 A 
ATOM     30  N   UNL d   1      19.904 -19.323  -1.198  0.00  0.00    -0.179 NA
ENDBRANCH  23  26
ENDBRANCH  18  20
ENDBRANCH   4  18
TORSDOF 7
ENDMDL
MODEL 3
REMARK VINA RESULT:   -31.151      5.258      6.624
REMARK INTER + INTRA:         -34.674
REMARK INTER:                 -33.240
REMARK INTRA:                  -1.434
REMARK CONF_INDEPENDENT:        2.088
REMARK UNBOUND:                -1.434
REMARK  7 active torsions:
REMARK  status: ('A' for Active; 'I' for Inactive)
REMARK    1  A    between atoms: C_2  and  N_11 
REMARK    2  A    between atoms: C_2  and  C_3 
REMARK    3  A    between atoms: C_3  and  C_4 
REMARK    4  A    between atoms: C_7  and  O_8 
REMARK       I    between atoms: N_11  and  C_12 
REMARK       I    between atoms: C_12  and  N_14 
REMARK    5  A    between atoms: N_14  and  N_15 
REMARK    6  A    between atoms: N_15  and  C_16 
REMARK    7  A    between atoms: C_19  and  N_20 
ROOT
ATOM      1  N   UNL d   1      26.998 -15.362  -4.292  0.00  0.00    -0.338 N 
ATOM      2  C   UNL d   1      26.103 -15.152  -3.256  0.00  0.00     0.331 C 
ATOM      3  O   UNL d   1      25.373 -14.159  -3.188  0.00  0.00    -0.246 OA
ATOM      4  N   UNL d   1      26.067 -16.153  -2.302  0.00  0.00    -0.267 N 
ATOM      5  H   UNL d   1      27.711 -16.067  -4.180  0.00  0.00     0.164 HD
ATOM      6  H   UNL d   1      26.621 -16.998  -2.350  0.00  0.00     0.186 HD
ENDROOT
BRANCH   1   7
ATOM      7  C   UNL d   1      27.208 -14.306  -5.298  0.00  0.00     0.086 C 
ATOM      8  C   UNL d   1      28.036 -14.822  -6.479  0.00  0.00     0.032 C 
BRANCH   7   9
ATOM      9  C   UNL d   1      27.874 -13.008  -4.752  0.00  0.00     0.063 C 
BRANCH   9  10
ATOM     10  C   UNL d   1      26.978 -11.782  -4.601  0.00  0.00    -0.056 A 
ATOM     11  C   UNL d   1      26.363 -11.411  -3.395  0.00  0.00     0.010 A 
ATOM     12  C   UNL d   1      25.530 -10.294  -3.310  0.00  0.00     0.037 A 
ATOM     13  C   UNL d   1      25.291  -9.537  -4.444  0.00  0.00     0.065 A 
ATOM     14  C   UNL d   1      25.875  -9.879  -5.656  0.00  0.00     0.037 A 
ATOM     15  C   UNL d   1      26.717 -10.994  -5.736  0.00  0.00     0.010 A 
BRANCH  13  16
ATOM     16  O   UNL d   1      24.479  -8.442  -4.408  0.00  0.00    -0.361 OA
ATOM     17  H   UNL d   1      24.123  -8.353  -3.509  0.00  0.00     0.217 HD
ENDBRANCH  13  16
ENDBRANCH   9  10
ENDBRANCH   7   9
ENDBRANCH   1   7
BRANCH   4  18
ATOM     18  N   UNL d   1      25.174 -15.959  -1.203  0.00  0.00    -0.183 NA
ATOM     19  H   UNL d   1      24.933 -14.969  -1.085  0.00  0.00     0.154 HD
BRANCH  18  20
ATOM     20  C   UNL d   1      24.026 -16.783  -1.114  0.00  0.00     0.143 A 
ATOM     21  C   UNL d   1      24.160 -18.132  -0.805  0.00  0.00     0.051 A 
ATOM     22  C   UNL d   1      23.036 -18.907  -0.477  0.00  0.00     0.058 A 
ATOM     23  C   UNL d   1      21.777 -18.331  -0.540  0.00  0.00     0.172 A 
ATOM     24  N   UNL d   1      21.639 -17.043  -0.913  0.00  0.00    -0.129 NA
ATOM     25  N   UNL d   1      22.782 -16.256  -1.156  0.00  0.00    -0.135 NA
BRANCH  23  26
ATOM     26  N   UNL d   1      20.640 -19.100  -0.164  0.00  0.00    -0.225 N 
ATOM     27  C   UNL d   1      20.480 -19.810   1.012  0.00  0.00     0.122 A 
ATOM     28  C   UNL d   1      19.300 -20.509   0.909  0.00  0.00     0.040 A 
ATOM     29  C   UNL d   1      18.825 -20.199  -0.375  0.00  0.00     0.141 A 
ATOM     30  N   UNL d   1      19.606 -19.325  -1.017  0.00  0.00    -0.179 NA
ENDBRANCH  23  26
ENDBRANCH  18  20
ENDBRANCH   4  18
TORSDOF 7
ENDMDL
MODEL 4
REMARK VINA RESULT:   -31.075      4.461      6.255
REMARK INTER + INTRA:         -34.606
REMARK INTER:                 -33.163
REMARK INTRA:                  -1.443
REMARK CONF_INDEPENDENT:        2.088
REMARK UNBOUND:                -1.443
REMARK  7 active torsions:
REMARK  status: ('A' for Active; 'I' for Inactive)
REMARK    1  A    between atoms: C_2  and  N_11 
REMARK    2  A    between atoms: C_2  and  C_3 
REMARK    3  A    between atoms: C_3  and  C_4 
REMARK    4  A    between atoms: C_7  and  O_8 
REMARK       I    between atoms: N_11  and  C_12 
REMARK       I    between atoms: C_12  and  N_14 
REMARK    5  A    between atoms: N_14  and  N_15 
REMARK    6  A    between atoms: N_15  and  C_16 
REMARK    7  A    between atoms: C_19  and  N_20 
ROOT
ATOM      1  N   UNL d   1      28.775 -17.506  -0.522  0.00  0.00    -0.338 N 
ATOM      2  C   UNL d   1      27.627 -16.943  -1.056  0.00  0.00     0.331 C 
ATOM      3  O   UNL d   1      27.512 -16.655  -2.250  0.00  0.00    -0.246 OA
ATOM      4  N   UNL d   1      26.600 -16.742  -0.151  0.00  0.00    -0.267 N 
ATOM      5  H   UNL d   1      28.890 -17.513   0.481  0.00  0.00     0.164 HD
ATOM      6  H   UNL d   1      26.648 -17.005   0.824  0.00  0.00     0.186 HD
ENDROOT
BRANCH   1   7
ATOM      7  C   UNL d   1      29.974 -17.652  -1.366  0.00  0.00     0.086 C 
ATOM      8  C   UNL d   1      31.122 -18.304  -0.589  0.00  0.00     0.032 C 
BRANCH   7   9
ATOM      9  C   UNL d   1      30.492 -16.326  -2.000  0.00  0.00     0.063 C 
BRANCH   9  10
ATOM     10  C   UNL d   1      29.982 -15.982  -3.395  0.00  0.00    -0.056 A 
ATOM     11  C   UNL d   1      30.128 -16.827  -4.508  0.00  0.00     0.010 A 
ATOM     12  C   UNL d   1      29.667 -16.459  -5.773  0.00  0.00     0.037 A 
ATOM     13  C   UNL d   1      29.060 -15.226  -5.944  0.00  0.00     0.065 A 
ATOM     14  C   UNL d   1      28.907 -14.361  -4.869  0.00  0.00     0.037 A 
ATOM     15  C   UNL d   1      29.361 -14.737  -3.599  0.00  0.00     0.010 A 
BRANCH  13  16
ATOM     16  O   UNL d   1      28.602 -14.824  -7.163  0.00  0.00    -0.361 OA
ATOM     17  H   UNL d   1      29.306 -14.962  -7.818  0.00  0.00     0.217 HD
ENDBRANCH  13  16
ENDBRANCH   9  10
ENDBRANCH   7   9
ENDBRANCH   1   7
BRANCH   4  18
ATOM     18  N   UNL d   1      25.408 -16.139  -0.660  0.00  0.00    -0.183 NA
ATOM     19  H   UNL d   1      25.577 -15.673  -1.558  0.00  0.00     0.154 HD
BRANCH  18  20
ATOM     20  C   UNL d   1      24.223 -16.912  -0.694  0.00  0.00     0.143 A 
ATOM     21  C   UNL d   1      24.260 -18.258  -0.350  0.00  0.00     0.051 A 
ATOM     22  C   UNL d   1      23.072 -18.978  -0.145  0.00  0.00     0.058 A 
ATOM     23  C   UNL d   1      21.856 -18.351  -0.365  0.00  0.00     0.172 A 
ATOM     24  N   UNL d   1      21.819 -17.066  -0.771  0.00  0.00    -0.129 NA
ATOM     25  N   UNL d   1      23.017 -16.334  -0.889  0.00  0.00    -0.135 NA
BRANCH  23  26
ATOM     26  N   UNL d   1      20.649 -19.063  -0.113  0.00  0.00    -0.225 N 
ATOM     27  C   UNL d   1      20.296 -19.690   1.068  0.00  0.00     0.122 A 
ATOM     28  C   UNL d   1      19.119 -20.363   0.836  0.00  0.00     0.040 A 
ATOM     29  C   UNL d   1      18.846 -20.127  -0.521  0.00  0.00     0.141 A 
ATOM     30  N   UNL d   1      19.743 -19.318  -1.094  0.00  0.00    -0.179 NA
ENDBRANCH  23  26
ENDBRANCH  18  20
ENDBRANCH   4  18
TORSDOF 7
ENDMDL
MODEL 5
REMARK VINA RESULT:   -31.022      1.428      1.914
REMARK INTER + INTRA:         -34.453
REMARK INTER:                 -33.110
REMARK INTRA:                  -1.343
REMARK CONF_INDEPENDENT:        2.088
REMARK UNBOUND:                -1.343
REMARK  7 active torsions:
REMARK  status: ('A' for Active; 'I' for Inactive)
REMARK    1  A    between atoms: C_2  and  N_11 
REMARK    2  A    between atoms: C_2  and  C_3 
REMARK    3  A    between atoms: C_3  and  C_4 
REMARK    4  A    between atoms: C_7  and  O_8 
REMARK       I    between atoms: N_11  and  C_12 
REMARK       I    between atoms: C_12  and  N_14 
REMARK    5  A    between atoms: N_14  and  N_15 
REMARK    6  A    between atoms: N_15  and  C_16 
REMARK    7  A    between atoms: C_19  and  N_20 
ROOT
ATOM      1  N   UNL d   1      28.781 -16.282   0.217  0.00  0.00    -0.338 N 
ATOM      2  C   UNL d   1      27.661 -15.807  -0.444  0.00  0.00     0.331 C 
ATOM      3  O   UNL d   1      27.701 -14.873  -1.249  0.00  0.00    -0.246 OA
ATOM      4  N   UNL d   1      26.484 -16.472  -0.152  0.00  0.00    -0.267 N 
ATOM      5  H   UNL d   1      28.653 -16.888   1.013  0.00  0.00     0.164 HD
ATOM      6  H   UNL d   1      26.425 -17.267   0.471  0.00  0.00     0.186 HD
ENDROOT
BRANCH   1   7
ATOM      7  C   UNL d   1      30.066 -15.573   0.076  0.00  0.00     0.086 C 
ATOM      8  C   UNL d   1      31.247 -16.500   0.378  0.00  0.00     0.032 C 
BRANCH   7   9
ATOM      9  C   UNL d   1      30.202 -14.291   0.951  0.00  0.00     0.063 C 
BRANCH   9  10
ATOM     10  C   UNL d   1      29.733 -14.390   2.399  0.00  0.00    -0.056 A 
ATOM     11  C   UNL d   1      30.596 -14.606   3.485  0.00  0.00     0.010 A 
ATOM     12  C   UNL d   1      30.118 -14.714   4.792  0.00  0.00     0.037 A 
ATOM     13  C   UNL d   1      28.756 -14.620   5.027  0.00  0.00     0.065 A 
ATOM     14  C   UNL d   1      27.872 -14.416   3.977  0.00  0.00     0.037 A 
ATOM     15  C   UNL d   1      28.355 -14.298   2.669  0.00  0.00     0.010 A 
BRANCH  13  16
ATOM     16  O   UNL d   1      28.246 -14.728   6.287  0.00  0.00    -0.361 OA
ATOM     17  H   UNL d   1      28.465 -15.608   6.633  0.00  0.00     0.217 HD
ENDBRANCH  13  16
ENDBRANCH   9  10
ENDBRANCH   7   9
ENDBRANCH   1   7
BRANCH   4  18
ATOM     18  N   UNL d   1      25.301 -15.993  -0.796  0.00  0.00    -0.183 NA
ATOM     19  H   UNL d   1      25.504 -15.633  -1.734  0.00  0.00     0.154 HD
BRANCH  18  20
ATOM     20  C   UNL d   1      24.153 -16.820  -0.797  0.00  0.00     0.143 A 
ATOM     21  C   UNL d   1      24.244 -18.139  -0.368  0.00  0.00     0.051 A 
ATOM     22  C   UNL d   1      23.086 -18.898  -0.134  0.00  0.00     0.058 A 
ATOM     23  C   UNL d   1      21.847 -18.343  -0.411  0.00  0.00     0.172 A 
ATOM     24  N   UNL d   1      21.760 -17.089  -0.899  0.00  0.00    -0.129 NA
ATOM     25  N   UNL d   1      22.926 -16.312  -1.047  0.00  0.00    -0.135 NA
BRANCH  23  26
ATOM     26  N   UNL d   1      20.669 -19.092  -0.132  0.00  0.00    -0.225 N 
ATOM     27  C   UNL d   1      20.389 -19.778   1.036  0.00  0.00     0.122 A 
ATOM     28  C   UNL d   1      19.216 -20.466   0.833  0.00  0.00     0.040 A 
ATOM     29  C   UNL d   1      18.870 -20.177  -0.496  0.00  0.00     0.141 A 
ATOM     30  N   UNL d   1      19.719 -19.324  -1.076  0.00  0.00    -0.179 NA
ENDBRANCH  23  26
ENDBRANCH  18  20
ENDBRANCH   4  18
TORSDOF 7
ENDMDL
MODEL 6
REMARK VINA RESULT:   -31.003      4.489      6.986
REMARK INTER + INTRA:         -34.386
REMARK INTER:                 -33.091
REMARK INTRA:                  -1.294
REMARK CONF_INDEPENDENT:        2.088
REMARK UNBOUND:                -1.294
REMARK  7 active torsions:
REMARK  status: ('A' for Active; 'I' for Inactive)
REMARK    1  A    between atoms: C_2  and  N_11 
REMARK    2  A    between atoms: C_2  and  C_3 
REMARK    3  A    between atoms: C_3  and  C_4 
REMARK    4  A    between atoms: C_7  and  O_8 
REMARK       I    between atoms: N_11  and  C_12 
REMARK       I    between atoms: C_12  and  N_14 
REMARK    5  A    between atoms: N_14  and  N_15 
REMARK    6  A    between atoms: N_15  and  C_16 
REMARK    7  A    between atoms: C_19  and  N_20 
ROOT
ATOM      1  N   UNL d   1      29.135 -17.723  -0.895  0.00  0.00    -0.338 N 
ATOM      2  C   UNL d   1      28.001 -16.991  -1.205  0.00  0.00     0.331 C 
ATOM      3  O   UNL d   1      27.959 -16.173  -2.128  0.00  0.00    -0.246 OA
ATOM      4  N   UNL d   1      26.900 -17.258  -0.412  0.00  0.00    -0.267 N 
ATOM      5  H   UNL d   1      29.175 -18.202  -0.008  0.00  0.00     0.164 HD
ATOM      6  H   UNL d   1      26.889 -17.950   0.325  0.00  0.00     0.186 HD
ENDROOT
BRANCH   1   7
ATOM      7  C   UNL d   1      30.401 -17.434  -1.594  0.00  0.00     0.086 C 
ATOM      8  C   UNL d   1      31.116 -16.231  -0.971  0.00  0.00     0.032 C 
BRANCH   7   9
ATOM      9  C   UNL d   1      30.260 -17.191  -3.126  0.00  0.00     0.063 C 
BRANCH   9  10
ATOM     10  C   UNL d   1      30.622 -18.353  -4.046  0.00  0.00    -0.056 A 
ATOM     11  C   UNL d   1      30.378 -18.357  -5.429  0.00  0.00     0.010 A 
ATOM     12  C   UNL d   1      30.704 -19.454  -6.228  0.00  0.00     0.037 A 
ATOM     13  C   UNL d   1      31.270 -20.575  -5.645  0.00  0.00     0.065 A 
ATOM     14  C   UNL d   1      31.515 -20.611  -4.279  0.00  0.00     0.037 A 
ATOM     15  C   UNL d   1      31.197 -19.506  -3.482  0.00  0.00     0.010 A 
BRANCH  13  16
ATOM     16  O   UNL d   1      31.597 -21.672  -6.386  0.00  0.00    -0.361 OA
ATOM     17  H   UNL d   1      30.782 -22.045  -6.760  0.00  0.00     0.217 HD
ENDBRANCH  13  16
ENDBRANCH   9  10
ENDBRANCH   7   9
ENDBRANCH   1   7
BRANCH   4  18
ATOM     18  N   UNL d   1      25.717 -16.503  -0.684  0.00  0.00    -0.183 NA
ATOM     19  H   UNL d   1      25.836 -15.902  -1.507  0.00  0.00     0.154 HD
BRANCH  18  20
ATOM     20  C   UNL d   1      24.476 -17.182  -0.717  0.00  0.00     0.143 A 
ATOM     21  C   UNL d   1      24.425 -18.551  -0.476  0.00  0.00     0.051 A 
ATOM     22  C   UNL d   1      23.196 -19.196  -0.266  0.00  0.00     0.058 A 
ATOM     23  C   UNL d   1      22.022 -18.467  -0.379  0.00  0.00     0.172 A 
ATOM     24  N   UNL d   1      22.066 -17.156  -0.687  0.00  0.00    -0.129 NA
ATOM     25  N   UNL d   1      23.310 -16.505  -0.810  0.00  0.00    -0.135 NA
BRANCH  23  26
ATOM     26  N   UNL d   1      20.777 -19.107  -0.121  0.00  0.00    -0.225 N 
ATOM     27  C   UNL d   1      20.386 -19.696   1.067  0.00  0.00     0.122 A 
ATOM     28  C   UNL d   1      19.174 -20.306   0.841  0.00  0.00     0.040 A 
ATOM     29  C   UNL d   1      18.919 -20.074  -0.520  0.00  0.00     0.141 A 
ATOM     30  N   UNL d   1      19.860 -19.325  -1.102  0.00  0.00    -0.179 NA
ENDBRANCH  23  26
ENDBRANCH  18  20
ENDBRANCH   4  18
TORSDOF 7
ENDMDL
MODEL 7
REMARK VINA RESULT:   -30.987      1.336      1.484
REMARK INTER + INTRA:         -34.460
REMARK INTER:                 -33.075
REMARK INTRA:                  -1.385
REMARK CONF_INDEPENDENT:        2.088
REMARK UNBOUND:                -1.385
REMARK  7 active torsions:
REMARK  status: ('A' for Active; 'I' for Inactive)
REMARK    1  A    between atoms: C_2  and  N_11 
REMARK    2  A    between atoms: C_2  and  C_3 
REMARK    3  A    between atoms: C_3  and  C_4 
REMARK    4  A    between atoms: C_7  and  O_8 
REMARK       I    between atoms: N_11  and  C_12 
REMARK       I    between atoms: C_12  and  N_14 
REMARK    5  A    between atoms: N_14  and  N_15 
REMARK    6  A    between atoms: N_15  and  C_16 
REMARK    7  A    between atoms: C_19  and  N_20 
ROOT
ATOM      1  N   UNL d   1      26.640 -13.642   0.962  0.00  0.00    -0.338 N 
ATOM      2  C   UNL d   1      26.580 -14.967   0.564  0.00  0.00     0.331 C 
ATOM      3  O   UNL d   1      27.163 -15.876   1.160  0.00  0.00    -0.246 OA
ATOM      4  N   UNL d   1      25.794 -15.207  -0.549  0.00  0.00    -0.267 N 
ATOM      5  H   UNL d   1      26.330 -12.929   0.319  0.00  0.00     0.164 HD
ATOM      6  H   UNL d   1      25.271 -14.492  -1.035  0.00  0.00     0.186 HD
ENDROOT
BRANCH   1   7
ATOM      7  C   UNL d   1      27.542 -13.252   2.061  0.00  0.00     0.086 C 
ATOM      8  C   UNL d   1      28.962 -13.776   1.824  0.00  0.00     0.032 C 
BRANCH   7   9
ATOM      9  C   UNL d   1      27.076 -13.700   3.478  0.00  0.00     0.063 C 
BRANCH   9  10
ATOM     10  C   UNL d   1      28.098 -13.599   4.606  0.00  0.00    -0.056 A 
ATOM     11  C   UNL d   1      28.170 -12.516   5.497  0.00  0.00     0.010 A 
ATOM     12  C   UNL d   1      29.139 -12.455   6.500  0.00  0.00     0.037 A 
ATOM     13  C   UNL d   1      30.065 -13.478   6.614  0.00  0.00     0.065 A 
ATOM     14  C   UNL d   1      30.031 -14.559   5.744  0.00  0.00     0.037 A 
ATOM     15  C   UNL d   1      29.051 -14.623   4.746  0.00  0.00     0.010 A 
BRANCH  13  16
ATOM     16  O   UNL d   1      31.033 -13.455   7.573  0.00  0.00    -0.361 OA
ATOM     17  H   UNL d   1      31.884 -13.674   7.158  0.00  0.00     0.217 HD
ENDBRANCH  13  16
ENDBRANCH   9  10
ENDBRANCH   7   9
ENDBRANCH   1   7
BRANCH   4  18
ATOM     18  N   UNL d   1      25.728 -16.560  -1.006  0.00  0.00    -0.183 NA
ATOM     19  H   UNL d   1      26.465 -17.136  -0.584  0.00  0.00     0.154 HD
BRANCH  18  20
ATOM     20  C   UNL d   1      24.477 -17.221  -0.977  0.00  0.00     0.143 A 
ATOM     21  C   UNL d   1      24.411 -18.575  -0.669  0.00  0.00     0.051 A 
ATOM     22  C   UNL d   1      23.178 -19.190  -0.401  0.00  0.00     0.058 A 
ATOM     23  C   UNL d   1      22.013 -18.449  -0.523  0.00  0.00     0.172 A 
ATOM     24  N   UNL d   1      22.069 -17.155  -0.896  0.00  0.00    -0.129 NA
ATOM     25  N   UNL d   1      23.319 -16.531  -1.078  0.00  0.00    -0.135 NA
BRANCH  23  26
ATOM     26  N   UNL d   1      20.765 -19.056  -0.207  0.00  0.00    -0.225 N 
ATOM     27  C   UNL d   1      20.385 -19.563   1.022  0.00  0.00     0.122 A 
ATOM     28  C   UNL d   1      19.163 -20.171   0.852  0.00  0.00     0.040 A 
ATOM     29  C   UNL d   1      18.889 -20.023  -0.517  0.00  0.00     0.141 A 
ATOM     30  N   UNL d   1      19.831 -19.324  -1.158  0.00  0.00    -0.179 NA
ENDBRANCH  23  26
ENDBRANCH  18  20
ENDBRANCH   4  18
TORSDOF 7
ENDMDL
MODEL 8
REMARK VINA RESULT:   -30.940      4.241      5.712
REMARK INTER + INTRA:         -34.535
REMARK INTER:                 -33.029
REMARK INTRA:                  -1.507
REMARK CONF_INDEPENDENT:        2.088
REMARK UNBOUND:                -1.507
REMARK  7 active torsions:
REMARK  status: ('A' for Active; 'I' for Inactive)
REMARK    1  A    between atoms: C_2  and  N_11 
REMARK    2  A    between atoms: C_2  and  C_3 
REMARK    3  A    between atoms: C_3  and  C_4 
REMARK    4  A    between atoms: C_7  and  O_8 
REMARK       I    between atoms: N_11  and  C_12 
REMARK       I    between atoms: C_12  and  N_14 
REMARK    5  A    between atoms: N_14  and  N_15 
REMARK    6  A    between atoms: N_15  and  C_16 
REMARK    7  A    between atoms: C_19  and  N_20 
ROOT
ATOM      1  N   UNL d   1      28.754 -16.481  -2.305  0.00  0.00    -0.338 N 
ATOM      2  C   UNL d   1      27.754 -16.100  -1.427  0.00  0.00     0.331 C 
ATOM      3  O   UNL d   1      27.615 -14.941  -1.027  0.00  0.00    -0.246 OA
ATOM      4  N   UNL d   1      26.898 -17.115  -1.041  0.00  0.00    -0.267 N 
ATOM      5  H   UNL d   1      28.950 -17.465  -2.419  0.00  0.00     0.164 HD
ATOM      6  H   UNL d   1      26.959 -18.065  -1.381  0.00  0.00     0.186 HD
ENDROOT
BRANCH   1   7
ATOM      7  C   UNL d   1      29.796 -15.511  -2.688  0.00  0.00     0.086 C 
ATOM      8  C   UNL d   1      30.548 -14.991  -1.459  0.00  0.00     0.032 C 
BRANCH   7   9
ATOM      9  C   UNL d   1      29.280 -14.291  -3.509  0.00  0.00     0.063 C 
BRANCH   9  10
ATOM     10  C   UNL d   1      27.773 -14.189  -3.723  0.00  0.00    -0.056 A 
ATOM     11  C   UNL d   1      27.033 -15.099  -4.495  0.00  0.00     0.010 A 
ATOM     12  C   UNL d   1      25.657 -14.951  -4.683  0.00  0.00     0.037 A 
ATOM     13  C   UNL d   1      25.004 -13.875  -4.106  0.00  0.00     0.065 A 
ATOM     14  C   UNL d   1      25.705 -12.951  -3.345  0.00  0.00     0.037 A 
ATOM     15  C   UNL d   1      27.083 -13.106  -3.149  0.00  0.00     0.010 A 
BRANCH  13  16
ATOM     16  O   UNL d   1      23.663 -13.689  -4.271  0.00  0.00    -0.361 OA
ATOM     17  H   UNL d   1      23.527 -13.050  -4.990  0.00  0.00     0.217 HD
ENDBRANCH  13  16
ENDBRANCH   9  10
ENDBRANCH   7   9
ENDBRANCH   1   7
BRANCH   4  18
ATOM     18  N   UNL d   1      25.867 -16.766  -0.114  0.00  0.00    -0.183 NA
ATOM     19  H   UNL d   1      25.800 -15.749   0.007  0.00  0.00     0.154 HD
BRANCH  18  20
ATOM     20  C   UNL d   1      24.589 -17.352  -0.274  0.00  0.00     0.143 A 
ATOM     21  C   UNL d   1      24.447 -18.734  -0.234  0.00  0.00     0.051 A 
ATOM     22  C   UNL d   1      23.174 -19.322  -0.150  0.00  0.00     0.058 A 
ATOM     23  C   UNL d   1      22.052 -18.510  -0.187  0.00  0.00     0.172 A 
ATOM     24  N   UNL d   1      22.186 -17.173  -0.302  0.00  0.00    -0.129 NA
ATOM     25  N   UNL d   1      23.470 -16.594  -0.299  0.00  0.00    -0.135 NA
BRANCH  23  26
ATOM     26  N   UNL d   1      20.762 -19.097  -0.055  0.00  0.00    -0.225 N 
ATOM     27  C   UNL d   1      20.262 -19.741   1.062  0.00  0.00     0.122 A 
ATOM     28  C   UNL d   1      19.040 -20.268   0.716  0.00  0.00     0.040 A 
ATOM     29  C   UNL d   1      18.890 -19.935  -0.639  0.00  0.00     0.141 A 
ATOM     30  N   UNL d   1      19.905 -19.201  -1.106  0.00  0.00    -0.179 NA
ENDBRANCH  23  26
ENDBRANCH  18  20
ENDBRANCH   4  18
TORSDOF 7
ENDMDL
MODEL 9
REMARK VINA RESULT:   -30.863      2.485      3.432
REMARK INTER + INTRA:         -34.512
REMARK INTER:                 -32.951
REMARK INTRA:                  -1.561
REMARK CONF_INDEPENDENT:        2.088
REMARK UNBOUND:                -1.561
REMARK  7 active torsions:
REMARK  status: ('A' for Active; 'I' for Inactive)
REMARK    1  A    between atoms: C_2  and  N_11 
REMARK    2  A    between atoms: C_2  and  C_3 
REMARK    3  A    between atoms: C_3  and  C_4 
REMARK    4  A    between atoms: C_7  and  O_8 
REMARK       I    between atoms: N_11  and  C_12 
REMARK       I    between atoms: C_12  and  N_14 
REMARK    5  A    between atoms: N_14  and  N_15 
REMARK    6  A    between atoms: N_15  and  C_16 
REMARK    7  A    between atoms: C_19  and  N_20 
ROOT
ATOM      1  N   UNL d   1      28.930 -17.715  -0.521  0.00  0.00    -0.338 N 
ATOM      2  C   UNL d   1      27.809 -17.088  -1.038  0.00  0.00     0.331 C 
ATOM      3  O   UNL d   1      27.766 -16.617  -2.177  0.00  0.00    -0.246 OA
ATOM      4  N   UNL d   1      26.720 -17.045  -0.186  0.00  0.00    -0.267 N 
ATOM      5  H   UNL d   1      28.979 -17.879   0.473  0.00  0.00     0.164 HD
ATOM      6  H   UNL d   1      26.709 -17.457   0.738  0.00  0.00     0.186 HD
ENDROOT
BRANCH   1   7
ATOM      7  C   UNL d   1      30.186 -17.712  -1.294  0.00  0.00     0.086 C 
ATOM      8  C   UNL d   1      31.084 -18.888  -0.896  0.00  0.00     0.032 C 
BRANCH   7   9
ATOM      9  C   UNL d   1      31.013 -16.396  -1.189  0.00  0.00     0.063 C 
BRANCH   9  10
ATOM     10  C   UNL d   1      30.989 -15.670   0.152  0.00  0.00    -0.056 A 
ATOM     11  C   UNL d   1      29.968 -14.788   0.542  0.00  0.00     0.010 A 
ATOM     12  C   UNL d   1      30.001 -14.126   1.770  0.00  0.00     0.037 A 
ATOM     13  C   UNL d   1      31.072 -14.329   2.624  0.00  0.00     0.065 A 
ATOM     14  C   UNL d   1      32.105 -15.185   2.267  0.00  0.00     0.037 A 
ATOM     15  C   UNL d   1      32.064 -15.856   1.039  0.00  0.00     0.010 A 
BRANCH  13  16
ATOM     16  O   UNL d   1      31.148 -13.697   3.829  0.00  0.00    -0.361 OA
ATOM     17  H   UNL d   1      31.847 -14.119   4.355  0.00  0.00     0.217 HD
ENDBRANCH  13  16
ENDBRANCH   9  10
ENDBRANCH   7   9
ENDBRANCH   1   7
BRANCH   4  18
ATOM     18  N   UNL d   1      25.551 -16.383  -0.674  0.00  0.00    -0.183 NA
ATOM     19  H   UNL d   1      25.731 -15.913  -1.568  0.00  0.00     0.154 HD
BRANCH  18  20
ATOM     20  C   UNL d   1      24.332 -17.102  -0.705  0.00  0.00     0.143 A 
ATOM     21  C   UNL d   1      24.310 -18.448  -0.360  0.00  0.00     0.051 A 
ATOM     22  C   UNL d   1      23.091 -19.114  -0.152  0.00  0.00     0.058 A 
ATOM     23  C   UNL d   1      21.904 -18.434  -0.371  0.00  0.00     0.172 A 
ATOM     24  N   UNL d   1      21.924 -17.149  -0.778  0.00  0.00    -0.129 NA
ATOM     25  N   UNL d   1      23.153 -16.471  -0.900  0.00  0.00    -0.135 NA
BRANCH  23  26
ATOM     26  N   UNL d   1      20.667 -19.091  -0.117  0.00  0.00    -0.225 N 
ATOM     27  C   UNL d   1      20.287 -19.698   1.067  0.00  0.00     0.122 A 
ATOM     28  C   UNL d   1      19.081 -20.319   0.837  0.00  0.00     0.040 A 
ATOM     29  C   UNL d   1      18.818 -20.075  -0.520  0.00  0.00     0.141 A 
ATOM     30  N   UNL d   1      19.749 -19.308  -1.096  0.00  0.00    -0.179 NA
ENDBRANCH  23  26
ENDBRANCH  18  20
ENDBRANCH   4  18
TORSDOF 7
ENDMDL
