MODEL 1
REMARK VINA RESULT:    -8.789      0.000      0.000
REMARK INTER + INTRA:         -13.560
REMARK INTER:                 -11.473
REMARK INTRA:                  -2.086
REMARK CONF_INDEPENDENT:        2.685
REMARK UNBOUND:                -2.086
REMARK  9 active torsions:
REMARK  status: ('A' for Active; 'I' for Inactive)
REMARK    1  A    between atoms: O_2  and  C_3 
REMARK    2  A    between atoms: C_7  and  O_8 
REMARK    3  A    between atoms: C_10  and  C_11 
REMARK       I    between atoms: C_11  and  N_13 
REMARK    4  A    between atoms: N_13  and  C_14 
REMARK    5  A    between atoms: C_14  and  N_16 
REMARK    6  A    between atoms: N_16  and  C_17 
REMARK    7  A    between atoms: C_20  and  N_21 
REMARK    8  A    between atoms: N_24  and  C_25 
REMARK    9  A    between atoms: C_25  and  C_26 
ROOT
ATOM      1  C   UNL d   1      28.889 -14.110   6.267  0.00  0.00     0.034 A 
ATOM      2  C   UNL d   1      29.990 -14.399   5.468  0.00  0.00     0.032 A 
ATOM      3  C   UNL d   1      29.877 -14.338   4.059  0.00  0.00     0.031 A 
ATOM      4  C   UNL d   1      28.675 -14.014   3.399  0.00  0.00     0.030 A 
ATOM      5  C   UNL d   1      27.590 -13.702   4.218  0.00  0.00     0.031 A 
ATOM      6  C   UNL d   1      27.707 -13.720   5.622  0.00  0.00     0.032 A 
ENDROOT
BRANCH   1   7
ATOM      7  N   UNL d   1      28.963 -14.274   7.692  0.00  0.00    -0.333 N 
ATOM      8  H   UNL d   1      29.023 -15.230   8.022  0.00  0.00     0.168 HD
BRANCH   7   9
ATOM      9  C   UNL d   1      28.615 -13.252   8.603  0.00  0.00     0.179 C 
ATOM     10  S   UNL d   1      28.155 -13.562  10.212  0.00  0.00    -0.040 SA
BRANCH   9  11
ATOM     11  N   UNL d   1      28.705 -11.939   8.074  0.00  0.00    -0.299 N 
ATOM     12  C   UNL d   1      29.554 -10.996   8.709  0.00  0.00     0.263 C 
ATOM     13  O   UNL d   1      30.040 -11.301   9.765  0.00  0.00    -0.267 OA
ATOM     14  H   UNL d   1      27.989 -11.584   7.458  0.00  0.00     0.171 HD
BRANCH  12  15
ATOM     15  C   UNL d   1      29.650  -9.529   8.371  0.00  0.00     0.099 A 
ATOM     16  C   UNL d   1      30.065  -8.537   9.324  0.00  0.00     0.086 A 
ATOM     17  C   UNL d   1      30.028  -7.163   8.985  0.00  0.00     0.038 A 
ATOM     18  C   UNL d   1      29.627  -6.744   7.726  0.00  0.00     0.005 A 
ATOM     19  C   UNL d   1      29.142  -7.692   6.826  0.00  0.00     0.038 A 
ATOM     20  C   UNL d   1      29.113  -9.066   7.155  0.00  0.00     0.086 A 
BRANCH  16  21
ATOM     21  O   UNL d   1      30.561  -8.643  10.608  0.00  0.00    -0.355 OA
ATOM     22  C   UNL d   1      30.388  -7.568  11.506  0.00  0.00     0.210 C 
ENDBRANCH  16  21
BRANCH  20  23
ATOM     23  O   UNL d   1      28.603  -9.897   6.186  0.00  0.00    -0.355 OA
ATOM     24  C   UNL d   1      29.569 -10.445   5.279  0.00  0.00     0.210 C 
ENDBRANCH  20  23
ENDBRANCH  12  15
ENDBRANCH   9  11
ENDBRANCH   7   9
ENDBRANCH   1   7
BRANCH   4  25
ATOM     25  N   UNL d   1      28.624 -13.999   2.016  0.00  0.00    -0.378 N 
ATOM     26  C   UNL d   1      27.435 -13.645   1.240  0.00  0.00     0.150 C 
ATOM     27  C   UNL d   1      26.748 -14.884   0.607  0.00  0.00     0.255 C 
ATOM     28  N   UNL d   1      27.748 -15.727  -0.221  0.00  0.00    -0.064 N 
ATOM     29  C   UNL d   1      29.020 -15.951   0.598  0.00  0.00     0.255 C 
ATOM     30  H   UNL d   1      28.003 -15.191  -1.058  0.00  0.00     0.280 HD
ATOM     31  C   UNL d   1      29.640 -14.707   1.246  0.00  0.00     0.150 C 
BRANCH  28  32
ATOM     32  C   UNL d   1      27.122 -17.055  -0.722  0.00  0.00     0.275 C 
BRANCH  32  33
ATOM     33  C   UNL d   1      25.606 -17.187  -0.657  0.00  0.00    -0.011 C 
ATOM     34  C   UNL d   1      25.014 -18.292  -0.003  0.00  0.00     0.010 C 
ATOM     35  C   UNL d   1      23.621 -18.478  -0.023  0.00  0.00     0.001 C 
ATOM     36  C   UNL d   1      22.786 -17.487  -0.526  0.00  0.00     0.002 C 
ATOM     37  C   UNL d   1      23.341 -16.382  -1.142  0.00  0.00     0.024 C 
ATOM     38  C   UNL d   1      24.719 -16.318  -1.329  0.00  0.00     0.042 C 
ATOM     39 CL   UNL d   1      25.173 -15.253  -2.615  0.00  0.00    -0.084 Cl
ENDBRANCH  32  33
ENDBRANCH  28  32
ENDBRANCH   4  25
TORSDOF 9
ENDMDL
MODEL 2
REMARK VINA RESULT:    -8.621      1.293      2.895
REMARK INTER + INTRA:         -13.893
REMARK INTER:                 -11.306
REMARK INTRA:                  -2.586
REMARK CONF_INDEPENDENT:        2.685
REMARK UNBOUND:                -2.586
REMARK  9 active torsions:
REMARK  status: ('A' for Active; 'I' for Inactive)
REMARK    1  A    between atoms: O_2  and  C_3 
REMARK    2  A    between atoms: C_7  and  O_8 
REMARK    3  A    between atoms: C_10  and  C_11 
REMARK       I    between atoms: C_11  and  N_13 
REMARK    4  A    between atoms: N_13  and  C_14 
REMARK    5  A    between atoms: C_14  and  N_16 
REMARK    6  A    between atoms: N_16  and  C_17 
REMARK    7  A    between atoms: C_20  and  N_21 
REMARK    8  A    between atoms: N_24  and  C_25 
REMARK    9  A    between atoms: C_25  and  C_26 
ROOT
ATOM      1  C   UNL d   1      29.201 -14.292   6.153  0.00  0.00     0.034 A 
ATOM      2  C   UNL d   1      28.154 -14.917   5.483  0.00  0.00     0.032 A 
ATOM      3  C   UNL d   1      28.063 -14.825   4.075  0.00  0.00     0.031 A 
ATOM      4  C   UNL d   1      28.982 -14.100   3.291  0.00  0.00     0.030 A 
ATOM      5  C   UNL d   1      30.038 -13.503   3.979  0.00  0.00     0.031 A 
ATOM      6  C   UNL d   1      30.159 -13.626   5.378  0.00  0.00     0.032 A 
ENDROOT
BRANCH   1   7
ATOM      7  N   UNL d   1      29.243 -14.287   7.590  0.00  0.00    -0.333 N 
ATOM      8  H   UNL d   1      29.275 -15.198   8.032  0.00  0.00     0.168 HD
BRANCH   7   9
ATOM      9  C   UNL d   1      28.901 -13.157   8.365  0.00  0.00     0.179 C 
ATOM     10  S   UNL d   1      28.157 -13.272   9.891  0.00  0.00    -0.040 SA
BRANCH   9  11
ATOM     11  N   UNL d   1      29.253 -11.915   7.780  0.00  0.00    -0.299 N 
ATOM     12  C   UNL d   1      28.385 -11.334   6.819  0.00  0.00     0.263 C 
ATOM     13  O   UNL d   1      27.466 -11.998   6.421  0.00  0.00    -0.267 OA
ATOM     14  H   UNL d   1      30.206 -11.585   7.809  0.00  0.00     0.171 HD
BRANCH  12  15
ATOM     15  C   UNL d   1      28.678 -10.105   5.996  0.00  0.00     0.099 A 
ATOM     16  C   UNL d   1      28.047  -9.848   4.730  0.00  0.00     0.086 A 
ATOM     17  C   UNL d   1      28.444  -8.736   3.949  0.00  0.00     0.038 A 
ATOM     18  C   UNL d   1      29.416  -7.855   4.394  0.00  0.00     0.005 A 
ATOM     19  C   UNL d   1      30.092  -8.144   5.579  0.00  0.00     0.038 A 
ATOM     20  C   UNL d   1      29.758  -9.277   6.354  0.00  0.00     0.086 A 
BRANCH  16  21
ATOM     21  O   UNL d   1      27.029 -10.495   4.059  0.00  0.00    -0.355 OA
ATOM     22  C   UNL d   1      27.183 -10.789   2.688  0.00  0.00     0.210 C 
ENDBRANCH  16  21
BRANCH  20  23
ATOM     23  O   UNL d   1      30.505  -9.457   7.494  0.00  0.00    -0.355 OA
ATOM     24  C   UNL d   1      30.027  -8.762   8.654  0.00  0.00     0.210 C 
ENDBRANCH  20  23
ENDBRANCH  12  15
ENDBRANCH   9  11
ENDBRANCH   7   9
ENDBRANCH   1   7
BRANCH   4  25
ATOM     25  N   UNL d   1      28.820 -14.028   1.919  0.00  0.00    -0.378 N 
ATOM     26  C   UNL d   1      27.557 -13.700   1.256  0.00  0.00     0.150 C 
ATOM     27  C   UNL d   1      26.878 -14.943   0.622  0.00  0.00     0.255 C 
ATOM     28  N   UNL d   1      27.844 -15.700  -0.320  0.00  0.00    -0.064 N 
ATOM     29  C   UNL d   1      29.187 -15.897   0.384  0.00  0.00     0.255 C 
ATOM     30  H   UNL d   1      28.006 -15.117  -1.149  0.00  0.00     0.280 HD
ATOM     31  C   UNL d   1      29.800 -14.653   1.039  0.00  0.00     0.150 C 
BRANCH  28  32
ATOM     32  C   UNL d   1      27.240 -17.034  -0.832  0.00  0.00     0.275 C 
BRANCH  32  33
ATOM     33  C   UNL d   1      25.730 -17.209  -0.726  0.00  0.00    -0.011 C 
ATOM     34  C   UNL d   1      25.188 -18.337  -0.068  0.00  0.00     0.010 C 
ATOM     35  C   UNL d   1      23.800 -18.561  -0.052  0.00  0.00     0.001 C 
ATOM     36  C   UNL d   1      22.924 -17.590  -0.520  0.00  0.00     0.002 C 
ATOM     37  C   UNL d   1      23.431 -16.463  -1.139  0.00  0.00     0.024 C 
ATOM     38  C   UNL d   1      24.801 -16.358  -1.363  0.00  0.00     0.042 C 
ATOM     39 CL   UNL d   1      25.189 -15.268  -2.650  0.00  0.00    -0.084 Cl
ENDBRANCH  32  33
ENDBRANCH  28  32
ENDBRANCH   4  25
TORSDOF 9
ENDMDL
MODEL 3
REMARK VINA RESULT:    -8.398      7.671     10.934
REMARK INTER + INTRA:         -13.827
REMARK INTER:                 -11.083
REMARK INTRA:                  -2.744
REMARK CONF_INDEPENDENT:        2.685
REMARK UNBOUND:                -2.744
REMARK  9 active torsions:
REMARK  status: ('A' for Active; 'I' for Inactive)
REMARK    1  A    between atoms: O_2  and  C_3 
REMARK    2  A    between atoms: C_7  and  O_8 
REMARK    3  A    between atoms: C_10  and  C_11 
REMARK       I    between atoms: C_11  and  N_13 
REMARK    4  A    between atoms: N_13  and  C_14 
REMARK    5  A    between atoms: C_14  and  N_16 
REMARK    6  A    between atoms: N_16  and  C_17 
REMARK    7  A    between atoms: C_20  and  N_21 
REMARK    8  A    between atoms: N_24  and  C_25 
REMARK    9  A    between atoms: C_25  and  C_26 
ROOT
ATOM      1  C   UNL d   1      27.263 -10.857  -2.982  0.00  0.00     0.034 A 
ATOM      2  C   UNL d   1      26.381 -11.739  -2.366  0.00  0.00     0.032 A 
ATOM      3  C   UNL d   1      26.877 -12.750  -1.510  0.00  0.00     0.031 A 
ATOM      4  C   UNL d   1      28.250 -12.936  -1.255  0.00  0.00     0.030 A 
ATOM      5  C   UNL d   1      29.115 -12.026  -1.862  0.00  0.00     0.031 A 
ATOM      6  C   UNL d   1      28.625 -10.990  -2.682  0.00  0.00     0.032 A 
ENDROOT
BRANCH   1   7
ATOM      7  N   UNL d   1      26.780  -9.897  -3.937  0.00  0.00    -0.333 N 
ATOM      8  H   UNL d   1      26.382  -9.051  -3.546  0.00  0.00     0.168 HD
BRANCH   7   9
ATOM      9  C   UNL d   1      26.526 -10.217  -5.288  0.00  0.00     0.179 C 
ATOM     10  S   UNL d   1      25.198  -9.597  -6.153  0.00  0.00    -0.040 SA
BRANCH   9  11
ATOM     11  N   UNL d   1      27.485 -11.080  -5.878  0.00  0.00    -0.299 N 
ATOM     12  C   UNL d   1      27.316 -12.484  -5.760  0.00  0.00     0.263 C 
ATOM     13  O   UNL d   1      26.452 -12.883  -5.025  0.00  0.00    -0.267 OA
ATOM     14  H   UNL d   1      28.403 -10.738  -6.120  0.00  0.00     0.171 HD
BRANCH  12  15
ATOM     15  C   UNL d   1      28.311 -13.531  -6.192  0.00  0.00     0.099 A 
ATOM     16  C   UNL d   1      28.255 -14.893  -5.736  0.00  0.00     0.086 A 
ATOM     17  C   UNL d   1      29.280 -15.804  -6.085  0.00  0.00     0.038 A 
ATOM     18  C   UNL d   1      30.337 -15.421  -6.895  0.00  0.00     0.005 A 
ATOM     19  C   UNL d   1      30.445 -14.082  -7.270  0.00  0.00     0.038 A 
ATOM     20  C   UNL d   1      29.467 -13.135  -6.891  0.00  0.00     0.086 A 
BRANCH  16  21
ATOM     21  O   UNL d   1      27.320 -15.575  -4.984  0.00  0.00    -0.355 OA
ATOM     22  C   UNL d   1      25.969 -15.575  -5.395  0.00  0.00     0.210 C 
ENDBRANCH  16  21
BRANCH  20  23
ATOM     23  O   UNL d   1      29.693 -11.847  -7.314  0.00  0.00    -0.355 OA
ATOM     24  C   UNL d   1      30.641 -11.712  -8.382  0.00  0.00     0.210 C 
ENDBRANCH  20  23
ENDBRANCH  12  15
ENDBRANCH   9  11
ENDBRANCH   7   9
ENDBRANCH   1   7
BRANCH   4  25
ATOM     25  N   UNL d   1      28.671 -13.962  -0.429  0.00  0.00    -0.378 N 
ATOM     26  C   UNL d   1      29.526 -15.068  -0.860  0.00  0.00     0.150 C 
ATOM     27  C   UNL d   1      28.742 -16.396  -1.032  0.00  0.00     0.255 C 
ATOM     28  N   UNL d   1      27.939 -16.751   0.243  0.00  0.00    -0.064 N 
ATOM     29  C   UNL d   1      27.169 -15.517   0.716  0.00  0.00     0.255 C 
ATOM     30  H   UNL d   1      28.606 -17.008   0.980  0.00  0.00     0.280 HD
ATOM     31  C   UNL d   1      27.972 -14.215   0.826  0.00  0.00     0.150 C 
BRANCH  28  32
ATOM     32  C   UNL d   1      27.020 -17.982   0.034  0.00  0.00     0.275 C 
BRANCH  32  33
ATOM     33  C   UNL d   1      25.532 -17.723  -0.164  0.00  0.00    -0.011 C 
ATOM     34  C   UNL d   1      24.574 -18.570   0.439  0.00  0.00     0.010 C 
ATOM     35  C   UNL d   1      23.202 -18.401   0.182  0.00  0.00     0.001 C 
ATOM     36  C   UNL d   1      22.748 -17.292  -0.520  0.00  0.00     0.002 C 
ATOM     37  C   UNL d   1      23.665 -16.431  -1.093  0.00  0.00     0.024 C 
ATOM     38  C   UNL d   1      25.022 -16.734  -1.034  0.00  0.00     0.042 C 
ATOM     39 CL   UNL d   1      25.938 -15.957  -2.281  0.00  0.00    -0.084 Cl
ENDBRANCH  32  33
ENDBRANCH  28  32
ENDBRANCH   4  25
TORSDOF 9
ENDMDL
MODEL 4
REMARK VINA RESULT:    -8.258      8.099     10.766
REMARK INTER + INTRA:         -13.491
REMARK INTER:                 -10.942
REMARK INTRA:                  -2.549
REMARK CONF_INDEPENDENT:        2.685
REMARK UNBOUND:                -2.549
REMARK  9 active torsions:
REMARK  status: ('A' for Active; 'I' for Inactive)
REMARK    1  A    between atoms: O_2  and  C_3 
REMARK    2  A    between atoms: C_7  and  O_8 
REMARK    3  A    between atoms: C_10  and  C_11 
REMARK       I    between atoms: C_11  and  N_13 
REMARK    4  A    between atoms: N_13  and  C_14 
REMARK    5  A    between atoms: C_14  and  N_16 
REMARK    6  A    between atoms: N_16  and  C_17 
REMARK    7  A    between atoms: C_20  and  N_21 
REMARK    8  A    between atoms: N_24  and  C_25 
REMARK    9  A    between atoms: C_25  and  C_26 
ROOT
ATOM      1  C   UNL d   1      29.079 -14.250  -6.421  0.00  0.00     0.034 A 
ATOM      2  C   UNL d   1      30.313 -14.032  -5.817  0.00  0.00     0.032 A 
ATOM      3  C   UNL d   1      30.578 -14.570  -4.536  0.00  0.00     0.031 A 
ATOM      4  C   UNL d   1      29.632 -15.316  -3.806  0.00  0.00     0.030 A 
ATOM      5  C   UNL d   1      28.411 -15.545  -4.439  0.00  0.00     0.031 A 
ATOM      6  C   UNL d   1      28.155 -15.048  -5.733  0.00  0.00     0.032 A 
ENDROOT
BRANCH   1   7
ATOM      7  N   UNL d   1      28.761 -13.619  -7.672  0.00  0.00    -0.333 N 
ATOM      8  H   UNL d   1      29.233 -13.994  -8.486  0.00  0.00     0.168 HD
BRANCH   7   9
ATOM      9  C   UNL d   1      28.138 -12.354  -7.758  0.00  0.00     0.179 C 
ATOM     10  S   UNL d   1      27.688 -11.643  -9.237  0.00  0.00    -0.040 SA
BRANCH   9  11
ATOM     11  N   UNL d   1      27.893 -11.733  -6.507  0.00  0.00    -0.299 N 
ATOM     12  C   UNL d   1      26.639 -11.111  -6.279  0.00  0.00     0.263 C 
ATOM     13  O   UNL d   1      25.893 -10.994  -7.214  0.00  0.00    -0.267 OA
ATOM     14  H   UNL d   1      28.660 -11.477  -5.903  0.00  0.00     0.171 HD
BRANCH  12  15
ATOM     15  C   UNL d   1      26.273 -10.281  -5.073  0.00  0.00     0.099 A 
ATOM     16  C   UNL d   1      25.302  -9.223  -5.123  0.00  0.00     0.086 A 
ATOM     17  C   UNL d   1      25.081  -8.405  -3.989  0.00  0.00     0.038 A 
ATOM     18  C   UNL d   1      25.764  -8.621  -2.803  0.00  0.00     0.005 A 
ATOM     19  C   UNL d   1      26.768  -9.588  -2.772  0.00  0.00     0.038 A 
ATOM     20  C   UNL d   1      27.051 -10.385  -3.905  0.00  0.00     0.086 A 
BRANCH  16  21
ATOM     21  O   UNL d   1      24.441  -8.808  -6.119  0.00  0.00    -0.355 OA
ATOM     22  C   UNL d   1      23.282  -8.081  -5.770  0.00  0.00     0.210 C 
ENDBRANCH  16  21
BRANCH  20  23
ATOM     23  O   UNL d   1      28.070 -11.294  -3.750  0.00  0.00    -0.355 OA
ATOM     24  C   UNL d   1      27.804 -12.360  -2.828  0.00  0.00     0.210 C 
ENDBRANCH  20  23
ENDBRANCH  12  15
ENDBRANCH   9  11
ENDBRANCH   7   9
ENDBRANCH   1   7
BRANCH   4  25
ATOM     25  N   UNL d   1      29.946 -15.791  -2.545  0.00  0.00    -0.378 N 
ATOM     26  C   UNL d   1      29.753 -17.177  -2.117  0.00  0.00     0.150 C 
ATOM     27  C   UNL d   1      28.536 -17.344  -1.169  0.00  0.00     0.255 C 
ATOM     28  N   UNL d   1      28.614 -16.374   0.034  0.00  0.00    -0.064 N 
ATOM     29  C   UNL d   1      28.946 -14.968  -0.470  0.00  0.00     0.255 C 
ATOM     30  H   UNL d   1      29.383 -16.679   0.642  0.00  0.00     0.280 HD
ATOM     31  C   UNL d   1      30.127 -14.855  -1.442  0.00  0.00     0.150 C 
BRANCH  28  32
ATOM     32  C   UNL d   1      27.329 -16.406   0.900  0.00  0.00     0.275 C 
BRANCH  32  33
ATOM     33  C   UNL d   1      26.048 -16.902   0.240  0.00  0.00    -0.011 C 
ATOM     34  C   UNL d   1      25.551 -18.194   0.529  0.00  0.00     0.010 C 
ATOM     35  C   UNL d   1      24.428 -18.700  -0.148  0.00  0.00     0.001 C 
ATOM     36  C   UNL d   1      23.677 -17.878  -0.979  0.00  0.00     0.002 C 
ATOM     37  C   UNL d   1      24.126 -16.600  -1.252  0.00  0.00     0.024 C 
ATOM     38  C   UNL d   1      25.362 -16.186  -0.765  0.00  0.00     0.042 C 
ATOM     39 CL   UNL d   1      26.040 -14.881  -1.677  0.00  0.00    -0.084 Cl
ENDBRANCH  32  33
ENDBRANCH  28  32
ENDBRANCH   4  25
TORSDOF 9
ENDMDL
MODEL 5
REMARK VINA RESULT:    -8.186      5.481     10.443
REMARK INTER + INTRA:         -13.417
REMARK INTER:                 -10.870
REMARK INTRA:                  -2.546
REMARK CONF_INDEPENDENT:        2.685
REMARK UNBOUND:                -2.546
REMARK  9 active torsions:
REMARK  status: ('A' for Active; 'I' for Inactive)
REMARK    1  A    between atoms: O_2  and  C_3 
REMARK    2  A    between atoms: C_7  and  O_8 
REMARK    3  A    between atoms: C_10  and  C_11 
REMARK       I    between atoms: C_11  and  N_13 
REMARK    4  A    between atoms: N_13  and  C_14 
REMARK    5  A    between atoms: C_14  and  N_16 
REMARK    6  A    between atoms: N_16  and  C_17 
REMARK    7  A    between atoms: C_20  and  N_21 
REMARK    8  A    between atoms: N_24  and  C_25 
REMARK    9  A    between atoms: C_25  and  C_26 
ROOT
ATOM      1  C   UNL d   1      30.648 -13.888  -2.999  0.00  0.00     0.034 A 
ATOM      2  C   UNL d   1      31.687 -14.704  -2.566  0.00  0.00     0.032 A 
ATOM      3  C   UNL d   1      32.111 -14.653  -1.217  0.00  0.00     0.031 A 
ATOM      4  C   UNL d   1      31.540 -13.784  -0.266  0.00  0.00     0.030 A 
ATOM      5  C   UNL d   1      30.483 -12.993  -0.714  0.00  0.00     0.031 A 
ATOM      6  C   UNL d   1      30.028 -13.070  -2.045  0.00  0.00     0.032 A 
ENDROOT
BRANCH   1   7
ATOM      7  N   UNL d   1      30.282 -13.853  -4.388  0.00  0.00    -0.333 N 
ATOM      8  H   UNL d   1      30.659 -13.079  -4.923  0.00  0.00     0.168 HD
BRANCH   7   9
ATOM      9  C   UNL d   1      29.204 -14.595  -4.919  0.00  0.00     0.179 C 
ATOM     10  S   UNL d   1      29.274 -15.381  -6.427  0.00  0.00    -0.040 SA
BRANCH   9  11
ATOM     11  N   UNL d   1      28.063 -14.655  -4.080  0.00  0.00    -0.299 N 
ATOM     12  C   UNL d   1      27.996 -15.653  -3.074  0.00  0.00     0.263 C 
ATOM     13  O   UNL d   1      28.838 -16.511  -3.080  0.00  0.00    -0.267 OA
ATOM     14  H   UNL d   1      27.201 -14.209  -4.355  0.00  0.00     0.171 HD
BRANCH  12  15
ATOM     15  C   UNL d   1      26.800 -15.950  -2.204  0.00  0.00     0.099 A 
ATOM     16  C   UNL d   1      26.894 -16.701  -0.982  0.00  0.00     0.086 A 
ATOM     17  C   UNL d   1      25.723 -17.044  -0.266  0.00  0.00     0.038 A 
ATOM     18  C   UNL d   1      24.470 -16.642  -0.700  0.00  0.00     0.005 A 
ATOM     19  C   UNL d   1      24.363 -15.988  -1.927  0.00  0.00     0.038 A 
ATOM     20  C   UNL d   1      25.509 -15.679  -2.694  0.00  0.00     0.086 A 
BRANCH  16  21
ATOM     21  O   UNL d   1      27.979 -17.183  -0.278  0.00  0.00    -0.355 OA
ATOM     22  C   UNL d   1      29.025 -16.300   0.068  0.00  0.00     0.210 C 
ENDBRANCH  16  21
BRANCH  20  23
ATOM     23  O   UNL d   1      25.269 -15.044  -3.889  0.00  0.00    -0.355 OA
ATOM     24  C   UNL d   1      24.778 -13.701  -3.779  0.00  0.00     0.210 C 
ENDBRANCH  20  23
ENDBRANCH  12  15
ENDBRANCH   9  11
ENDBRANCH   7   9
ENDBRANCH   1   7
BRANCH   4  25
ATOM     25  N   UNL d   1      32.020 -13.764   1.032  0.00  0.00    -0.378 N 
ATOM     26  C   UNL d   1      32.631 -14.913   1.701  0.00  0.00     0.150 C 
ATOM     27  C   UNL d   1      31.688 -15.565   2.746  0.00  0.00     0.255 C 
ATOM     28  N   UNL d   1      31.156 -14.523   3.760  0.00  0.00    -0.064 N 
ATOM     29  C   UNL d   1      30.651 -13.293   3.003  0.00  0.00     0.255 C 
ATOM     30  H   UNL d   1      31.939 -14.227   4.355  0.00  0.00     0.280 HD
ATOM     31  C   UNL d   1      31.596 -12.710   1.945  0.00  0.00     0.150 C 
BRANCH  28  32
ATOM     32  C   UNL d   1      30.084 -15.120   4.708  0.00  0.00     0.275 C 
BRANCH  32  33
ATOM     33  C   UNL d   1      29.404 -14.170   5.686  0.00  0.00    -0.011 C 
ATOM     34  C   UNL d   1      29.827 -14.112   7.034  0.00  0.00     0.010 C 
ATOM     35  C   UNL d   1      29.143 -13.315   7.969  0.00  0.00     0.001 C 
ATOM     36  C   UNL d   1      28.155 -12.432   7.552  0.00  0.00     0.002 C 
ATOM     37  C   UNL d   1      27.746 -12.449   6.232  0.00  0.00     0.024 C 
ATOM     38  C   UNL d   1      28.263 -13.404   5.363  0.00  0.00     0.042 C 
ATOM     39 CL   UNL d   1      27.235 -13.700   4.001  0.00  0.00    -0.084 Cl
ENDBRANCH  32  33
ENDBRANCH  28  32
ENDBRANCH   4  25
TORSDOF 9
ENDMDL
MODEL 6
REMARK VINA RESULT:    -8.134      6.875     10.177
REMARK INTER + INTRA:         -13.886
REMARK INTER:                 -10.819
REMARK INTRA:                  -3.067
REMARK CONF_INDEPENDENT:        2.685
REMARK UNBOUND:                -3.067
REMARK  9 active torsions:
REMARK  status: ('A' for Active; 'I' for Inactive)
REMARK    1  A    between atoms: O_2  and  C_3 
REMARK    2  A    between atoms: C_7  and  O_8 
REMARK    3  A    between atoms: C_10  and  C_11 
REMARK       I    between atoms: C_11  and  N_13 
REMARK    4  A    between atoms: N_13  and  C_14 
REMARK    5  A    between atoms: C_14  and  N_16 
REMARK    6  A    between atoms: N_16  and  C_17 
REMARK    7  A    between atoms: C_20  and  N_21 
REMARK    8  A    between atoms: N_24  and  C_25 
REMARK    9  A    between atoms: C_25  and  C_26 
ROOT
ATOM      1  C   UNL d   1      27.584  -9.644  -1.926  0.00  0.00     0.034 A 
ATOM      2  C   UNL d   1      27.062  -9.717  -0.639  0.00  0.00     0.032 A 
ATOM      3  C   UNL d   1      27.469 -10.756   0.230  0.00  0.00     0.031 A 
ATOM      4  C   UNL d   1      28.380 -11.762  -0.149  0.00  0.00     0.030 A 
ATOM      5  C   UNL d   1      28.911 -11.656  -1.434  0.00  0.00     0.031 A 
ATOM      6  C   UNL d   1      28.542 -10.599  -2.291  0.00  0.00     0.032 A 
ENDROOT
BRANCH   1   7
ATOM      7  N   UNL d   1      27.097  -8.659  -2.852  0.00  0.00    -0.333 N 
ATOM      8  H   UNL d   1      27.062  -7.708  -2.504  0.00  0.00     0.168 HD
BRANCH   7   9
ATOM      9  C   UNL d   1      26.377  -8.990  -4.021  0.00  0.00     0.179 C 
ATOM     10  S   UNL d   1      25.031  -8.102  -4.563  0.00  0.00    -0.040 SA
BRANCH   9  11
ATOM     11  N   UNL d   1      26.884 -10.113  -4.723  0.00  0.00    -0.299 N 
ATOM     12  C   UNL d   1      26.344 -11.398  -4.453  0.00  0.00     0.263 C 
ATOM     13  O   UNL d   1      25.592 -11.504  -3.522  0.00  0.00    -0.267 OA
ATOM     14  H   UNL d   1      27.782 -10.070  -5.181  0.00  0.00     0.171 HD
BRANCH  12  15
ATOM     15  C   UNL d   1      26.866 -12.705  -4.995  0.00  0.00     0.099 A 
ATOM     16  C   UNL d   1      26.093 -13.916  -4.983  0.00  0.00     0.086 A 
ATOM     17  C   UNL d   1      26.675 -15.137  -5.401  0.00  0.00     0.038 A 
ATOM     18  C   UNL d   1      27.982 -15.190  -5.860  0.00  0.00     0.005 A 
ATOM     19  C   UNL d   1      28.764 -14.038  -5.795  0.00  0.00     0.038 A 
ATOM     20  C   UNL d   1      28.229 -12.816  -5.330  0.00  0.00     0.086 A 
BRANCH  16  21
ATOM     21  O   UNL d   1      24.779 -14.167  -4.645  0.00  0.00    -0.355 OA
ATOM     22  C   UNL d   1      24.384 -14.075  -3.293  0.00  0.00     0.210 C 
ENDBRANCH  16  21
BRANCH  20  23
ATOM     23  O   UNL d   1      29.105 -11.757  -5.304  0.00  0.00    -0.355 OA
ATOM     24  C   UNL d   1      29.637 -11.371  -6.578  0.00  0.00     0.210 C 
ENDBRANCH  20  23
ENDBRANCH  12  15
ENDBRANCH   9  11
ENDBRANCH   7   9
ENDBRANCH   1   7
BRANCH   4  25
ATOM     25  N   UNL d   1      28.715 -12.767   0.741  0.00  0.00    -0.378 N 
ATOM     26  C   UNL d   1      29.922 -13.587   0.639  0.00  0.00     0.150 C 
ATOM     27  C   UNL d   1      29.625 -15.023   0.132  0.00  0.00     0.255 C 
ATOM     28  N   UNL d   1      28.530 -15.711   0.982  0.00  0.00    -0.064 N 
ATOM     29  C   UNL d   1      27.351 -14.753   1.160  0.00  0.00     0.255 C 
ATOM     30  H   UNL d   1      28.921 -15.905   1.911  0.00  0.00     0.280 HD
ATOM     31  C   UNL d   1      27.695 -13.329   1.617  0.00  0.00     0.150 C 
BRANCH  28  32
ATOM     32  C   UNL d   1      28.100 -17.079   0.392  0.00  0.00     0.275 C 
BRANCH  32  33
ATOM     33  C   UNL d   1      26.653 -17.226  -0.061  0.00  0.00    -0.011 C 
ATOM     34  C   UNL d   1      25.817 -18.200   0.531  0.00  0.00     0.010 C 
ATOM     35  C   UNL d   1      24.512 -18.414   0.053  0.00  0.00     0.001 C 
ATOM     36  C   UNL d   1      23.955 -17.552  -0.885  0.00  0.00     0.002 C 
ATOM     37  C   UNL d   1      24.745 -16.572  -1.455  0.00  0.00     0.024 C 
ATOM     38  C   UNL d   1      26.101 -16.516  -1.150  0.00  0.00     0.042 C 
ATOM     39 CL   UNL d   1      27.030 -15.703  -2.364  0.00  0.00    -0.084 Cl
ENDBRANCH  32  33
ENDBRANCH  28  32
ENDBRANCH   4  25
TORSDOF 9
ENDMDL
MODEL 7
REMARK VINA RESULT:    -8.096      5.667     10.730
REMARK INTER + INTRA:         -13.369
REMARK INTER:                 -10.780
REMARK INTRA:                  -2.588
REMARK CONF_INDEPENDENT:        2.685
REMARK UNBOUND:                -2.588
REMARK  9 active torsions:
REMARK  status: ('A' for Active; 'I' for Inactive)
REMARK    1  A    between atoms: O_2  and  C_3 
REMARK    2  A    between atoms: C_7  and  O_8 
REMARK    3  A    between atoms: C_10  and  C_11 
REMARK       I    between atoms: C_11  and  N_13 
REMARK    4  A    between atoms: N_13  and  C_14 
REMARK    5  A    between atoms: C_14  and  N_16 
REMARK    6  A    between atoms: N_16  and  C_17 
REMARK    7  A    between atoms: C_20  and  N_21 
REMARK    8  A    between atoms: N_24  and  C_25 
REMARK    9  A    between atoms: C_25  and  C_26 
ROOT
ATOM      1  C   UNL d   1      31.234 -14.641  -3.073  0.00  0.00     0.034 A 
ATOM      2  C   UNL d   1      32.280 -15.326  -2.464  0.00  0.00     0.032 A 
ATOM      3  C   UNL d   1      32.580 -15.092  -1.102  0.00  0.00     0.031 A 
ATOM      4  C   UNL d   1      31.875 -14.164  -0.309  0.00  0.00     0.030 A 
ATOM      5  C   UNL d   1      30.814 -13.507  -0.931  0.00  0.00     0.031 A 
ATOM      6  C   UNL d   1      30.483 -13.767  -2.276  0.00  0.00     0.032 A 
ENDROOT
BRANCH   1   7
ATOM      7  N   UNL d   1      30.990 -14.790  -4.482  0.00  0.00    -0.333 N 
ATOM      8  H   UNL d   1      31.252 -13.999  -5.059  0.00  0.00     0.168 HD
BRANCH   7   9
ATOM      9  C   UNL d   1      30.130 -15.776  -5.013  0.00  0.00     0.179 C 
ATOM     10  S   UNL d   1      30.246 -16.341  -6.614  0.00  0.00    -0.040 SA
BRANCH   9  11
ATOM     11  N   UNL d   1      29.174 -16.278  -4.095  0.00  0.00    -0.299 N 
ATOM     12  C   UNL d   1      27.954 -15.575  -3.914  0.00  0.00     0.263 C 
ATOM     13  O   UNL d   1      27.850 -14.494  -4.428  0.00  0.00    -0.267 OA
ATOM     14  H   UNL d   1      29.445 -16.935  -3.379  0.00  0.00     0.171 HD
BRANCH  12  15
ATOM     15  C   UNL d   1      26.904 -15.884  -2.877  0.00  0.00     0.099 A 
ATOM     16  C   UNL d   1      25.553 -15.402  -2.970  0.00  0.00     0.086 A 
ATOM     17  C   UNL d   1      24.641 -15.629  -1.911  0.00  0.00     0.038 A 
ATOM     18  C   UNL d   1      25.012 -16.344  -0.784  0.00  0.00     0.005 A 
ATOM     19  C   UNL d   1      26.341 -16.741  -0.648  0.00  0.00     0.038 A 
ATOM     20  C   UNL d   1      27.290 -16.481  -1.662  0.00  0.00     0.086 A 
BRANCH  16  21
ATOM     21  O   UNL d   1      24.883 -14.724  -3.968  0.00  0.00    -0.355 OA
ATOM     22  C   UNL d   1      25.079 -13.334  -4.111  0.00  0.00     0.210 C 
ENDBRANCH  16  21
BRANCH  20  23
ATOM     23  O   UNL d   1      28.569 -16.913  -1.403  0.00  0.00    -0.355 OA
ATOM     24  C   UNL d   1      29.142 -16.431  -0.180  0.00  0.00     0.210 C 
ENDBRANCH  20  23
ENDBRANCH  12  15
ENDBRANCH   9  11
ENDBRANCH   7   9
ENDBRANCH   1   7
BRANCH   4  25
ATOM     25  N   UNL d   1      32.237 -13.963   1.011  0.00  0.00    -0.378 N 
ATOM     26  C   UNL d   1      32.881 -14.973   1.851  0.00  0.00     0.150 C 
ATOM     27  C   UNL d   1      31.907 -15.595   2.887  0.00  0.00     0.255 C 
ATOM     28  N   UNL d   1      31.206 -14.505   3.732  0.00  0.00    -0.064 N 
ATOM     29  C   UNL d   1      30.668 -13.413   2.805  0.00  0.00     0.255 C 
ATOM     30  H   UNL d   1      31.906 -14.076   4.349  0.00  0.00     0.280 HD
ATOM     31  C   UNL d   1      31.650 -12.861   1.763  0.00  0.00     0.150 C 
BRANCH  28  32
ATOM     32  C   UNL d   1      30.108 -15.093   4.656  0.00  0.00     0.275 C 
BRANCH  32  33
ATOM     33  C   UNL d   1      29.431 -14.144   5.637  0.00  0.00    -0.011 C 
ATOM     34  C   UNL d   1      29.868 -14.075   6.980  0.00  0.00     0.010 C 
ATOM     35  C   UNL d   1      29.188 -13.279   7.917  0.00  0.00     0.001 C 
ATOM     36  C   UNL d   1      28.188 -12.406   7.507  0.00  0.00     0.002 C 
ATOM     37  C   UNL d   1      27.764 -12.433   6.191  0.00  0.00     0.024 C 
ATOM     38  C   UNL d   1      28.280 -13.389   5.322  0.00  0.00     0.042 C 
ATOM     39 CL   UNL d   1      27.240 -13.701   3.973  0.00  0.00    -0.084 Cl
ENDBRANCH  32  33
ENDBRANCH  28  32
ENDBRANCH   4  25
TORSDOF 9
ENDMDL
MODEL 8
REMARK VINA RESULT:    -8.092      8.359     11.377
REMARK INTER + INTRA:         -13.555
REMARK INTER:                 -10.777
REMARK INTRA:                  -2.778
REMARK CONF_INDEPENDENT:        2.685
REMARK UNBOUND:                -2.778
REMARK  9 active torsions:
REMARK  status: ('A' for Active; 'I' for Inactive)
REMARK    1  A    between atoms: O_2  and  C_3 
REMARK    2  A    between atoms: C_7  and  O_8 
REMARK    3  A    between atoms: C_10  and  C_11 
REMARK       I    between atoms: C_11  and  N_13 
REMARK    4  A    between atoms: N_13  and  C_14 
REMARK    5  A    between atoms: C_14  and  N_16 
REMARK    6  A    between atoms: N_16  and  C_17 
REMARK    7  A    between atoms: C_20  and  N_21 
REMARK    8  A    between atoms: N_24  and  C_25 
REMARK    9  A    between atoms: C_25  and  C_26 
ROOT
ATOM      1  C   UNL d   1      31.557 -16.169  -5.877  0.00  0.00     0.034 A 
ATOM      2  C   UNL d   1      32.489 -15.706  -4.954  0.00  0.00     0.032 A 
ATOM      3  C   UNL d   1      32.322 -15.989  -3.578  0.00  0.00     0.031 A 
ATOM      4  C   UNL d   1      31.225 -16.714  -3.072  0.00  0.00     0.030 A 
ATOM      5  C   UNL d   1      30.316 -17.191  -4.016  0.00  0.00     0.031 A 
ATOM      6  C   UNL d   1      30.499 -16.949  -5.392  0.00  0.00     0.032 A 
ENDROOT
BRANCH   1   7
ATOM      7  N   UNL d   1      31.659 -15.795  -7.261  0.00  0.00    -0.333 N 
ATOM      8  H   UNL d   1      32.084 -16.483  -7.872  0.00  0.00     0.168 HD
BRANCH   7   9
ATOM      9  C   UNL d   1      31.531 -14.462  -7.710  0.00  0.00     0.179 C 
ATOM     10  S   UNL d   1      32.321 -13.872  -9.096  0.00  0.00    -0.040 SA
BRANCH   9  11
ATOM     11  N   UNL d   1      30.668 -13.658  -6.923  0.00  0.00    -0.299 N 
ATOM     12  C   UNL d   1      29.355 -14.120  -6.646  0.00  0.00     0.263 C 
ATOM     13  O   UNL d   1      28.973 -15.101  -7.226  0.00  0.00    -0.267 OA
ATOM     14  H   UNL d   1      30.853 -12.674  -6.801  0.00  0.00     0.171 HD
BRANCH  12  15
ATOM     15  C   UNL d   1      28.269 -13.330  -5.960  0.00  0.00     0.099 A 
ATOM     16  C   UNL d   1      27.056 -13.932  -5.478  0.00  0.00     0.086 A 
ATOM     17  C   UNL d   1      26.024 -13.124  -4.944  0.00  0.00     0.038 A 
ATOM     18  C   UNL d   1      26.167 -11.750  -4.841  0.00  0.00     0.005 A 
ATOM     19  C   UNL d   1      27.303 -11.150  -5.383  0.00  0.00     0.038 A 
ATOM     20  C   UNL d   1      28.327 -11.924  -5.974  0.00  0.00     0.086 A 
BRANCH  16  21
ATOM     21  O   UNL d   1      26.651 -15.248  -5.392  0.00  0.00    -0.355 OA
ATOM     22  C   UNL d   1      25.530 -15.575  -4.599  0.00  0.00     0.210 C 
ENDBRANCH  16  21
BRANCH  20  23
ATOM     23  O   UNL d   1      29.389 -11.214  -6.482  0.00  0.00    -0.355 OA
ATOM     24  C   UNL d   1      29.049  -9.969  -7.107  0.00  0.00     0.210 C 
ENDBRANCH  20  23
ENDBRANCH  12  15
ENDBRANCH   9  11
ENDBRANCH   7   9
ENDBRANCH   1   7
BRANCH   4  25
ATOM     25  N   UNL d   1      31.107 -16.934  -1.711  0.00  0.00    -0.378 N 
ATOM     26  C   UNL d   1      30.404 -18.073  -1.119  0.00  0.00     0.150 C 
ATOM     27  C   UNL d   1      29.028 -17.678  -0.520  0.00  0.00     0.255 C 
ATOM     28  N   UNL d   1      29.159 -16.500   0.475  0.00  0.00    -0.064 N 
ATOM     29  C   UNL d   1      30.012 -15.398  -0.154  0.00  0.00     0.255 C 
ATOM     30  H   UNL d   1      29.649 -16.840   1.311  0.00  0.00     0.280 HD
ATOM     31  C   UNL d   1      31.342 -15.840  -0.777  0.00  0.00     0.150 C 
BRANCH  28  32
ATOM     32  C   UNL d   1      27.779 -15.982   0.956  0.00  0.00     0.275 C 
BRANCH  32  33
ATOM     33  C   UNL d   1      26.540 -16.528   0.259  0.00  0.00    -0.011 C 
ATOM     34  C   UNL d   1      26.062 -17.824   0.564  0.00  0.00     0.010 C 
ATOM     35  C   UNL d   1      24.982 -18.377  -0.145  0.00  0.00     0.001 C 
ATOM     36  C   UNL d   1      24.246 -17.598  -1.030  0.00  0.00     0.002 C 
ATOM     37  C   UNL d   1      24.676 -16.317  -1.320  0.00  0.00     0.024 C 
ATOM     38  C   UNL d   1      25.880 -15.858  -0.795  0.00  0.00     0.042 C 
ATOM     39 CL   UNL d   1      26.564 -14.561  -1.715  0.00  0.00    -0.084 Cl
ENDBRANCH  32  33
ENDBRANCH  28  32
ENDBRANCH   4  25
TORSDOF 9
ENDMDL
MODEL 9
REMARK VINA RESULT:    -8.001      8.177     11.053
REMARK INTER + INTRA:         -14.142
REMARK INTER:                 -10.685
REMARK INTRA:                  -3.457
REMARK CONF_INDEPENDENT:        2.685
REMARK UNBOUND:                -3.457
REMARK  9 active torsions:
REMARK  status: ('A' for Active; 'I' for Inactive)
REMARK    1  A    between atoms: O_2  and  C_3 
REMARK    2  A    between atoms: C_7  and  O_8 
REMARK    3  A    between atoms: C_10  and  C_11 
REMARK       I    between atoms: C_11  and  N_13 
REMARK    4  A    between atoms: N_13  and  C_14 
REMARK    5  A    between atoms: C_14  and  N_16 
REMARK    6  A    between atoms: N_16  and  C_17 
REMARK    7  A    between atoms: C_20  and  N_21 
REMARK    8  A    between atoms: N_24  and  C_25 
REMARK    9  A    between atoms: C_25  and  C_26 
ROOT
ATOM      1  C   UNL d   1      31.508 -13.677  -5.268  0.00  0.00     0.034 A 
ATOM      2  C   UNL d   1      30.893 -13.207  -4.112  0.00  0.00     0.032 A 
ATOM      3  C   UNL d   1      30.799 -14.041  -2.973  0.00  0.00     0.031 A 
ATOM      4  C   UNL d   1      31.287 -15.363  -2.947  0.00  0.00     0.030 A 
ATOM      5  C   UNL d   1      31.923 -15.805  -4.107  0.00  0.00     0.031 A 
ATOM      6  C   UNL d   1      32.057 -14.965  -5.230  0.00  0.00     0.032 A 
ENDROOT
BRANCH   1   7
ATOM      7  N   UNL d   1      31.513 -12.879  -6.463  0.00  0.00    -0.333 N 
ATOM      8  H   UNL d   1      32.106 -12.058  -6.442  0.00  0.00     0.168 HD
BRANCH   7   9
ATOM      9  C   UNL d   1      30.520 -12.985  -7.462  0.00  0.00     0.179 C 
ATOM     10  S   UNL d   1      30.787 -12.546  -9.085  0.00  0.00    -0.040 SA
BRANCH   9  11
ATOM     11  N   UNL d   1      29.284 -13.513  -7.008  0.00  0.00    -0.299 N 
ATOM     12  C   UNL d   1      28.428 -12.693  -6.228  0.00  0.00     0.263 C 
ATOM     13  O   UNL d   1      28.859 -11.637  -5.847  0.00  0.00    -0.267 OA
ATOM     14  H   UNL d   1      29.132 -14.509  -6.979  0.00  0.00     0.171 HD
BRANCH  12  15
ATOM     15  C   UNL d   1      27.161 -13.141  -5.545  0.00  0.00     0.099 A 
ATOM     16  C   UNL d   1      26.270 -12.229  -4.882  0.00  0.00     0.086 A 
ATOM     17  C   UNL d   1      25.155 -12.719  -4.161  0.00  0.00     0.038 A 
ATOM     18  C   UNL d   1      24.876 -14.075  -4.104  0.00  0.00     0.005 A 
ATOM     19  C   UNL d   1      25.780 -14.971  -4.671  0.00  0.00     0.038 A 
ATOM     20  C   UNL d   1      26.933 -14.516  -5.350  0.00  0.00     0.086 A 
BRANCH  16  21
ATOM     21  O   UNL d   1      26.249 -10.850  -4.809  0.00  0.00    -0.355 OA
ATOM     22  C   UNL d   1      25.546 -10.118  -5.789  0.00  0.00     0.210 C 
ENDBRANCH  16  21
BRANCH  20  23
ATOM     23  O   UNL d   1      27.751 -15.499  -5.854  0.00  0.00    -0.355 OA
ATOM     24  C   UNL d   1      28.784 -15.950  -4.967  0.00  0.00     0.210 C 
ENDBRANCH  20  23
ENDBRANCH  12  15
ENDBRANCH   9  11
ENDBRANCH   7   9
ENDBRANCH   1   7
BRANCH   4  25
ATOM     25  N   UNL d   1      31.139 -16.135  -1.809  0.00  0.00    -0.378 N 
ATOM     26  C   UNL d   1      30.405 -17.400  -1.762  0.00  0.00     0.150 C 
ATOM     27  C   UNL d   1      29.025 -17.262  -1.065  0.00  0.00     0.255 C 
ATOM     28  N   UNL d   1      29.159 -16.620   0.337  0.00  0.00    -0.064 N 
ATOM     29  C   UNL d   1      30.044 -15.377   0.242  0.00  0.00     0.255 C 
ATOM     30  H   UNL d   1      29.627 -17.293   0.955  0.00  0.00     0.280 HD
ATOM     31  C   UNL d   1      31.377 -15.545  -0.497  0.00  0.00     0.150 C 
BRANCH  28  32
ATOM     32  C   UNL d   1      27.780 -16.321   0.980  0.00  0.00     0.275 C 
BRANCH  32  33
ATOM     33  C   UNL d   1      26.537 -16.629   0.154  0.00  0.00    -0.011 C 
ATOM     34  C   UNL d   1      25.868 -17.865   0.306  0.00  0.00     0.010 C 
ATOM     35  C   UNL d   1      24.782 -18.201  -0.521  0.00  0.00     0.001 C 
ATOM     36  C   UNL d   1      24.229 -17.255  -1.377  0.00  0.00     0.002 C 
ATOM     37  C   UNL d   1      24.847 -16.028  -1.519  0.00  0.00     0.024 C 
ATOM     38  C   UNL d   1      26.057 -15.788  -0.874  0.00  0.00     0.042 C 
ATOM     39 CL   UNL d   1      26.979 -14.529  -1.624  0.00  0.00    -0.084 Cl
ENDBRANCH  32  33
ENDBRANCH  28  32
ENDBRANCH   4  25
TORSDOF 9
ENDMDL
