MODEL 1
REMARK VINA RESULT:    -7.179      0.000      0.000
REMARK INTER + INTRA:          -8.029
REMARK INTER:                  -7.775
REMARK INTRA:                  -0.254
REMARK CONF_INDEPENDENT:        0.597
REMARK UNBOUND:                -0.254
REMARK  2 active torsions:
REMARK  status: ('A' for Active; 'I' for Inactive)
REMARK    1  A    between atoms: C_5  and  C_6 
REMARK    2  A    between atoms: C_6  and  C_7 
ROOT
ATOM      1  C   UNL d   1      21.581 -19.086  -0.737  0.00  0.00     0.082 A 
ATOM      2  C   UNL d   1      21.729 -18.954   0.605  0.00  0.00     0.259 A 
ATOM      3  O   UNL d   1      22.662 -18.575   1.346  0.00  0.00    -0.267 OA
ATOM      4  N   UNL d   1      20.731 -19.385   1.419  0.00  0.00    -0.299 N 
ATOM      5  C   UNL d   1      19.520 -19.835   1.011  0.00  0.00     0.181 A 
ATOM      6  S   UNL d   1      18.323 -20.272   2.083  0.00  0.00    -0.040 SA
ATOM      7  N   UNL d   1      19.327 -19.896  -0.336  0.00  0.00    -0.299 N 
ATOM      8  C   UNL d   1      20.280 -19.578  -1.268  0.00  0.00     0.259 A 
ATOM      9  O   UNL d   1      20.045 -19.700  -2.471  0.00  0.00    -0.267 OA
ATOM     10  H   UNL d   1      20.988 -19.352   2.398  0.00  0.00     0.171 HD
ATOM     11  H   UNL d   1      18.438 -20.211  -0.684  0.00  0.00     0.171 HD
ENDROOT
BRANCH   1  12
ATOM     12  C   UNL d   1      22.701 -18.876  -1.725  0.00  0.00     0.088 C 
BRANCH  12  13
ATOM     13  C   UNL d   1      23.852 -18.019  -1.210  0.00  0.00    -0.053 A 
ATOM     14  C   UNL d   1      24.009 -16.681  -1.602  0.00  0.00     0.008 A 
ATOM     15  C   UNL d   1      25.137 -15.950  -1.277  0.00  0.00     0.008 A 
ATOM     16  C   UNL d   1      26.117 -16.510  -0.465  0.00  0.00    -0.056 A 
ATOM     17  C   UNL d   1      27.315 -15.676  -0.134  0.00  0.00     0.049 C 
ATOM     18  C   UNL d   1      25.947 -17.824   0.018  0.00  0.00    -0.056 A 
ATOM     19  C   UNL d   1      24.824 -18.574  -0.372  0.00  0.00     0.014 A 
ATOM     20  C   UNL d   1      26.954 -18.439   0.944  0.00  0.00     0.049 C 
ENDBRANCH  12  13
ENDBRANCH   1  12
TORSDOF 2
ENDMDL
MODEL 2
REMARK VINA RESULT:    -6.729      2.769      3.994
REMARK INTER + INTRA:          -7.706
REMARK INTER:                  -7.326
REMARK INTRA:                  -0.380
REMARK CONF_INDEPENDENT:        0.597
REMARK UNBOUND:                -0.380
REMARK  2 active torsions:
REMARK  status: ('A' for Active; 'I' for Inactive)
REMARK    1  A    between atoms: C_5  and  C_6 
REMARK    2  A    between atoms: C_6  and  C_7 
ROOT
ATOM      1  C   UNL d   1      24.052 -17.065  -0.542  0.00  0.00     0.082 A 
ATOM      2  C   UNL d   1      22.807 -16.659  -0.896  0.00  0.00     0.259 A 
ATOM      3  O   UNL d   1      22.318 -15.571  -1.270  0.00  0.00    -0.267 OA
ATOM      4  N   UNL d   1      21.773 -17.531  -0.766  0.00  0.00    -0.299 N 
ATOM      5  C   UNL d   1      21.882 -18.837  -0.424  0.00  0.00     0.181 A 
ATOM      6  S   UNL d   1      20.566 -19.856  -0.364  0.00  0.00    -0.040 SA
ATOM      7  N   UNL d   1      23.140 -19.280  -0.145  0.00  0.00    -0.299 N 
ATOM      8  C   UNL d   1      24.257 -18.486  -0.150  0.00  0.00     0.259 A 
ATOM      9  O   UNL d   1      25.356 -18.950   0.157  0.00  0.00    -0.267 OA
ATOM     10  H   UNL d   1      20.876 -17.096  -0.942  0.00  0.00     0.171 HD
ATOM     11  H   UNL d   1      23.270 -20.246   0.100  0.00  0.00     0.171 HD
ENDROOT
BRANCH   1  12
ATOM     12  C   UNL d   1      25.228 -16.130  -0.408  0.00  0.00     0.088 C 
BRANCH  12  13
ATOM     13  C   UNL d   1      25.823 -15.662  -1.732  0.00  0.00    -0.053 A 
ATOM     14  C   UNL d   1      25.039 -15.036  -2.713  0.00  0.00     0.008 A 
ATOM     15  C   UNL d   1      25.530 -14.763  -3.977  0.00  0.00     0.008 A 
ATOM     16  C   UNL d   1      26.861 -15.027  -4.277  0.00  0.00    -0.056 A 
ATOM     17  C   UNL d   1      27.347 -14.706  -5.656  0.00  0.00     0.049 C 
ATOM     18  C   UNL d   1      27.699 -15.576  -3.284  0.00  0.00    -0.056 A 
ATOM     19  C   UNL d   1      27.169 -15.904  -2.023  0.00  0.00     0.014 A 
ATOM     20  C   UNL d   1      29.153 -15.819  -3.553  0.00  0.00     0.049 C 
ENDBRANCH  12  13
ENDBRANCH   1  12
TORSDOF 2
ENDMDL
MODEL 3
REMARK VINA RESULT:    -6.431      5.899      7.631
REMARK INTER + INTRA:          -7.358
REMARK INTER:                  -7.027
REMARK INTRA:                  -0.331
REMARK CONF_INDEPENDENT:        0.597
REMARK UNBOUND:                -0.331
REMARK  2 active torsions:
REMARK  status: ('A' for Active; 'I' for Inactive)
REMARK    1  A    between atoms: C_5  and  C_6 
REMARK    2  A    between atoms: C_6  and  C_7 
ROOT
ATOM      1  C   UNL d   1      26.648 -13.853  -2.973  0.00  0.00     0.082 A 
ATOM      2  C   UNL d   1      25.686 -13.625  -3.902  0.00  0.00     0.259 A 
ATOM      3  O   UNL d   1      24.997 -14.359  -4.643  0.00  0.00    -0.267 OA
ATOM      4  N   UNL d   1      25.394 -12.342  -4.239  0.00  0.00    -0.299 N 
ATOM      5  C   UNL d   1      25.894 -11.236  -3.637  0.00  0.00     0.181 A 
ATOM      6  S   UNL d   1      25.421  -9.696  -4.064  0.00  0.00    -0.040 SA
ATOM      7  N   UNL d   1      26.802 -11.452  -2.645  0.00  0.00    -0.299 N 
ATOM      8  C   UNL d   1      27.252 -12.690  -2.267  0.00  0.00     0.259 A 
ATOM      9  O   UNL d   1      28.109 -12.805  -1.390  0.00  0.00    -0.267 OA
ATOM     10  H   UNL d   1      24.753 -12.282  -5.020  0.00  0.00     0.171 HD
ATOM     11  H   UNL d   1      27.190 -10.661  -2.162  0.00  0.00     0.171 HD
ENDROOT
BRANCH   1  12
ATOM     12  C   UNL d   1      27.231 -15.216  -2.694  0.00  0.00     0.088 C 
BRANCH  12  13
ATOM     13  C   UNL d   1      26.283 -16.182  -1.990  0.00  0.00    -0.053 A 
ATOM     14  C   UNL d   1      24.939 -16.306  -2.372  0.00  0.00     0.008 A 
ATOM     15  C   UNL d   1      24.034 -17.048  -1.635  0.00  0.00     0.008 A 
ATOM     16  C   UNL d   1      24.467 -17.772  -0.529  0.00  0.00    -0.056 A 
ATOM     17  C   UNL d   1      23.452 -18.567   0.232  0.00  0.00     0.049 C 
ATOM     18  C   UNL d   1      25.830 -17.737  -0.170  0.00  0.00    -0.056 A 
ATOM     19  C   UNL d   1      26.725 -16.929  -0.894  0.00  0.00     0.014 A 
ATOM     20  C   UNL d   1      26.344 -18.551   0.980  0.00  0.00     0.049 C 
ENDBRANCH  12  13
ENDBRANCH   1  12
TORSDOF 2
ENDMDL
MODEL 4
REMARK VINA RESULT:    -6.257      6.329      7.827
REMARK INTER + INTRA:          -7.302
REMARK INTER:                  -6.853
REMARK INTRA:                  -0.448
REMARK CONF_INDEPENDENT:        0.597
REMARK UNBOUND:                -0.448
REMARK  2 active torsions:
REMARK  status: ('A' for Active; 'I' for Inactive)
REMARK    1  A    between atoms: C_5  and  C_6 
REMARK    2  A    between atoms: C_6  and  C_7 
ROOT
ATOM      1  C   UNL d   1      25.551 -13.973  -4.080  0.00  0.00     0.082 A 
ATOM      2  C   UNL d   1      26.110 -14.776  -5.020  0.00  0.00     0.259 A 
ATOM      3  O   UNL d   1      25.909 -15.951  -5.395  0.00  0.00    -0.267 OA
ATOM      4  N   UNL d   1      27.197 -14.327  -5.700  0.00  0.00    -0.299 N 
ATOM      5  C   UNL d   1      27.718 -13.079  -5.618  0.00  0.00     0.181 A 
ATOM      6  S   UNL d   1      29.009 -12.588  -6.549  0.00  0.00    -0.040 SA
ATOM      7  N   UNL d   1      27.114 -12.234  -4.736  0.00  0.00    -0.299 N 
ATOM      8  C   UNL d   1      26.068 -12.586  -3.924  0.00  0.00     0.259 A 
ATOM      9  O   UNL d   1      25.602 -11.779  -3.119  0.00  0.00    -0.267 OA
ATOM     10  H   UNL d   1      27.608 -15.041  -6.288  0.00  0.00     0.171 HD
ATOM     11  H   UNL d   1      27.459 -11.294  -4.652  0.00  0.00     0.171 HD
ENDROOT
BRANCH   1  12
ATOM     12  C   UNL d   1      24.508 -14.441  -3.096  0.00  0.00     0.088 C 
BRANCH  12  13
ATOM     13  C   UNL d   1      25.015 -15.432  -2.054  0.00  0.00    -0.053 A 
ATOM     14  C   UNL d   1      26.328 -15.377  -1.561  0.00  0.00     0.008 A 
ATOM     15  C   UNL d   1      26.846 -16.368  -0.748  0.00  0.00     0.008 A 
ATOM     16  C   UNL d   1      26.034 -17.413  -0.322  0.00  0.00    -0.056 A 
ATOM     17  C   UNL d   1      26.639 -18.457   0.564  0.00  0.00     0.049 C 
ATOM     18  C   UNL d   1      24.685 -17.450  -0.730  0.00  0.00    -0.056 A 
ATOM     19  C   UNL d   1      24.190 -16.468  -1.606  0.00  0.00     0.014 A 
ATOM     20  C   UNL d   1      23.764 -18.529  -0.244  0.00  0.00     0.049 C 
ENDBRANCH  12  13
ENDBRANCH   1  12
TORSDOF 2
ENDMDL
MODEL 5
REMARK VINA RESULT:    -6.240      5.982      7.860
REMARK INTER + INTRA:          -7.206
REMARK INTER:                  -6.837
REMARK INTRA:                  -0.369
REMARK CONF_INDEPENDENT:        0.597
REMARK UNBOUND:                -0.369
REMARK  2 active torsions:
REMARK  status: ('A' for Active; 'I' for Inactive)
REMARK    1  A    between atoms: C_5  and  C_6 
REMARK    2  A    between atoms: C_6  and  C_7 
ROOT
ATOM      1  C   UNL d   1      26.556 -13.662  -2.927  0.00  0.00     0.082 A 
ATOM      2  C   UNL d   1      25.568 -13.477  -3.837  0.00  0.00     0.259 A 
ATOM      3  O   UNL d   1      24.839 -14.245  -4.501  0.00  0.00    -0.267 OA
ATOM      4  N   UNL d   1      25.292 -12.215  -4.256  0.00  0.00    -0.299 N 
ATOM      5  C   UNL d   1      25.836 -11.081  -3.752  0.00  0.00     0.181 A 
ATOM      6  S   UNL d   1      25.381  -9.565  -4.271  0.00  0.00    -0.040 SA
ATOM      7  N   UNL d   1      26.773 -11.248  -2.777  0.00  0.00    -0.299 N 
ATOM      8  C   UNL d   1      27.209 -12.467  -2.327  0.00  0.00     0.259 A 
ATOM      9  O   UNL d   1      28.093 -12.539  -1.472  0.00  0.00    -0.267 OA
ATOM     10  H   UNL d   1      24.625 -12.196  -5.018  0.00  0.00     0.171 HD
ATOM     11  H   UNL d   1      27.193 -10.434  -2.364  0.00  0.00     0.171 HD
ENDROOT
BRANCH   1  12
ATOM     12  C   UNL d   1      27.120 -15.015  -2.570  0.00  0.00     0.088 C 
BRANCH  12  13
ATOM     13  C   UNL d   1      26.216 -15.867  -1.684  0.00  0.00    -0.053 A 
ATOM     14  C   UNL d   1      26.721 -16.934  -0.925  0.00  0.00     0.008 A 
ATOM     15  C   UNL d   1      25.890 -17.813  -0.255  0.00  0.00     0.008 A 
ATOM     16  C   UNL d   1      24.516 -17.601  -0.248  0.00  0.00    -0.056 A 
ATOM     17  C   UNL d   1      23.659 -18.576   0.498  0.00  0.00     0.049 C 
ATOM     18  C   UNL d   1      23.984 -16.487  -0.930  0.00  0.00    -0.056 A 
ATOM     19  C   UNL d   1      24.838 -15.638  -1.657  0.00  0.00     0.014 A 
ATOM     20  C   UNL d   1      22.514 -16.194  -0.895  0.00  0.00     0.049 C 
ENDBRANCH  12  13
ENDBRANCH   1  12
TORSDOF 2
ENDMDL
MODEL 6
REMARK VINA RESULT:    -6.165      6.443      7.832
REMARK INTER + INTRA:          -7.183
REMARK INTER:                  -6.761
REMARK INTRA:                  -0.422
REMARK CONF_INDEPENDENT:        0.597
REMARK UNBOUND:                -0.422
REMARK  2 active torsions:
REMARK  status: ('A' for Active; 'I' for Inactive)
REMARK    1  A    between atoms: C_5  and  C_6 
REMARK    2  A    between atoms: C_6  and  C_7 
ROOT
ATOM      1  C   UNL d   1      25.845 -13.881  -3.972  0.00  0.00     0.082 A 
ATOM      2  C   UNL d   1      26.260 -12.593  -3.889  0.00  0.00     0.259 A 
ATOM      3  O   UNL d   1      25.971 -11.629  -3.148  0.00  0.00    -0.267 OA
ATOM      4  N   UNL d   1      27.116 -12.120  -4.832  0.00  0.00    -0.299 N 
ATOM      5  C   UNL d   1      27.707 -12.858  -5.802  0.00  0.00     0.181 A 
ATOM      6  S   UNL d   1      28.807 -12.211  -6.872  0.00  0.00    -0.040 SA
ATOM      7  N   UNL d   1      27.361 -14.176  -5.847  0.00  0.00    -0.299 N 
ATOM      8  C   UNL d   1      26.443 -14.761  -5.014  0.00  0.00     0.259 A 
ATOM      9  O   UNL d   1      26.149 -15.950  -5.143  0.00  0.00    -0.267 OA
ATOM     10  H   UNL d   1      27.270 -11.122  -4.750  0.00  0.00     0.171 HD
ATOM     11  H   UNL d   1      27.785 -14.765  -6.541  0.00  0.00     0.171 HD
ENDROOT
BRANCH   1  12
ATOM     12  C   UNL d   1      24.721 -14.451  -3.144  0.00  0.00     0.088 C 
BRANCH  12  13
ATOM     13  C   UNL d   1      25.158 -15.451  -2.079  0.00  0.00    -0.053 A 
ATOM     14  C   UNL d   1      26.460 -15.450  -1.556  0.00  0.00     0.008 A 
ATOM     15  C   UNL d   1      26.914 -16.454  -0.720  0.00  0.00     0.008 A 
ATOM     16  C   UNL d   1      26.045 -17.456  -0.303  0.00  0.00    -0.056 A 
ATOM     17  C   UNL d   1      26.582 -18.516   0.609  0.00  0.00     0.049 C 
ATOM     18  C   UNL d   1      24.705 -17.436  -0.741  0.00  0.00    -0.056 A 
ATOM     19  C   UNL d   1      24.277 -16.443  -1.639  0.00  0.00     0.014 A 
ATOM     20  C   UNL d   1      23.725 -18.466  -0.265  0.00  0.00     0.049 C 
ENDBRANCH  12  13
ENDBRANCH   1  12
TORSDOF 2
ENDMDL
MODEL 7
REMARK VINA RESULT:    -5.885      5.996      7.466
REMARK INTER + INTRA:          -6.888
REMARK INTER:                  -6.482
REMARK INTRA:                  -0.406
REMARK CONF_INDEPENDENT:        0.597
REMARK UNBOUND:                -0.406
REMARK  2 active torsions:
REMARK  status: ('A' for Active; 'I' for Inactive)
REMARK    1  A    between atoms: C_5  and  C_6 
REMARK    2  A    between atoms: C_6  and  C_7 
ROOT
ATOM      1  C   UNL d   1      26.441 -14.070  -3.694  0.00  0.00     0.082 A 
ATOM      2  C   UNL d   1      27.560 -13.386  -3.346  0.00  0.00     0.259 A 
ATOM      3  O   UNL d   1      28.740 -13.714  -3.097  0.00  0.00    -0.267 OA
ATOM      4  N   UNL d   1      27.463 -12.053  -3.103  0.00  0.00    -0.299 N 
ATOM      5  C   UNL d   1      26.357 -11.296  -3.297  0.00  0.00     0.181 A 
ATOM      6  S   UNL d   1      26.348  -9.649  -3.047  0.00  0.00    -0.040 SA
ATOM      7  N   UNL d   1      25.245 -11.956  -3.726  0.00  0.00    -0.299 N 
ATOM      8  C   UNL d   1      25.181 -13.311  -3.923  0.00  0.00     0.259 A 
ATOM      9  O   UNL d   1      24.126 -13.844  -4.270  0.00  0.00    -0.267 OA
ATOM     10  H   UNL d   1      28.322 -11.663  -2.737  0.00  0.00     0.171 HD
ATOM     11  H   UNL d   1      24.405 -11.432  -3.895  0.00  0.00     0.171 HD
ENDROOT
BRANCH   1  12
ATOM     12  C   UNL d   1      26.366 -15.575  -3.749  0.00  0.00     0.088 C 
BRANCH  12  13
ATOM     13  C   UNL d   1      26.402 -16.265  -2.389  0.00  0.00    -0.053 A 
ATOM     14  C   UNL d   1      27.593 -16.392  -1.658  0.00  0.00     0.008 A 
ATOM     15  C   UNL d   1      27.668 -17.160  -0.510  0.00  0.00     0.008 A 
ATOM     16  C   UNL d   1      26.523 -17.761  -0.000  0.00  0.00    -0.056 A 
ATOM     17  C   UNL d   1      26.654 -18.575   1.249  0.00  0.00     0.049 C 
ATOM     18  C   UNL d   1      25.292 -17.580  -0.665  0.00  0.00    -0.056 A 
ATOM     19  C   UNL d   1      25.245 -16.846  -1.864  0.00  0.00     0.014 A 
ATOM     20  C   UNL d   1      24.027 -18.163  -0.112  0.00  0.00     0.049 C 
ENDBRANCH  12  13
ENDBRANCH   1  12
TORSDOF 2
ENDMDL
MODEL 8
REMARK VINA RESULT:    -5.838      3.312      5.094
REMARK INTER + INTRA:          -6.846
REMARK INTER:                  -6.434
REMARK INTRA:                  -0.412
REMARK CONF_INDEPENDENT:        0.597
REMARK UNBOUND:                -0.412
REMARK  2 active torsions:
REMARK  status: ('A' for Active; 'I' for Inactive)
REMARK    1  A    between atoms: C_5  and  C_6 
REMARK    2  A    between atoms: C_6  and  C_7 
ROOT
ATOM      1  C   UNL d   1      25.827 -16.847  -0.623  0.00  0.00     0.082 A 
ATOM      2  C   UNL d   1      24.902 -16.328  -1.468  0.00  0.00     0.259 A 
ATOM      3  O   UNL d   1      24.896 -15.375  -2.277  0.00  0.00    -0.267 OA
ATOM      4  N   UNL d   1      23.639 -16.829  -1.443  0.00  0.00    -0.299 N 
ATOM      5  C   UNL d   1      23.232 -17.903  -0.726  0.00  0.00     0.181 A 
ATOM      6  S   UNL d   1      21.678 -18.498  -0.814  0.00  0.00    -0.040 SA
ATOM      7  N   UNL d   1      24.174 -18.487   0.068  0.00  0.00    -0.299 N 
ATOM      8  C   UNL d   1      25.458 -18.029   0.204  0.00  0.00     0.259 A 
ATOM      9  O   UNL d   1      26.242 -18.584   0.975  0.00  0.00    -0.267 OA
ATOM     10  H   UNL d   1      23.000 -16.297  -2.021  0.00  0.00     0.171 HD
ATOM     11  H   UNL d   1      23.919 -19.295   0.607  0.00  0.00     0.171 HD
ENDROOT
BRANCH   1  12
ATOM     12  C   UNL d   1      27.179 -16.224  -0.381  0.00  0.00     0.088 C 
BRANCH  12  13
ATOM     13  C   UNL d   1      27.177 -15.061   0.606  0.00  0.00    -0.053 A 
ATOM     14  C   UNL d   1      26.634 -13.811   0.271  0.00  0.00     0.008 A 
ATOM     15  C   UNL d   1      26.779 -12.707   1.092  0.00  0.00     0.008 A 
ATOM     16  C   UNL d   1      27.401 -12.838   2.328  0.00  0.00    -0.056 A 
ATOM     17  C   UNL d   1      27.526 -11.616   3.184  0.00  0.00     0.049 C 
ATOM     18  C   UNL d   1      27.880 -14.101   2.731  0.00  0.00    -0.056 A 
ATOM     19  C   UNL d   1      27.779 -15.200   1.859  0.00  0.00     0.014 A 
ATOM     20  C   UNL d   1      28.503 -14.292   4.082  0.00  0.00     0.049 C 
ENDBRANCH  12  13
ENDBRANCH   1  12
TORSDOF 2
ENDMDL
MODEL 9
REMARK VINA RESULT:    -5.827      2.836      4.129
REMARK INTER + INTRA:          -6.842
REMARK INTER:                  -6.423
REMARK INTRA:                  -0.419
REMARK CONF_INDEPENDENT:        0.597
REMARK UNBOUND:                -0.419
REMARK  2 active torsions:
REMARK  status: ('A' for Active; 'I' for Inactive)
REMARK    1  A    between atoms: C_5  and  C_6 
REMARK    2  A    between atoms: C_6  and  C_7 
ROOT
ATOM      1  C   UNL d   1      23.853 -16.705  -0.254  0.00  0.00     0.082 A 
ATOM      2  C   UNL d   1      24.001 -17.965   0.225  0.00  0.00     0.259 A 
ATOM      3  O   UNL d   1      24.925 -18.576   0.803  0.00  0.00    -0.267 OA
ATOM      4  N   UNL d   1      23.014 -18.870  -0.002  0.00  0.00    -0.299 N 
ATOM      5  C   UNL d   1      21.813 -18.601  -0.568  0.00  0.00     0.181 A 
ATOM      6  S   UNL d   1      20.627 -19.759  -0.738  0.00  0.00    -0.040 SA
ATOM      7  N   UNL d   1      21.618 -17.317  -0.981  0.00  0.00    -0.299 N 
ATOM      8  C   UNL d   1      22.563 -16.328  -0.894  0.00  0.00     0.259 A 
ATOM      9  O   UNL d   1      22.329 -15.200  -1.329  0.00  0.00    -0.267 OA
ATOM     10  H   UNL d   1      23.271 -19.805   0.289  0.00  0.00     0.171 HD
ATOM     11  H   UNL d   1      20.737 -17.070  -1.394  0.00  0.00     0.171 HD
ENDROOT
BRANCH   1  12
ATOM     12  C   UNL d   1      24.966 -15.688  -0.284  0.00  0.00     0.088 C 
BRANCH  12  13
ATOM     13  C   UNL d   1      25.603 -15.480  -1.655  0.00  0.00    -0.053 A 
ATOM     14  C   UNL d   1      26.739 -16.198  -2.057  0.00  0.00     0.008 A 
ATOM     15  C   UNL d   1      27.420 -15.898  -3.222  0.00  0.00     0.008 A 
ATOM     16  C   UNL d   1      26.932 -14.918  -4.079  0.00  0.00    -0.056 A 
ATOM     17  C   UNL d   1      27.700 -14.635  -5.332  0.00  0.00     0.049 C 
ATOM     18  C   UNL d   1      25.743 -14.237  -3.745  0.00  0.00    -0.056 A 
ATOM     19  C   UNL d   1      25.096 -14.513  -2.527  0.00  0.00     0.014 A 
ATOM     20  C   UNL d   1      25.155 -13.217  -4.673  0.00  0.00     0.049 C 
ENDBRANCH  12  13
ENDBRANCH   1  12
TORSDOF 2
ENDMDL
