MODEL 1
REMARK VINA RESULT:    -8.762      0.000      0.000
REMARK INTER + INTRA:         -11.107
REMARK INTER:                 -10.253
REMARK INTRA:                  -0.853
REMARK CONF_INDEPENDENT:        1.492
REMARK UNBOUND:                -0.853
REMARK  5 active torsions:
REMARK  status: ('A' for Active; 'I' for Inactive)
REMARK    1  A    between atoms: N_8  and  C_9 
REMARK    2  A    between atoms: C_18  and  C_19 
REMARK    3  A    between atoms: C_19  and  N_20 
REMARK    4  A    between atoms: N_20  and  C_21 
REMARK    5  A    between atoms: C_24  and  O_25 
ROOT
ATOM      1  C   UNL d   1      27.691 -15.117   1.661  0.00  0.00     0.051 C 
ATOM      2  C   UNL d   1      27.350 -14.625   0.280  0.00  0.00    -0.020 C 
ATOM      3  C   UNL d   1      27.384 -13.339  -0.138  0.00  0.00     0.106 C 
ATOM      4  C   UNL d   1      27.867 -12.317   0.878  0.00  0.00     0.026 C 
ATOM      5  N   UNL d   1      28.268 -11.470   1.720  0.00  0.00    -0.096 N 
ATOM      6  C   UNL d   1      27.059 -12.864  -1.484  0.00  0.00     0.271 C 
ATOM      7  O   UNL d   1      27.122 -11.670  -1.754  0.00  0.00    -0.266 OA
ATOM      8  N   UNL d   1      26.650 -13.853  -2.354  0.00  0.00    -0.274 N 
ATOM      9  C   UNL d   1      26.332 -15.107  -1.881  0.00  0.00     0.263 C 
ATOM     10  O   UNL d   1      25.423 -15.795  -2.337  0.00  0.00    -0.267 OA
ATOM     11  C   UNL d   1      26.922 -15.625  -0.649  0.00  0.00     0.055 C 
ENDROOT
BRANCH  11  12
ATOM     12  C   UNL d   1      26.811 -16.964  -0.471  0.00  0.00     0.106 C 
BRANCH  12  13
ATOM     13  N   UNL d   1      25.827 -17.655   0.217  0.00  0.00    -0.365 N 
ATOM     14  H   UNL d   1      26.146 -18.240   1.000  0.00  0.00     0.165 HD
BRANCH  13  15
ATOM     15  C   UNL d   1      24.458 -17.733  -0.063  0.00  0.00     0.032 A 
ATOM     16  C   UNL d   1      23.814 -18.962  -0.238  0.00  0.00     0.032 A 
ATOM     17  C   UNL d   1      22.475 -19.024  -0.632  0.00  0.00     0.039 A 
ATOM     18  C   UNL d   1      21.779 -17.844  -0.864  0.00  0.00     0.065 A 
ATOM     19  C   UNL d   1      22.395 -16.610  -0.690  0.00  0.00     0.039 A 
ATOM     20  C   UNL d   1      23.727 -16.555  -0.274  0.00  0.00     0.032 A 
BRANCH  18  21
ATOM     21  O   UNL d   1      20.477 -17.845  -1.270  0.00  0.00    -0.361 OA
ATOM     22  H   UNL d   1      20.229 -16.947  -1.540  0.00  0.00     0.217 HD
ENDBRANCH  18  21
ENDBRANCH  13  15
ENDBRANCH  12  13
ENDBRANCH  11  12
BRANCH   8  23
ATOM     23  C   UNL d   1      26.252 -13.442  -3.716  0.00  0.00     0.111 C 
ATOM     24  C   UNL d   1      25.168 -14.325  -4.358  0.00  0.00     0.042 C 
ATOM     25  C   UNL d   1      25.828 -15.575  -4.978  0.00  0.00     0.142 C 
ATOM     26  S   UNL d   1      27.601 -15.121  -5.228  0.00  0.00     0.146 S 
ATOM     27  O   UNL d   1      28.535 -15.748  -4.308  0.00  0.00    -0.228 OA
ATOM     28  O   UNL d   1      27.880 -15.123  -6.647  0.00  0.00    -0.228 OA
ATOM     29  C   UNL d   1      27.431 -13.433  -4.684  0.00  0.00     0.166 C 
ENDBRANCH   8  23
TORSDOF 5
ENDMDL
MODEL 2
REMARK VINA RESULT:    -8.604      2.655      3.627
REMARK INTER + INTRA:          -9.991
REMARK INTER:                 -10.096
REMARK INTRA:                   0.104
REMARK CONF_INDEPENDENT:        1.492
REMARK UNBOUND:                 0.104
REMARK  5 active torsions:
REMARK  status: ('A' for Active; 'I' for Inactive)
REMARK    1  A    between atoms: N_8  and  C_9 
REMARK    2  A    between atoms: C_18  and  C_19 
REMARK    3  A    between atoms: C_19  and  N_20 
REMARK    4  A    between atoms: N_20  and  C_21 
REMARK    5  A    between atoms: C_24  and  O_25 
ROOT
ATOM      1  C   UNL d   1      25.987 -17.936   0.564  0.00  0.00     0.051 C 
ATOM      2  C   UNL d   1      25.948 -17.157  -0.722  0.00  0.00    -0.020 C 
ATOM      3  C   UNL d   1      27.020 -16.701  -1.410  0.00  0.00     0.106 C 
ATOM      4  C   UNL d   1      28.383 -17.068  -0.846  0.00  0.00     0.026 C 
ATOM      5  N   UNL d   1      29.513 -17.373  -0.378  0.00  0.00    -0.096 N 
ATOM      6  C   UNL d   1      26.980 -15.950  -2.665  0.00  0.00     0.271 C 
ATOM      7  O   UNL d   1      28.018 -15.583  -3.204  0.00  0.00    -0.266 OA
ATOM      8  N   UNL d   1      25.709 -15.674  -3.124  0.00  0.00    -0.274 N 
ATOM      9  C   UNL d   1      24.618 -15.869  -2.307  0.00  0.00     0.263 C 
ATOM     10  O   UNL d   1      23.634 -15.135  -2.299  0.00  0.00    -0.267 OA
ATOM     11  C   UNL d   1      24.644 -16.853  -1.228  0.00  0.00     0.055 C 
ENDROOT
BRANCH  11  12
ATOM     12  C   UNL d   1      23.433 -17.199  -0.727  0.00  0.00     0.106 C 
BRANCH  12  13
ATOM     13  N   UNL d   1      22.623 -18.256  -1.107  0.00  0.00    -0.365 N 
ATOM     14  H   UNL d   1      22.863 -18.716  -1.994  0.00  0.00     0.165 HD
BRANCH  13  15
ATOM     15  C   UNL d   1      21.461 -18.731  -0.487  0.00  0.00     0.032 A 
ATOM     16  C   UNL d   1      21.404 -18.947   0.893  0.00  0.00     0.032 A 
ATOM     17  C   UNL d   1      20.281 -19.530   1.485  0.00  0.00     0.039 A 
ATOM     18  C   UNL d   1      19.210 -19.911   0.684  0.00  0.00     0.065 A 
ATOM     19  C   UNL d   1      19.242 -19.700  -0.689  0.00  0.00     0.039 A 
ATOM     20  C   UNL d   1      20.358 -19.096  -1.271  0.00  0.00     0.032 A 
BRANCH  18  21
ATOM     21  O   UNL d   1      18.098 -20.503   1.204  0.00  0.00    -0.361 OA
ATOM     22  H   UNL d   1      18.328 -20.924   2.048  0.00  0.00     0.217 HD
ENDBRANCH  18  21
ENDBRANCH  13  15
ENDBRANCH  12  13
ENDBRANCH  11  12
BRANCH   8  23
ATOM     23  C   UNL d   1      25.588 -14.871  -4.358  0.00  0.00     0.111 C 
ATOM     24  C   UNL d   1      26.930 -14.455  -4.984  0.00  0.00     0.042 C 
ATOM     25  C   UNL d   1      27.459 -13.194  -4.270  0.00  0.00     0.142 C 
ATOM     26  S   UNL d   1      25.979 -12.423  -3.476  0.00  0.00     0.146 S 
ATOM     27  O   UNL d   1      25.912 -12.556  -2.031  0.00  0.00    -0.228 OA
ATOM     28  O   UNL d   1      25.749 -11.133  -4.090  0.00  0.00    -0.228 OA
ATOM     29  C   UNL d   1      24.799 -13.584  -4.133  0.00  0.00     0.166 C 
ENDBRANCH   8  23
TORSDOF 5
ENDMDL
MODEL 3
REMARK VINA RESULT:    -8.144      2.153      3.486
REMARK INTER + INTRA:         -10.061
REMARK INTER:                  -9.635
REMARK INTRA:                  -0.426
REMARK CONF_INDEPENDENT:        1.492
REMARK UNBOUND:                -0.426
REMARK  5 active torsions:
REMARK  status: ('A' for Active; 'I' for Inactive)
REMARK    1  A    between atoms: N_8  and  C_9 
REMARK    2  A    between atoms: C_18  and  C_19 
REMARK    3  A    between atoms: C_19  and  N_20 
REMARK    4  A    between atoms: N_20  and  C_21 
REMARK    5  A    between atoms: C_24  and  O_25 
ROOT
ATOM      1  C   UNL d   1      29.604 -17.542  -0.797  0.00  0.00     0.051 C 
ATOM      2  C   UNL d   1      28.675 -16.822  -1.737  0.00  0.00    -0.020 C 
ATOM      3  C   UNL d   1      28.972 -16.409  -2.990  0.00  0.00     0.106 C 
ATOM      4  C   UNL d   1      30.359 -16.765  -3.501  0.00  0.00     0.026 C 
ATOM      5  N   UNL d   1      31.509 -17.059  -3.924  0.00  0.00    -0.096 N 
ATOM      6  C   UNL d   1      28.064 -15.717  -3.905  0.00  0.00     0.271 C 
ATOM      7  O   UNL d   1      28.440 -15.386  -5.024  0.00  0.00    -0.266 OA
ATOM      8  N   UNL d   1      26.817 -15.450  -3.378  0.00  0.00    -0.274 N 
ATOM      9  C   UNL d   1      26.589 -15.596  -2.027  0.00  0.00     0.263 C 
ATOM     10  O   UNL d   1      25.861 -14.851  -1.377  0.00  0.00    -0.267 OA
ATOM     11  C   UNL d   1      27.372 -16.529  -1.222  0.00  0.00     0.055 C 
ENDROOT
BRANCH  11  12
ATOM     12  C   UNL d   1      26.843 -16.839  -0.013  0.00  0.00     0.106 C 
BRANCH  12  13
ATOM     13  N   UNL d   1      25.832 -17.743   0.270  0.00  0.00    -0.365 N 
ATOM     14  H   UNL d   1      26.096 -18.553   0.844  0.00  0.00     0.165 HD
BRANCH  13  15
ATOM     15  C   UNL d   1      24.512 -17.749  -0.195  0.00  0.00     0.032 A 
ATOM     16  C   UNL d   1      23.749 -16.578  -0.249  0.00  0.00     0.032 A 
ATOM     17  C   UNL d   1      22.399 -16.614  -0.604  0.00  0.00     0.039 A 
ATOM     18  C   UNL d   1      21.805 -17.836  -0.896  0.00  0.00     0.065 A 
ATOM     19  C   UNL d   1      22.544 -19.012  -0.856  0.00  0.00     0.039 A 
ATOM     20  C   UNL d   1      23.900 -18.966  -0.522  0.00  0.00     0.032 A 
BRANCH  18  21
ATOM     21  O   UNL d   1      20.486 -17.933  -1.228  0.00  0.00    -0.361 OA
ATOM     22  H   UNL d   1      20.314 -17.382  -2.007  0.00  0.00     0.217 HD
ENDBRANCH  18  21
ENDBRANCH  13  15
ENDBRANCH  12  13
ENDBRANCH  11  12
BRANCH   8  23
ATOM     23  C   UNL d   1      25.863 -14.703  -4.223  0.00  0.00     0.111 C 
ATOM     24  C   UNL d   1      26.515 -13.885  -5.352  0.00  0.00     0.042 C 
ATOM     25  C   UNL d   1      27.002 -12.534  -4.788  0.00  0.00     0.142 C 
ATOM     26  S   UNL d   1      26.029 -12.267  -3.241  0.00  0.00     0.146 S 
ATOM     27  O   UNL d   1      26.772 -12.437  -2.005  0.00  0.00    -0.228 OA
ATOM     28  O   UNL d   1      25.191 -11.102  -3.421  0.00  0.00    -0.228 OA
ATOM     29  C   UNL d   1      25.018 -13.724  -3.413  0.00  0.00     0.166 C 
ENDBRANCH   8  23
TORSDOF 5
ENDMDL
MODEL 4
REMARK VINA RESULT:    -7.894      2.591      4.605
REMARK INTER + INTRA:         -10.541
REMARK INTER:                  -9.386
REMARK INTRA:                  -1.156
REMARK CONF_INDEPENDENT:        1.492
REMARK UNBOUND:                -1.156
REMARK  5 active torsions:
REMARK  status: ('A' for Active; 'I' for Inactive)
REMARK    1  A    between atoms: N_8  and  C_9 
REMARK    2  A    between atoms: C_18  and  C_19 
REMARK    3  A    between atoms: C_19  and  N_20 
REMARK    4  A    between atoms: N_20  and  C_21 
REMARK    5  A    between atoms: C_24  and  O_25 
ROOT
ATOM      1  C   UNL d   1      25.361 -16.327  -2.891  0.00  0.00     0.051 C 
ATOM      2  C   UNL d   1      26.210 -15.503  -1.961  0.00  0.00    -0.020 C 
ATOM      3  C   UNL d   1      26.458 -14.178  -2.071  0.00  0.00     0.106 C 
ATOM      4  C   UNL d   1      25.759 -13.460  -3.215  0.00  0.00     0.026 C 
ATOM      5  N   UNL d   1      25.181 -12.865  -4.163  0.00  0.00    -0.096 N 
ATOM      6  C   UNL d   1      27.277 -13.377  -1.161  0.00  0.00     0.271 C 
ATOM      7  O   UNL d   1      27.436 -12.178  -1.358  0.00  0.00    -0.266 OA
ATOM      8  N   UNL d   1      27.859 -14.096  -0.137  0.00  0.00    -0.274 N 
ATOM      9  C   UNL d   1      27.861 -15.473  -0.168  0.00  0.00     0.263 C 
ATOM     10  O   UNL d   1      28.794 -16.161   0.235  0.00  0.00    -0.267 OA
ATOM     11  C   UNL d   1      26.829 -16.217  -0.886  0.00  0.00     0.055 C 
ENDROOT
BRANCH  11  12
ATOM     12  C   UNL d   1      26.731 -17.530  -0.566  0.00  0.00     0.106 C 
BRANCH  12  13
ATOM     13  N   UNL d   1      25.705 -18.170   0.109  0.00  0.00    -0.365 N 
ATOM     14  H   UNL d   1      25.987 -18.814   0.859  0.00  0.00     0.165 HD
BRANCH  13  15
ATOM     15  C   UNL d   1      24.330 -18.125  -0.149  0.00  0.00     0.032 A 
ATOM     16  C   UNL d   1      23.614 -19.270  -0.511  0.00  0.00     0.032 A 
ATOM     17  C   UNL d   1      22.269 -19.193  -0.878  0.00  0.00     0.039 A 
ATOM     18  C   UNL d   1      21.638 -17.954  -0.895  0.00  0.00     0.065 A 
ATOM     19  C   UNL d   1      22.327 -16.803  -0.533  0.00  0.00     0.039 A 
ATOM     20  C   UNL d   1      23.666 -16.891  -0.144  0.00  0.00     0.032 A 
BRANCH  18  21
ATOM     21  O   UNL d   1      20.334 -17.816  -1.266  0.00  0.00    -0.361 OA
ATOM     22  H   UNL d   1      20.263 -17.097  -1.913  0.00  0.00     0.217 HD
ENDBRANCH  18  21
ENDBRANCH  13  15
ENDBRANCH  12  13
ENDBRANCH  11  12
BRANCH   8  23
ATOM     23  C   UNL d   1      28.746 -13.365   0.792  0.00  0.00     0.111 C 
ATOM     24  C   UNL d   1      28.958 -14.057   2.149  0.00  0.00     0.042 C 
ATOM     25  C   UNL d   1      27.779 -13.719   3.085  0.00  0.00     0.142 C 
ATOM     26  S   UNL d   1      27.030 -12.178   2.394  0.00  0.00     0.146 S 
ATOM     27  O   UNL d   1      25.750 -12.356   1.731  0.00  0.00    -0.228 OA
ATOM     28  O   UNL d   1      27.197 -11.114   3.360  0.00  0.00    -0.228 OA
ATOM     29  C   UNL d   1      28.232 -11.962   1.097  0.00  0.00     0.166 C 
ENDBRANCH   8  23
TORSDOF 5
ENDMDL
MODEL 5
REMARK VINA RESULT:    -7.529      2.949      4.503
REMARK INTER + INTRA:         -10.823
REMARK INTER:                  -9.021
REMARK INTRA:                  -1.802
REMARK CONF_INDEPENDENT:        1.492
REMARK UNBOUND:                -1.802
REMARK  5 active torsions:
REMARK  status: ('A' for Active; 'I' for Inactive)
REMARK    1  A    between atoms: N_8  and  C_9 
REMARK    2  A    between atoms: C_18  and  C_19 
REMARK    3  A    between atoms: C_19  and  N_20 
REMARK    4  A    between atoms: N_20  and  C_21 
REMARK    5  A    between atoms: C_24  and  O_25 
ROOT
ATOM      1  C   UNL d   1      30.820 -18.200  -2.731  0.00  0.00     0.051 C 
ATOM      2  C   UNL d   1      29.997 -17.020  -3.172  0.00  0.00    -0.020 C 
ATOM      3  C   UNL d   1      29.655 -16.719  -4.446  0.00  0.00     0.106 C 
ATOM      4  C   UNL d   1      30.104 -17.707  -5.510  0.00  0.00     0.026 C 
ATOM      5  N   UNL d   1      30.476 -18.526  -6.393  0.00  0.00    -0.096 N 
ATOM      6  C   UNL d   1      28.848 -15.575  -4.872  0.00  0.00     0.271 C 
ATOM      7  O   UNL d   1      28.599 -15.397  -6.059  0.00  0.00    -0.266 OA
ATOM      8  N   UNL d   1      28.461 -14.737  -3.847  0.00  0.00    -0.274 N 
ATOM      9  C   UNL d   1      29.031 -14.857  -2.599  0.00  0.00     0.263 C 
ATOM     10  O   UNL d   1      29.282 -13.901  -1.872  0.00  0.00    -0.267 OA
ATOM     11  C   UNL d   1      29.578 -16.129  -2.134  0.00  0.00     0.055 C 
ENDROOT
BRANCH  11  12
ATOM     12  C   UNL d   1      29.789 -16.217  -0.798  0.00  0.00     0.106 C 
BRANCH  12  13
ATOM     13  N   UNL d   1      28.881 -16.564   0.189  0.00  0.00    -0.365 N 
ATOM     14  H   UNL d   1      29.266 -16.700   1.132  0.00  0.00     0.165 HD
BRANCH  13  15
ATOM     15  C   UNL d   1      27.515 -16.841   0.059  0.00  0.00     0.032 A 
ATOM     16  C   UNL d   1      27.009 -18.133   0.230  0.00  0.00     0.032 A 
ATOM     17  C   UNL d   1      25.664 -18.418  -0.015  0.00  0.00     0.039 A 
ATOM     18  C   UNL d   1      24.821 -17.402  -0.448  0.00  0.00     0.065 A 
ATOM     19  C   UNL d   1      25.299 -16.108  -0.619  0.00  0.00     0.039 A 
ATOM     20  C   UNL d   1      26.640 -15.825  -0.349  0.00  0.00     0.032 A 
BRANCH  18  21
ATOM     21  O   UNL d   1      23.505 -17.627  -0.724  0.00  0.00    -0.361 OA
ATOM     22  H   UNL d   1      23.327 -17.378  -1.644  0.00  0.00     0.217 HD
ENDBRANCH  18  21
ENDBRANCH  13  15
ENDBRANCH  12  13
ENDBRANCH  11  12
BRANCH   8  23
ATOM     23  C   UNL d   1      27.690 -13.529  -4.207  0.00  0.00     0.111 C 
ATOM     24  C   UNL d   1      27.196 -12.706  -3.005  0.00  0.00     0.042 C 
ATOM     25  C   UNL d   1      25.888 -13.323  -2.465  0.00  0.00     0.142 C 
ATOM     26  S   UNL d   1      25.205 -14.323  -3.861  0.00  0.00     0.146 S 
ATOM     27  O   UNL d   1      25.316 -15.763  -3.702  0.00  0.00    -0.228 OA
ATOM     28  O   UNL d   1      23.946 -13.740  -4.270  0.00  0.00    -0.228 OA
ATOM     29  C   UNL d   1      26.456 -13.859  -5.041  0.00  0.00     0.166 C 
ENDBRANCH   8  23
TORSDOF 5
ENDMDL
MODEL 6
REMARK VINA RESULT:    -7.319      1.867      2.304
REMARK INTER + INTRA:          -9.659
REMARK INTER:                  -8.810
REMARK INTRA:                  -0.849
REMARK CONF_INDEPENDENT:        1.492
REMARK UNBOUND:                -0.849
REMARK  5 active torsions:
REMARK  status: ('A' for Active; 'I' for Inactive)
REMARK    1  A    between atoms: N_8  and  C_9 
REMARK    2  A    between atoms: C_18  and  C_19 
REMARK    3  A    between atoms: C_19  and  N_20 
REMARK    4  A    between atoms: N_20  and  C_21 
REMARK    5  A    between atoms: C_24  and  O_25 
ROOT
ATOM      1  C   UNL d   1      26.867 -17.728   0.695  0.00  0.00     0.051 C 
ATOM      2  C   UNL d   1      26.854 -16.719  -0.420  0.00  0.00    -0.020 C 
ATOM      3  C   UNL d   1      27.812 -15.797  -0.673  0.00  0.00     0.106 C 
ATOM      4  C   UNL d   1      29.033 -15.838   0.231  0.00  0.00     0.026 C 
ATOM      5  N   UNL d   1      30.046 -15.870   0.980  0.00  0.00    -0.096 N 
ATOM      6  C   UNL d   1      27.801 -14.822  -1.764  0.00  0.00     0.271 C 
ATOM      7  O   UNL d   1      28.725 -14.028  -1.898  0.00  0.00    -0.266 OA
ATOM      8  N   UNL d   1      26.670 -14.862  -2.553  0.00  0.00    -0.274 N 
ATOM      9  C   UNL d   1      25.566 -15.581  -2.149  0.00  0.00     0.263 C 
ATOM     10  O   UNL d   1      24.410 -15.220  -2.347  0.00  0.00    -0.267 OA
ATOM     11  C   UNL d   1      25.695 -16.733  -1.260  0.00  0.00     0.055 C 
ENDROOT
BRANCH  11  12
ATOM     12  C   UNL d   1      24.617 -17.553  -1.211  0.00  0.00     0.106 C 
BRANCH  12  13
ATOM     13  N   UNL d   1      23.730 -17.736  -0.163  0.00  0.00    -0.365 N 
ATOM     14  H   UNL d   1      24.072 -17.480   0.771  0.00  0.00     0.165 HD
BRANCH  13  15
ATOM     15  C   UNL d   1      22.452 -18.305  -0.192  0.00  0.00     0.032 A 
ATOM     16  C   UNL d   1      21.777 -18.651   0.983  0.00  0.00     0.032 A 
ATOM     17  C   UNL d   1      20.553 -19.324   0.939  0.00  0.00     0.039 A 
ATOM     18  C   UNL d   1      20.007 -19.664  -0.293  0.00  0.00     0.065 A 
ATOM     19  C   UNL d   1      20.657 -19.325  -1.474  0.00  0.00     0.039 A 
ATOM     20  C   UNL d   1      21.868 -18.632  -1.424  0.00  0.00     0.032 A 
BRANCH  18  21
ATOM     21  O   UNL d   1      18.827 -20.339  -0.395  0.00  0.00    -0.361 OA
ATOM     22  H   UNL d   1      18.446 -20.179  -1.273  0.00  0.00     0.217 HD
ENDBRANCH  18  21
ENDBRANCH  13  15
ENDBRANCH  12  13
ENDBRANCH  11  12
BRANCH   8  23
ATOM     23  C   UNL d   1      26.561 -13.870  -3.641  0.00  0.00     0.111 C 
ATOM     24  C   UNL d   1      25.567 -14.248  -4.754  0.00  0.00     0.042 C 
ATOM     25  C   UNL d   1      26.258 -15.200  -5.753  0.00  0.00     0.142 C 
ATOM     26  S   UNL d   1      28.070 -14.926  -5.520  0.00  0.00     0.146 S 
ATOM     27  O   UNL d   1      28.775 -16.000  -4.841  0.00  0.00    -0.228 OA
ATOM     28  O   UNL d   1      28.611 -14.371  -6.741  0.00  0.00    -0.228 OA
ATOM     29  C   UNL d   1      27.900 -13.615  -4.326  0.00  0.00     0.166 C 
ENDBRANCH   8  23
TORSDOF 5
ENDMDL
MODEL 7
REMARK VINA RESULT:    -6.687      4.227      6.892
REMARK INTER + INTRA:          -9.692
REMARK INTER:                  -8.178
REMARK INTRA:                  -1.514
REMARK CONF_INDEPENDENT:        1.492
REMARK UNBOUND:                -1.514
REMARK  5 active torsions:
REMARK  status: ('A' for Active; 'I' for Inactive)
REMARK    1  A    between atoms: N_8  and  C_9 
REMARK    2  A    between atoms: C_18  and  C_19 
REMARK    3  A    between atoms: C_19  and  N_20 
REMARK    4  A    between atoms: N_20  and  C_21 
REMARK    5  A    between atoms: C_24  and  O_25 
ROOT
ATOM      1  C   UNL d   1      28.305 -14.493  -6.151  0.00  0.00     0.051 C 
ATOM      2  C   UNL d   1      27.924 -14.772  -4.722  0.00  0.00    -0.020 C 
ATOM      3  C   UNL d   1      26.970 -14.128  -4.012  0.00  0.00     0.106 C 
ATOM      4  C   UNL d   1      26.181 -13.066  -4.760  0.00  0.00     0.026 C 
ATOM      5  N   UNL d   1      25.527 -12.184  -5.380  0.00  0.00    -0.096 N 
ATOM      6  C   UNL d   1      26.595 -14.407  -2.625  0.00  0.00     0.271 C 
ATOM      7  O   UNL d   1      25.713 -13.757  -2.076  0.00  0.00    -0.266 OA
ATOM      8  N   UNL d   1      27.341 -15.398  -2.021  0.00  0.00    -0.274 N 
ATOM      9  C   UNL d   1      28.493 -15.861  -2.618  0.00  0.00     0.263 C 
ATOM     10  O   UNL d   1      29.498 -16.186  -1.992  0.00  0.00    -0.267 OA
ATOM     11  C   UNL d   1      28.677 -15.796  -4.065  0.00  0.00     0.055 C 
ENDROOT
BRANCH  11  12
ATOM     12  C   UNL d   1      29.668 -16.577  -4.560  0.00  0.00     0.106 C 
BRANCH  12  13
ATOM     13  N   UNL d   1      30.073 -17.825  -4.117  0.00  0.00    -0.365 N 
ATOM     14  H   UNL d   1      30.220 -17.922  -3.105  0.00  0.00     0.165 HD
BRANCH  13  15
ATOM     15  C   UNL d   1      30.395 -18.957  -4.875  0.00  0.00     0.032 A 
ATOM     16  C   UNL d   1      30.781 -20.158  -4.272  0.00  0.00     0.032 A 
ATOM     17  C   UNL d   1      31.211 -21.244  -5.038  0.00  0.00     0.039 A 
ATOM     18  C   UNL d   1      31.266 -21.121  -6.422  0.00  0.00     0.065 A 
ATOM     19  C   UNL d   1      30.881 -19.939  -7.045  0.00  0.00     0.039 A 
ATOM     20  C   UNL d   1      30.431 -18.865  -6.274  0.00  0.00     0.032 A 
BRANCH  18  21
ATOM     21  O   UNL d   1      31.697 -22.140  -7.218  0.00  0.00    -0.361 OA
ATOM     22  H   UNL d   1      31.155 -22.926  -7.048  0.00  0.00     0.217 HD
ENDBRANCH  18  21
ENDBRANCH  13  15
ENDBRANCH  12  13
ENDBRANCH  11  12
BRANCH   8  23
ATOM     23  C   UNL d   1      27.058 -15.697  -0.603  0.00  0.00     0.111 C 
ATOM     24  C   UNL d   1      27.673 -17.012  -0.092  0.00  0.00     0.042 C 
ATOM     25  C   UNL d   1      26.752 -18.190  -0.476  0.00  0.00     0.142 C 
ATOM     26  S   UNL d   1      25.092 -17.437  -0.775  0.00  0.00     0.146 S 
ATOM     27  O   UNL d   1      24.685 -17.369  -2.168  0.00  0.00    -0.228 OA
ATOM     28  O   UNL d   1      24.172 -17.946   0.218  0.00  0.00    -0.228 OA
ATOM     29  C   UNL d   1      25.562 -15.781  -0.318  0.00  0.00     0.166 C 
ENDBRANCH   8  23
TORSDOF 5
ENDMDL
MODEL 8
REMARK VINA RESULT:    -6.540      3.744      5.967
REMARK INTER + INTRA:          -9.438
REMARK INTER:                  -8.031
REMARK INTRA:                  -1.407
REMARK CONF_INDEPENDENT:        1.492
REMARK UNBOUND:                -1.407
REMARK  5 active torsions:
REMARK  status: ('A' for Active; 'I' for Inactive)
REMARK    1  A    between atoms: N_8  and  C_9 
REMARK    2  A    between atoms: C_18  and  C_19 
REMARK    3  A    between atoms: C_19  and  N_20 
REMARK    4  A    between atoms: N_20  and  C_21 
REMARK    5  A    between atoms: C_24  and  O_25 
ROOT
ATOM      1  C   UNL d   1      27.376 -17.493  -0.552  0.00  0.00     0.051 C 
ATOM      2  C   UNL d   1      27.057 -16.548  -1.678  0.00  0.00    -0.020 C 
ATOM      3  C   UNL d   1      25.847 -16.007  -1.947  0.00  0.00     0.106 C 
ATOM      4  C   UNL d   1      24.729 -16.355  -0.977  0.00  0.00     0.026 C 
ATOM      5  N   UNL d   1      23.802 -16.643  -0.174  0.00  0.00    -0.096 N 
ATOM      6  C   UNL d   1      25.541 -15.081  -3.038  0.00  0.00     0.271 C 
ATOM      7  O   UNL d   1      24.403 -14.653  -3.190  0.00  0.00    -0.266 OA
ATOM      8  N   UNL d   1      26.612 -14.797  -3.861  0.00  0.00    -0.274 N 
ATOM      9  C   UNL d   1      27.764 -15.548  -3.785  0.00  0.00     0.263 C 
ATOM     10  O   UNL d   1      28.446 -15.846  -4.762  0.00  0.00    -0.267 OA
ATOM     11  C   UNL d   1      28.145 -16.231  -2.552  0.00  0.00     0.055 C 
ENDROOT
BRANCH  11  12
ATOM     12  C   UNL d   1      29.437 -16.638  -2.489  0.00  0.00     0.106 C 
BRANCH  12  13
ATOM     13  N   UNL d   1      30.243 -17.081  -3.524  0.00  0.00    -0.365 N 
ATOM     14  H   UNL d   1      30.548 -16.369  -4.199  0.00  0.00     0.165 HD
BRANCH  13  15
ATOM     15  C   UNL d   1      30.633 -18.391  -3.826  0.00  0.00     0.032 A 
ATOM     16  C   UNL d   1      30.397 -18.954  -5.085  0.00  0.00     0.032 A 
ATOM     17  C   UNL d   1      30.684 -20.297  -5.339  0.00  0.00     0.039 A 
ATOM     18  C   UNL d   1      31.202 -21.087  -4.318  0.00  0.00     0.065 A 
ATOM     19  C   UNL d   1      31.450 -20.548  -3.061  0.00  0.00     0.039 A 
ATOM     20  C   UNL d   1      31.182 -19.199  -2.821  0.00  0.00     0.032 A 
BRANCH  18  21
ATOM     21  O   UNL d   1      31.481 -22.408  -4.503  0.00  0.00    -0.361 OA
ATOM     22  H   UNL d   1      30.780 -22.807  -5.043  0.00  0.00     0.217 HD
ENDBRANCH  18  21
ENDBRANCH  13  15
ENDBRANCH  12  13
ENDBRANCH  11  12
BRANCH   8  23
ATOM     23  C   UNL d   1      26.367 -13.913  -5.018  0.00  0.00     0.111 C 
ATOM     24  C   UNL d   1      27.641 -13.359  -5.679  0.00  0.00     0.042 C 
ATOM     25  C   UNL d   1      28.127 -12.122  -4.895  0.00  0.00     0.142 C 
ATOM     26  S   UNL d   1      26.649 -11.518  -3.966  0.00  0.00     0.146 S 
ATOM     27  O   UNL d   1      26.674 -11.764  -2.534  0.00  0.00    -0.228 OA
ATOM     28  O   UNL d   1      26.300 -10.205  -4.462  0.00  0.00    -0.228 OA
ATOM     29  C   UNL d   1      25.511 -12.705  -4.651  0.00  0.00     0.166 C 
ENDBRANCH   8  23
TORSDOF 5
ENDMDL
MODEL 9
REMARK VINA RESULT:    -6.521      4.008      6.540
REMARK INTER + INTRA:          -9.508
REMARK INTER:                  -8.012
REMARK INTRA:                  -1.495
REMARK CONF_INDEPENDENT:        1.492
REMARK UNBOUND:                -1.495
REMARK  5 active torsions:
REMARK  status: ('A' for Active; 'I' for Inactive)
REMARK    1  A    between atoms: N_8  and  C_9 
REMARK    2  A    between atoms: C_18  and  C_19 
REMARK    3  A    between atoms: C_19  and  N_20 
REMARK    4  A    between atoms: N_20  and  C_21 
REMARK    5  A    between atoms: C_24  and  O_25 
ROOT
ATOM      1  C   UNL d   1      29.658 -17.449  -1.792  0.00  0.00     0.051 C 
ATOM      2  C   UNL d   1      28.626 -16.516  -2.363  0.00  0.00    -0.020 C 
ATOM      3  C   UNL d   1      27.461 -16.159  -1.775  0.00  0.00     0.106 C 
ATOM      4  C   UNL d   1      27.216 -16.719  -0.384  0.00  0.00     0.026 C 
ATOM      5  N   UNL d   1      27.011 -17.183   0.770  0.00  0.00    -0.096 N 
ATOM      6  C   UNL d   1      26.463 -15.244  -2.330  0.00  0.00     0.271 C 
ATOM      7  O   UNL d   1      25.437 -14.991  -1.708  0.00  0.00    -0.266 OA
ATOM      8  N   UNL d   1      26.768 -14.761  -3.585  0.00  0.00    -0.274 N 
ATOM      9  C   UNL d   1      27.788 -15.326  -4.318  0.00  0.00     0.263 C 
ATOM     10  O   UNL d   1      27.751 -15.470  -5.537  0.00  0.00    -0.267 OA
ATOM     11  C   UNL d   1      28.911 -15.995  -3.666  0.00  0.00     0.055 C 
ENDROOT
BRANCH  11  12
ATOM     12  C   UNL d   1      29.999 -16.199  -4.447  0.00  0.00     0.106 C 
BRANCH  12  13
ATOM     13  N   UNL d   1      30.044 -16.723  -5.728  0.00  0.00    -0.365 N 
ATOM     14  H   UNL d   1      29.621 -16.150  -6.468  0.00  0.00     0.165 HD
BRANCH  13  15
ATOM     15  C   UNL d   1      30.514 -17.975  -6.142  0.00  0.00     0.032 A 
ATOM     16  C   UNL d   1      31.002 -18.184  -7.436  0.00  0.00     0.032 A 
ATOM     17  C   UNL d   1      31.360 -19.461  -7.873  0.00  0.00     0.039 A 
ATOM     18  C   UNL d   1      31.216 -20.541  -7.010  0.00  0.00     0.065 A 
ATOM     19  C   UNL d   1      30.740 -20.357  -5.718  0.00  0.00     0.039 A 
ATOM     20  C   UNL d   1      30.406 -19.074  -5.279  0.00  0.00     0.032 A 
BRANCH  18  21
ATOM     21  O   UNL d   1      31.529 -21.812  -7.391  0.00  0.00    -0.361 OA
ATOM     22  H   UNL d   1      30.855 -22.420  -7.049  0.00  0.00     0.217 HD
ENDBRANCH  18  21
ENDBRANCH  13  15
ENDBRANCH  12  13
ENDBRANCH  11  12
BRANCH   8  23
ATOM     23  C   UNL d   1      25.780 -13.874  -4.234  0.00  0.00     0.111 C 
ATOM     24  C   UNL d   1      26.341 -13.035  -5.395  0.00  0.00     0.042 C 
ATOM     25  C   UNL d   1      27.030 -11.775  -4.828  0.00  0.00     0.142 C 
ATOM     26  S   UNL d   1      26.314 -11.541  -3.141  0.00  0.00     0.146 S 
ATOM     27  O   UNL d   1      27.205 -11.865  -2.040  0.00  0.00    -0.228 OA
ATOM     28  O   UNL d   1      25.575 -10.298  -3.125  0.00  0.00    -0.228 OA
ATOM     29  C   UNL d   1      25.155 -12.890  -3.251  0.00  0.00     0.166 C 
ENDBRANCH   8  23
TORSDOF 5
ENDMDL
