MODEL 1
REMARK VINA RESULT:    -8.879      0.000      0.000
REMARK INTER + INTRA:         -14.260
REMARK INTER:                 -12.161
REMARK INTRA:                  -2.099
REMARK CONF_INDEPENDENT:        3.281
REMARK UNBOUND:                -2.099
REMARK  11 active torsions:
REMARK  status: ('A' for Active; 'I' for Inactive)
REMARK    1  A    between atoms: C_2  and  N_3 
REMARK    2  A    between atoms: N_3  and  C_4 
REMARK    3  A    between atoms: N_3  and  C_6 
REMARK    4  A    between atoms: C_9  and  N_10 
REMARK       I    between atoms: N_10  and  C_11 
REMARK    5  A    between atoms: C_11  and  C_13 
REMARK    6  A    between atoms: C_13  and  S_14 
REMARK    7  A    between atoms: S_14  and  C_15 
REMARK    8  A    between atoms: C_18  and  N_19 
REMARK    9  A    between atoms: N_19  and  N_20 
REMARK   10  A    between atoms: C_21  and  C_22 
REMARK   11  A    between atoms: C_27  and  O_28 
ROOT
ATOM      1  C   UNL d   1      27.514 -14.211  -5.748  0.00  0.00     0.226 A 
ATOM      2  N   UNL d   1      27.053 -15.465  -5.744  0.00  0.00    -0.132 NA
ATOM      3  N   UNL d   1      25.901 -15.319  -5.043  0.00  0.00    -0.103 N 
ATOM      4  C   UNL d   1      25.687 -14.025  -4.634  0.00  0.00     0.739 A 
ATOM      5  N   UNL d   1      26.704 -13.314  -5.088  0.00  0.00    -0.034 NA
ATOM      6  H   UNL d   1      25.340 -16.136  -4.850  0.00  0.00     0.208 HD
ENDROOT
BRANCH   1   7
ATOM      7  S   UNL d   1      29.112 -13.779  -6.298  0.00  0.00    -0.079 SA
BRANCH   7   8
ATOM      8  C   UNL d   1      29.890 -15.277  -7.052  0.00  0.00     0.185 C 
BRANCH   8   9
ATOM      9  C   UNL d   1      30.432 -16.175  -5.894  0.00  0.00     0.231 C 
ATOM     10  N   UNL d   1      29.691 -16.231  -4.688  0.00  0.00    -0.327 N 
ATOM     11  H   UNL d   1      28.860 -15.656  -4.602  0.00  0.00     0.169 HD
ATOM     12  O   UNL d   1      31.476 -16.791  -6.041  0.00  0.00    -0.272 OA
BRANCH  10  13
ATOM     13  C   UNL d   1      30.109 -16.973  -3.521  0.00  0.00     0.034 A 
ATOM     14  C   UNL d   1      29.574 -16.724  -2.245  0.00  0.00     0.032 A 
ATOM     15  C   UNL d   1      30.082 -17.391  -1.082  0.00  0.00     0.039 A 
ATOM     16  C   UNL d   1      31.062 -18.392  -1.196  0.00  0.00     0.134 A 
ATOM     17  C   UNL d   1      31.563 -18.649  -2.461  0.00  0.00     0.039 A 
ATOM     18  C   UNL d   1      31.094 -17.960  -3.582  0.00  0.00     0.032 A 
BRANCH  16  19
ATOM     19  N   UNL d   1      31.498 -19.353  -0.106  0.00  0.00    -0.042 N 
ATOM     20  H   UNL d   1      30.781 -19.174   0.605  0.00  0.00     0.286 HD
BRANCH  19  21
ATOM     21  C   UNL d   1      31.127 -20.803  -0.446  0.00  0.00     0.237 C 
ATOM     22  C   UNL d   1      30.493 -21.584   0.687  0.00  0.00     0.035 C 
ENDBRANCH  19  21
BRANCH  19  23
ATOM     23  C   UNL d   1      32.700 -18.845   0.672  0.00  0.00     0.237 C 
ATOM     24  C   UNL d   1      32.436 -17.642   1.552  0.00  0.00     0.035 C 
ENDBRANCH  19  23
ENDBRANCH  16  19
ENDBRANCH  10  13
ENDBRANCH   8   9
ENDBRANCH   7   8
ENDBRANCH   1   7
BRANCH   4  25
ATOM     25  N   UNL d   1      24.585 -13.656  -3.883  0.00  0.00    -0.106 N 
ATOM     26  H   UNL d   1      24.239 -12.699  -3.934  0.00  0.00     0.208 HD
BRANCH  25  27
ATOM     27  N   UNL d   1      24.158 -14.454  -2.836  0.00  0.00    -0.171 NA
ATOM     28  C   UNL d   1      24.976 -15.251  -2.217  0.00  0.00     0.153 C 
BRANCH  28  29
ATOM     29  C   UNL d   1      24.451 -16.424  -1.428  0.00  0.00     0.016 A 
ATOM     30  C   UNL d   1      23.074 -16.449  -1.131  0.00  0.00     0.016 A 
ATOM     31  C   UNL d   1      22.528 -17.451  -0.309  0.00  0.00     0.001 A 
ATOM     32  C   UNL d   1      23.333 -18.471   0.184  0.00  0.00     0.003 A 
ATOM     33  C   UNL d   1      24.697 -18.452  -0.090  0.00  0.00     0.037 A 
ATOM     34  C   UNL d   1      25.278 -17.428  -0.865  0.00  0.00     0.080 A 
BRANCH  34  35
ATOM     35  O   UNL d   1      26.646 -17.564  -0.876  0.00  0.00    -0.355 OA
ATOM     36  C   UNL d   1      27.242 -18.201   0.232  0.00  0.00     0.210 C 
ENDBRANCH  34  35
ENDBRANCH  28  29
ENDBRANCH  25  27
ENDBRANCH   4  25
TORSDOF 11
ENDMDL
MODEL 2
REMARK VINA RESULT:    -8.786      2.810      3.772
REMARK INTER + INTRA:         -14.583
REMARK INTER:                 -12.067
REMARK INTRA:                  -2.516
REMARK CONF_INDEPENDENT:        3.281
REMARK UNBOUND:                -2.516
REMARK  11 active torsions:
REMARK  status: ('A' for Active; 'I' for Inactive)
REMARK    1  A    between atoms: C_2  and  N_3 
REMARK    2  A    between atoms: N_3  and  C_4 
REMARK    3  A    between atoms: N_3  and  C_6 
REMARK    4  A    between atoms: C_9  and  N_10 
REMARK       I    between atoms: N_10  and  C_11 
REMARK    5  A    between atoms: C_11  and  C_13 
REMARK    6  A    between atoms: C_13  and  S_14 
REMARK    7  A    between atoms: S_14  and  C_15 
REMARK    8  A    between atoms: C_18  and  N_19 
REMARK    9  A    between atoms: N_19  and  N_20 
REMARK   10  A    between atoms: C_21  and  C_22 
REMARK   11  A    between atoms: C_27  and  O_28 
ROOT
ATOM      1  C   UNL d   1      27.445 -13.415  -5.189  0.00  0.00     0.226 A 
ATOM      2  N   UNL d   1      27.051 -12.177  -5.497  0.00  0.00    -0.132 NA
ATOM      3  N   UNL d   1      25.743 -12.220  -5.138  0.00  0.00    -0.103 N 
ATOM      4  C   UNL d   1      25.367 -13.445  -4.643  0.00  0.00     0.739 A 
ATOM      5  N   UNL d   1      26.447 -14.207  -4.664  0.00  0.00    -0.034 NA
ATOM      6  H   UNL d   1      25.168 -11.404  -5.292  0.00  0.00     0.208 HD
ENDROOT
BRANCH   1   7
ATOM      7  S   UNL d   1      28.995 -14.070  -5.647  0.00  0.00    -0.079 SA
BRANCH   7   8
ATOM      8  C   UNL d   1      29.046 -15.847  -5.140  0.00  0.00     0.185 C 
BRANCH   8   9
ATOM      9  C   UNL d   1      29.163 -15.902  -3.583  0.00  0.00     0.231 C 
ATOM     10  N   UNL d   1      28.585 -14.849  -2.831  0.00  0.00    -0.327 N 
ATOM     11  H   UNL d   1      28.155 -14.078  -3.328  0.00  0.00     0.169 HD
ATOM     12  O   UNL d   1      29.753 -16.829  -3.050  0.00  0.00    -0.272 OA
BRANCH  10  13
ATOM     13  C   UNL d   1      28.672 -14.747  -1.392  0.00  0.00     0.034 A 
ATOM     14  C   UNL d   1      27.674 -14.119  -0.626  0.00  0.00     0.032 A 
ATOM     15  C   UNL d   1      27.832 -13.927   0.786  0.00  0.00     0.039 A 
ATOM     16  C   UNL d   1      28.944 -14.453   1.466  0.00  0.00     0.134 A 
ATOM     17  C   UNL d   1      29.908 -15.094   0.705  0.00  0.00     0.039 A 
ATOM     18  C   UNL d   1      29.767 -15.234  -0.677  0.00  0.00     0.032 A 
BRANCH  16  19
ATOM     19  N   UNL d   1      29.113 -14.558   2.969  0.00  0.00    -0.042 N 
ATOM     20  H   UNL d   1      29.285 -15.563   3.073  0.00  0.00     0.286 HD
BRANCH  19  21
ATOM     21  C   UNL d   1      30.486 -14.042   3.423  0.00  0.00     0.237 C 
ATOM     22  C   UNL d   1      30.946 -12.765   2.750  0.00  0.00     0.035 C 
ENDBRANCH  19  21
BRANCH  19  23
ATOM     23  C   UNL d   1      27.789 -14.491   3.711  0.00  0.00     0.237 C 
ATOM     24  C   UNL d   1      27.701 -13.419   4.775  0.00  0.00     0.035 C 
ENDBRANCH  19  23
ENDBRANCH  16  19
ENDBRANCH  10  13
ENDBRANCH   8   9
ENDBRANCH   7   8
ENDBRANCH   1   7
BRANCH   4  25
ATOM     25  N   UNL d   1      24.072 -13.718  -4.241  0.00  0.00    -0.106 N 
ATOM     26  H   UNL d   1      23.299 -13.190  -4.641  0.00  0.00     0.208 HD
BRANCH  25  27
ATOM     27  N   UNL d   1      23.841 -14.450  -3.089  0.00  0.00    -0.171 NA
ATOM     28  C   UNL d   1      24.778 -15.167  -2.546  0.00  0.00     0.153 C 
BRANCH  28  29
ATOM     29  C   UNL d   1      24.432 -16.295  -1.607  0.00  0.00     0.016 A 
ATOM     30  C   UNL d   1      23.095 -16.396  -1.172  0.00  0.00     0.016 A 
ATOM     31  C   UNL d   1      22.715 -17.354  -0.214  0.00  0.00     0.001 A 
ATOM     32  C   UNL d   1      23.647 -18.257   0.284  0.00  0.00     0.003 A 
ATOM     33  C   UNL d   1      24.972 -18.160  -0.127  0.00  0.00     0.037 A 
ATOM     34  C   UNL d   1      25.389 -17.174  -1.044  0.00  0.00     0.080 A 
BRANCH  34  35
ATOM     35  O   UNL d   1      26.758 -17.206  -1.180  0.00  0.00    -0.355 OA
ATOM     36  C   UNL d   1      27.508 -17.658  -0.075  0.00  0.00     0.210 C 
ENDBRANCH  34  35
ENDBRANCH  28  29
ENDBRANCH  25  27
ENDBRANCH   4  25
TORSDOF 11
ENDMDL
MODEL 3
REMARK VINA RESULT:    -8.474      2.431      6.540
REMARK INTER + INTRA:         -14.218
REMARK INTER:                 -11.755
REMARK INTRA:                  -2.463
REMARK CONF_INDEPENDENT:        3.281
REMARK UNBOUND:                -2.463
REMARK  11 active torsions:
REMARK  status: ('A' for Active; 'I' for Inactive)
REMARK    1  A    between atoms: C_2  and  N_3 
REMARK    2  A    between atoms: N_3  and  C_4 
REMARK    3  A    between atoms: N_3  and  C_6 
REMARK    4  A    between atoms: C_9  and  N_10 
REMARK       I    between atoms: N_10  and  C_11 
REMARK    5  A    between atoms: C_11  and  C_13 
REMARK    6  A    between atoms: C_13  and  S_14 
REMARK    7  A    between atoms: S_14  and  C_15 
REMARK    8  A    between atoms: C_18  and  N_19 
REMARK    9  A    between atoms: N_19  and  N_20 
REMARK   10  A    between atoms: C_21  and  C_22 
REMARK   11  A    between atoms: C_27  and  O_28 
ROOT
ATOM      1  C   UNL d   1      30.979 -17.923  -2.526  0.00  0.00     0.226 A 
ATOM      2  N   UNL d   1      31.103 -18.976  -1.713  0.00  0.00    -0.132 NA
ATOM      3  N   UNL d   1      30.488 -18.518  -0.594  0.00  0.00    -0.103 N 
ATOM      4  C   UNL d   1      30.022 -17.233  -0.731  0.00  0.00     0.739 A 
ATOM      5  N   UNL d   1      30.323 -16.852  -1.961  0.00  0.00    -0.034 NA
ATOM      6  H   UNL d   1      30.457 -19.110   0.223  0.00  0.00     0.208 HD
ENDROOT
BRANCH   1   7
ATOM      7  S   UNL d   1      31.794 -17.797  -4.063  0.00  0.00    -0.079 SA
BRANCH   7   8
ATOM      8  C   UNL d   1      30.552 -18.079  -5.403  0.00  0.00     0.185 C 
BRANCH   8   9
ATOM      9  C   UNL d   1      29.734 -16.760  -5.588  0.00  0.00     0.231 C 
ATOM     10  N   UNL d   1      28.981 -16.280  -4.489  0.00  0.00    -0.327 N 
ATOM     11  H   UNL d   1      28.963 -16.828  -3.637  0.00  0.00     0.169 HD
ATOM     12  O   UNL d   1      29.748 -16.184  -6.664  0.00  0.00    -0.272 OA
BRANCH  10  13
ATOM     13  C   UNL d   1      28.137 -15.108  -4.542  0.00  0.00     0.034 A 
ATOM     14  C   UNL d   1      26.757 -15.191  -4.799  0.00  0.00     0.032 A 
ATOM     15  C   UNL d   1      25.959 -14.011  -4.961  0.00  0.00     0.039 A 
ATOM     16  C   UNL d   1      26.511 -12.735  -4.765  0.00  0.00     0.134 A 
ATOM     17  C   UNL d   1      27.866 -12.665  -4.485  0.00  0.00     0.039 A 
ATOM     18  C   UNL d   1      28.645 -13.819  -4.376  0.00  0.00     0.032 A 
BRANCH  16  19
ATOM     19  N   UNL d   1      25.745 -11.431  -4.643  0.00  0.00    -0.042 N 
ATOM     20  H   UNL d   1      24.783 -11.763  -4.763  0.00  0.00     0.286 HD
BRANCH  19  21
ATOM     21  C   UNL d   1      25.646 -10.965  -3.184  0.00  0.00     0.237 C 
ATOM     22  C   UNL d   1      26.465  -9.735  -2.848  0.00  0.00     0.035 C 
ENDBRANCH  19  21
BRANCH  19  23
ATOM     23  C   UNL d   1      25.836 -10.582  -5.900  0.00  0.00     0.237 C 
ATOM     24  C   UNL d   1      25.109  -9.257  -5.835  0.00  0.00     0.035 C 
ENDBRANCH  19  23
ENDBRANCH  16  19
ENDBRANCH  10  13
ENDBRANCH   8   9
ENDBRANCH   7   8
ENDBRANCH   1   7
BRANCH   4  25
ATOM     25  N   UNL d   1      29.385 -16.560   0.296  0.00  0.00    -0.106 N 
ATOM     26  H   UNL d   1      29.878 -16.396   1.172  0.00  0.00     0.208 HD
BRANCH  25  27
ATOM     27  N   UNL d   1      28.010 -16.401   0.276  0.00  0.00    -0.171 NA
ATOM     28  C   UNL d   1      27.212 -17.426   0.274  0.00  0.00     0.153 C 
BRANCH  28  29
ATOM     29  C   UNL d   1      25.790 -17.288  -0.208  0.00  0.00     0.016 A 
ATOM     30  C   UNL d   1      24.840 -18.202   0.289  0.00  0.00     0.016 A 
ATOM     31  C   UNL d   1      23.518 -18.207  -0.193  0.00  0.00     0.001 A 
ATOM     32  C   UNL d   1      23.110 -17.270  -1.135  0.00  0.00     0.003 A 
ATOM     33  C   UNL d   1      24.041 -16.371  -1.644  0.00  0.00     0.037 A 
ATOM     34  C   UNL d   1      25.385 -16.381  -1.218  0.00  0.00     0.080 A 
BRANCH  34  35
ATOM     35  O   UNL d   1      26.121 -15.491  -1.964  0.00  0.00    -0.355 OA
ATOM     36  C   UNL d   1      26.378 -14.226  -1.396  0.00  0.00     0.210 C 
ENDBRANCH  34  35
ENDBRANCH  28  29
ENDBRANCH  25  27
ENDBRANCH   4  25
TORSDOF 11
ENDMDL
MODEL 4
REMARK VINA RESULT:    -8.393      1.344      2.325
REMARK INTER + INTRA:         -13.959
REMARK INTER:                 -11.674
REMARK INTRA:                  -2.284
REMARK CONF_INDEPENDENT:        3.281
REMARK UNBOUND:                -2.284
REMARK  11 active torsions:
REMARK  status: ('A' for Active; 'I' for Inactive)
REMARK    1  A    between atoms: C_2  and  N_3 
REMARK    2  A    between atoms: N_3  and  C_4 
REMARK    3  A    between atoms: N_3  and  C_6 
REMARK    4  A    between atoms: C_9  and  N_10 
REMARK       I    between atoms: N_10  and  C_11 
REMARK    5  A    between atoms: C_11  and  C_13 
REMARK    6  A    between atoms: C_13  and  S_14 
REMARK    7  A    between atoms: S_14  and  C_15 
REMARK    8  A    between atoms: C_18  and  N_19 
REMARK    9  A    between atoms: N_19  and  N_20 
REMARK   10  A    between atoms: C_21  and  C_22 
REMARK   11  A    between atoms: C_27  and  O_28 
ROOT
ATOM      1  C   UNL d   1      27.329 -12.458  -5.415  0.00  0.00     0.226 A 
ATOM      2  N   UNL d   1      26.700 -11.334  -5.062  0.00  0.00    -0.132 NA
ATOM      3  N   UNL d   1      25.534 -11.828  -4.574  0.00  0.00    -0.103 N 
ATOM      4  C   UNL d   1      25.466 -13.198  -4.644  0.00  0.00     0.739 A 
ATOM      5  N   UNL d   1      26.608 -13.606  -5.169  0.00  0.00    -0.034 NA
ATOM      6  H   UNL d   1      24.827 -11.183  -4.252  0.00  0.00     0.208 HD
ENDROOT
BRANCH   1   7
ATOM      7  S   UNL d   1      28.805 -12.479  -6.345  0.00  0.00    -0.079 SA
BRANCH   7   8
ATOM      8  C   UNL d   1      28.941 -14.123  -7.181  0.00  0.00     0.185 C 
BRANCH   8   9
ATOM      9  C   UNL d   1      29.516 -15.143  -6.147  0.00  0.00     0.231 C 
ATOM     10  N   UNL d   1      29.153 -14.995  -4.786  0.00  0.00    -0.327 N 
ATOM     11  H   UNL d   1      28.569 -14.209  -4.523  0.00  0.00     0.169 HD
ATOM     12  O   UNL d   1      30.268 -16.029  -6.523  0.00  0.00    -0.272 OA
BRANCH  10  13
ATOM     13  C   UNL d   1      29.658 -15.832  -3.722  0.00  0.00     0.034 A 
ATOM     14  C   UNL d   1      30.118 -17.140  -3.954  0.00  0.00     0.032 A 
ATOM     15  C   UNL d   1      30.509 -17.994  -2.870  0.00  0.00     0.039 A 
ATOM     16  C   UNL d   1      30.542 -17.513  -1.550  0.00  0.00     0.134 A 
ATOM     17  C   UNL d   1      30.113 -16.214  -1.336  0.00  0.00     0.039 A 
ATOM     18  C   UNL d   1      29.690 -15.406  -2.394  0.00  0.00     0.032 A 
BRANCH  16  19
ATOM     19  N   UNL d   1      31.174 -18.204  -0.357  0.00  0.00    -0.042 N 
ATOM     20  H   UNL d   1      30.417 -18.127   0.331  0.00  0.00     0.286 HD
BRANCH  19  21
ATOM     21  C   UNL d   1      31.180 -19.730  -0.521  0.00  0.00     0.237 C 
ATOM     22  C   UNL d   1      32.427 -20.300  -1.167  0.00  0.00     0.035 C 
ENDBRANCH  19  21
BRANCH  19  23
ATOM     23  C   UNL d   1      32.194 -17.328   0.351  0.00  0.00     0.237 C 
ATOM     24  C   UNL d   1      32.570 -17.777   1.746  0.00  0.00     0.035 C 
ENDBRANCH  19  23
ENDBRANCH  16  19
ENDBRANCH  10  13
ENDBRANCH   8   9
ENDBRANCH   7   8
ENDBRANCH   1   7
BRANCH   4  25
ATOM     25  N   UNL d   1      24.356 -13.909  -4.225  0.00  0.00    -0.106 N 
ATOM     26  H   UNL d   1      23.448 -13.718  -4.645  0.00  0.00     0.208 HD
BRANCH  25  27
ATOM     27  N   UNL d   1      24.394 -14.625  -3.041  0.00  0.00    -0.171 NA
ATOM     28  C   UNL d   1      25.517 -14.868  -2.436  0.00  0.00     0.153 C 
BRANCH  28  29
ATOM     29  C   UNL d   1      25.624 -16.001  -1.446  0.00  0.00     0.016 A 
ATOM     30  C   UNL d   1      26.916 -16.420  -1.069  0.00  0.00     0.016 A 
ATOM     31  C   UNL d   1      27.100 -17.538  -0.236  0.00  0.00     0.001 A 
ATOM     32  C   UNL d   1      26.004 -18.221   0.276  0.00  0.00     0.003 A 
ATOM     33  C   UNL d   1      24.724 -17.827  -0.098  0.00  0.00     0.037 A 
ATOM     34  C   UNL d   1      24.513 -16.744  -0.976  0.00  0.00     0.080 A 
BRANCH  34  35
ATOM     35  O   UNL d   1      23.178 -16.646  -1.290  0.00  0.00    -0.355 OA
ATOM     36  C   UNL d   1      22.337 -17.701  -0.883  0.00  0.00     0.210 C 
ENDBRANCH  34  35
ENDBRANCH  28  29
ENDBRANCH  25  27
ENDBRANCH   4  25
TORSDOF 11
ENDMDL
MODEL 5
REMARK VINA RESULT:    -8.221      2.420      3.647
REMARK INTER + INTRA:         -14.068
REMARK INTER:                 -11.502
REMARK INTRA:                  -2.566
REMARK CONF_INDEPENDENT:        3.281
REMARK UNBOUND:                -2.566
REMARK  11 active torsions:
REMARK  status: ('A' for Active; 'I' for Inactive)
REMARK    1  A    between atoms: C_2  and  N_3 
REMARK    2  A    between atoms: N_3  and  C_4 
REMARK    3  A    between atoms: N_3  and  C_6 
REMARK    4  A    between atoms: C_9  and  N_10 
REMARK       I    between atoms: N_10  and  C_11 
REMARK    5  A    between atoms: C_11  and  C_13 
REMARK    6  A    between atoms: C_13  and  S_14 
REMARK    7  A    between atoms: S_14  and  C_15 
REMARK    8  A    between atoms: C_18  and  N_19 
REMARK    9  A    between atoms: N_19  and  N_20 
REMARK   10  A    between atoms: C_21  and  C_22 
REMARK   11  A    between atoms: C_27  and  O_28 
ROOT
ATOM      1  C   UNL d   1      28.383 -14.544  -5.902  0.00  0.00     0.226 A 
ATOM      2  N   UNL d   1      28.420 -13.309  -5.394  0.00  0.00    -0.132 NA
ATOM      3  N   UNL d   1      27.181 -13.212  -4.849  0.00  0.00    -0.103 N 
ATOM      4  C   UNL d   1      26.427 -14.345  -5.035  0.00  0.00     0.739 A 
ATOM      5  N   UNL d   1      27.189 -15.199  -5.696  0.00  0.00    -0.034 NA
ATOM      6  H   UNL d   1      26.908 -12.345  -4.408  0.00  0.00     0.208 HD
ENDROOT
BRANCH   1   7
ATOM      7  S   UNL d   1      29.615 -15.182  -6.959  0.00  0.00    -0.079 SA
BRANCH   7   8
ATOM      8  C   UNL d   1      30.337 -16.687  -6.163  0.00  0.00     0.185 C 
BRANCH   8   9
ATOM      9  C   UNL d   1      30.010 -16.631  -4.637  0.00  0.00     0.231 C 
ATOM     10  N   UNL d   1      30.067 -15.373  -3.986  0.00  0.00    -0.327 N 
ATOM     11  H   UNL d   1      30.359 -14.564  -4.521  0.00  0.00     0.169 HD
ATOM     12  O   UNL d   1      29.728 -17.656  -4.037  0.00  0.00    -0.272 OA
BRANCH  10  13
ATOM     13  C   UNL d   1      29.845 -15.189  -2.570  0.00  0.00     0.034 A 
ATOM     14  C   UNL d   1      29.157 -14.074  -2.060  0.00  0.00     0.032 A 
ATOM     15  C   UNL d   1      29.047 -13.852  -0.648  0.00  0.00     0.039 A 
ATOM     16  C   UNL d   1      29.534 -14.796   0.271  0.00  0.00     0.134 A 
ATOM     17  C   UNL d   1      30.186 -15.905  -0.242  0.00  0.00     0.039 A 
ATOM     18  C   UNL d   1      30.330 -16.089  -1.619  0.00  0.00     0.032 A 
BRANCH  16  19
ATOM     19  N   UNL d   1      29.260 -14.825   1.763  0.00  0.00    -0.042 N 
ATOM     20  H   UNL d   1      29.374 -15.826   1.958  0.00  0.00     0.286 HD
BRANCH  19  21
ATOM     21  C   UNL d   1      30.453 -14.297   2.571  0.00  0.00     0.237 C 
ATOM     22  C   UNL d   1      30.180 -14.070   4.043  0.00  0.00     0.035 C 
ENDBRANCH  19  21
BRANCH  19  23
ATOM     23  C   UNL d   1      27.779 -14.713   2.086  0.00  0.00     0.237 C 
ATOM     24  C   UNL d   1      27.163 -13.358   1.817  0.00  0.00     0.035 C 
ENDBRANCH  19  23
ENDBRANCH  16  19
ENDBRANCH  10  13
ENDBRANCH   8   9
ENDBRANCH   7   8
ENDBRANCH   1   7
BRANCH   4  25
ATOM     25  N   UNL d   1      25.125 -14.453  -4.583  0.00  0.00    -0.106 N 
ATOM     26  H   UNL d   1      24.402 -13.857  -4.984  0.00  0.00     0.208 HD
BRANCH  25  27
ATOM     27  N   UNL d   1      24.853 -15.107  -3.394  0.00  0.00    -0.171 NA
ATOM     28  C   UNL d   1      25.682 -15.064  -2.396  0.00  0.00     0.153 C 
BRANCH  28  29
ATOM     29  C   UNL d   1      25.632 -16.113  -1.313  0.00  0.00     0.016 A 
ATOM     30  C   UNL d   1      26.857 -16.616  -0.833  0.00  0.00     0.016 A 
ATOM     31  C   UNL d   1      26.893 -17.670   0.097  0.00  0.00     0.001 A 
ATOM     32  C   UNL d   1      25.712 -18.202   0.603  0.00  0.00     0.003 A 
ATOM     33  C   UNL d   1      24.496 -17.724   0.128  0.00  0.00     0.037 A 
ATOM     34  C   UNL d   1      24.433 -16.706  -0.845  0.00  0.00     0.080 A 
BRANCH  34  35
ATOM     35  O   UNL d   1      23.130 -16.510  -1.239  0.00  0.00    -0.355 OA
ATOM     36  C   UNL d   1      22.193 -17.505  -0.893  0.00  0.00     0.210 C 
ENDBRANCH  34  35
ENDBRANCH  28  29
ENDBRANCH  25  27
ENDBRANCH   4  25
TORSDOF 11
ENDMDL
MODEL 6
REMARK VINA RESULT:    -8.000      1.604      2.301
REMARK INTER + INTRA:         -13.972
REMARK INTER:                 -11.281
REMARK INTRA:                  -2.691
REMARK CONF_INDEPENDENT:        3.281
REMARK UNBOUND:                -2.691
REMARK  11 active torsions:
REMARK  status: ('A' for Active; 'I' for Inactive)
REMARK    1  A    between atoms: C_2  and  N_3 
REMARK    2  A    between atoms: N_3  and  C_4 
REMARK    3  A    between atoms: N_3  and  C_6 
REMARK    4  A    between atoms: C_9  and  N_10 
REMARK       I    between atoms: N_10  and  C_11 
REMARK    5  A    between atoms: C_11  and  C_13 
REMARK    6  A    between atoms: C_13  and  S_14 
REMARK    7  A    between atoms: S_14  and  C_15 
REMARK    8  A    between atoms: C_18  and  N_19 
REMARK    9  A    between atoms: N_19  and  N_20 
REMARK   10  A    between atoms: C_21  and  C_22 
REMARK   11  A    between atoms: C_27  and  O_28 
ROOT
ATOM      1  C   UNL d   1      27.430 -12.844  -5.790  0.00  0.00     0.226 A 
ATOM      2  N   UNL d   1      26.915 -11.616  -5.689  0.00  0.00    -0.132 NA
ATOM      3  N   UNL d   1      25.715 -11.880  -5.115  0.00  0.00    -0.103 N 
ATOM      4  C   UNL d   1      25.515 -13.220  -4.891  0.00  0.00     0.739 A 
ATOM      5  N   UNL d   1      26.606 -13.838  -5.309  0.00  0.00    -0.034 NA
ATOM      6  H   UNL d   1      25.077 -11.116  -4.943  0.00  0.00     0.208 HD
ENDROOT
BRANCH   1   7
ATOM      7  S   UNL d   1      28.884 -13.204  -6.683  0.00  0.00    -0.079 SA
BRANCH   7   8
ATOM      8  C   UNL d   1      28.994 -15.038  -6.895  0.00  0.00     0.185 C 
BRANCH   8   9
ATOM      9  C   UNL d   1      29.608 -15.639  -5.590  0.00  0.00     0.231 C 
ATOM     10  N   UNL d   1      29.109 -15.183  -4.344  0.00  0.00    -0.327 N 
ATOM     11  H   UNL d   1      28.405 -14.454  -4.342  0.00  0.00     0.169 HD
ATOM     12  O   UNL d   1      30.502 -16.467  -5.664  0.00  0.00    -0.272 OA
BRANCH  10  13
ATOM     13  C   UNL d   1      29.627 -15.611  -3.065  0.00  0.00     0.034 A 
ATOM     14  C   UNL d   1      29.629 -16.961  -2.673  0.00  0.00     0.032 A 
ATOM     15  C   UNL d   1      30.041 -17.352  -1.356  0.00  0.00     0.039 A 
ATOM     16  C   UNL d   1      30.553 -16.408  -0.451  0.00  0.00     0.134 A 
ATOM     17  C   UNL d   1      30.572 -15.083  -0.857  0.00  0.00     0.039 A 
ATOM     18  C   UNL d   1      30.124 -14.707  -2.125  0.00  0.00     0.032 A 
BRANCH  16  19
ATOM     19  N   UNL d   1      31.262 -16.706   0.857  0.00  0.00    -0.042 N 
ATOM     20  H   UNL d   1      30.485 -17.075   1.415  0.00  0.00     0.286 HD
BRANCH  19  21
ATOM     21  C   UNL d   1      32.106 -17.985   0.766  0.00  0.00     0.237 C 
ATOM     22  C   UNL d   1      33.571 -17.765   0.446  0.00  0.00     0.035 C 
ENDBRANCH  19  21
BRANCH  19  23
ATOM     23  C   UNL d   1      31.534 -15.453   1.671  0.00  0.00     0.237 C 
ATOM     24  C   UNL d   1      32.765 -15.510   2.549  0.00  0.00     0.035 C 
ENDBRANCH  19  23
ENDBRANCH  16  19
ENDBRANCH  10  13
ENDBRANCH   8   9
ENDBRANCH   7   8
ENDBRANCH   1   7
BRANCH   4  25
ATOM     25  N   UNL d   1      24.348 -13.715  -4.338  0.00  0.00    -0.106 N 
ATOM     26  H   UNL d   1      23.449 -13.347  -4.645  0.00  0.00     0.208 HD
BRANCH  25  27
ATOM     27  N   UNL d   1      24.391 -14.450  -3.165  0.00  0.00    -0.171 NA
ATOM     28  C   UNL d   1      25.511 -14.913  -2.699  0.00  0.00     0.153 C 
BRANCH  28  29
ATOM     29  C   UNL d   1      25.518 -16.065  -1.727  0.00  0.00     0.016 A 
ATOM     30  C   UNL d   1      24.469 -17.002  -1.816  0.00  0.00     0.016 A 
ATOM     31  C   UNL d   1      24.346 -18.043  -0.878  0.00  0.00     0.001 A 
ATOM     32  C   UNL d   1      25.292 -18.198   0.128  0.00  0.00     0.003 A 
ATOM     33  C   UNL d   1      26.325 -17.273   0.236  0.00  0.00     0.037 A 
ATOM     34  C   UNL d   1      26.440 -16.188  -0.658  0.00  0.00     0.080 A 
BRANCH  34  35
ATOM     35  O   UNL d   1      27.456 -15.354  -0.257  0.00  0.00    -0.355 OA
ATOM     36  C   UNL d   1      27.783 -15.343   1.114  0.00  0.00     0.210 C 
ENDBRANCH  34  35
ENDBRANCH  28  29
ENDBRANCH  25  27
ENDBRANCH   4  25
TORSDOF 11
ENDMDL
MODEL 7
REMARK VINA RESULT:    -7.992      2.412      3.362
REMARK INTER + INTRA:         -14.171
REMARK INTER:                 -11.274
REMARK INTRA:                  -2.897
REMARK CONF_INDEPENDENT:        3.281
REMARK UNBOUND:                -2.897
REMARK  11 active torsions:
REMARK  status: ('A' for Active; 'I' for Inactive)
REMARK    1  A    between atoms: C_2  and  N_3 
REMARK    2  A    between atoms: N_3  and  C_4 
REMARK    3  A    between atoms: N_3  and  C_6 
REMARK    4  A    between atoms: C_9  and  N_10 
REMARK       I    between atoms: N_10  and  C_11 
REMARK    5  A    between atoms: C_11  and  C_13 
REMARK    6  A    between atoms: C_13  and  S_14 
REMARK    7  A    between atoms: S_14  and  C_15 
REMARK    8  A    between atoms: C_18  and  N_19 
REMARK    9  A    between atoms: N_19  and  N_20 
REMARK   10  A    between atoms: C_21  and  C_22 
REMARK   11  A    between atoms: C_27  and  O_28 
ROOT
ATOM      1  C   UNL d   1      27.776 -13.936  -6.006  0.00  0.00     0.226 A 
ATOM      2  N   UNL d   1      27.397 -15.217  -5.995  0.00  0.00    -0.132 NA
ATOM      3  N   UNL d   1      26.234 -15.141  -5.301  0.00  0.00    -0.103 N 
ATOM      4  C   UNL d   1      25.934 -13.861  -4.902  0.00  0.00     0.739 A 
ATOM      5  N   UNL d   1      26.906 -13.089  -5.355  0.00  0.00    -0.034 NA
ATOM      6  H   UNL d   1      25.725 -15.992  -5.107  0.00  0.00     0.208 HD
ENDROOT
BRANCH   1   7
ATOM      7  S   UNL d   1      29.345 -13.405  -6.550  0.00  0.00    -0.079 SA
BRANCH   7   8
ATOM      8  C   UNL d   1      30.576 -14.725  -6.145  0.00  0.00     0.185 C 
BRANCH   8   9
ATOM      9  C   UNL d   1      30.732 -14.779  -4.591  0.00  0.00     0.231 C 
ATOM     10  N   UNL d   1      29.556 -14.798  -3.801  0.00  0.00    -0.327 N 
ATOM     11  H   UNL d   1      28.658 -14.732  -4.266  0.00  0.00     0.169 HD
ATOM     12  O   UNL d   1      31.846 -14.791  -4.093  0.00  0.00    -0.272 OA
BRANCH  10  13
ATOM     13  C   UNL d   1      29.558 -14.789  -2.356  0.00  0.00     0.034 A 
ATOM     14  C   UNL d   1      30.518 -15.489  -1.605  0.00  0.00     0.032 A 
ATOM     15  C   UNL d   1      30.435 -15.561  -0.175  0.00  0.00     0.039 A 
ATOM     16  C   UNL d   1      29.450 -14.847   0.527  0.00  0.00     0.134 A 
ATOM     17  C   UNL d   1      28.525 -14.137  -0.222  0.00  0.00     0.039 A 
ATOM     18  C   UNL d   1      28.587 -14.112  -1.617  0.00  0.00     0.032 A 
BRANCH  16  19
ATOM     19  N   UNL d   1      29.401 -14.617   2.025  0.00  0.00    -0.042 N 
ATOM     20  H   UNL d   1      29.259 -15.575   2.361  0.00  0.00     0.286 HD
BRANCH  19  21
ATOM     21  C   UNL d   1      30.799 -14.374   2.610  0.00  0.00     0.237 C 
ATOM     22  C   UNL d   1      31.340 -12.972   2.416  0.00  0.00     0.035 C 
ENDBRANCH  19  21
BRANCH  19  23
ATOM     23  C   UNL d   1      28.074 -14.034   2.482  0.00  0.00     0.237 C 
ATOM     24  C   UNL d   1      27.764 -14.213   3.952  0.00  0.00     0.035 C 
ENDBRANCH  19  23
ENDBRANCH  16  19
ENDBRANCH  10  13
ENDBRANCH   8   9
ENDBRANCH   7   8
ENDBRANCH   1   7
BRANCH   4  25
ATOM     25  N   UNL d   1      24.807 -13.559  -4.159  0.00  0.00    -0.106 N 
ATOM     26  H   UNL d   1      24.367 -12.646  -4.261  0.00  0.00     0.208 HD
BRANCH  25  27
ATOM     27  N   UNL d   1      24.467 -14.334  -3.063  0.00  0.00    -0.171 NA
ATOM     28  C   UNL d   1      25.371 -14.970  -2.381  0.00  0.00     0.153 C 
BRANCH  28  29
ATOM     29  C   UNL d   1      24.991 -16.146  -1.517  0.00  0.00     0.016 A 
ATOM     30  C   UNL d   1      23.618 -16.409  -1.339  0.00  0.00     0.016 A 
ATOM     31  C   UNL d   1      23.182 -17.420  -0.463  0.00  0.00     0.001 A 
ATOM     32  C   UNL d   1      24.104 -18.215   0.207  0.00  0.00     0.003 A 
ATOM     33  C   UNL d   1      25.461 -17.957   0.051  0.00  0.00     0.037 A 
ATOM     34  C   UNL d   1      25.923 -16.915  -0.778  0.00  0.00     0.080 A 
BRANCH  34  35
ATOM     35  O   UNL d   1      27.287 -16.785  -0.655  0.00  0.00    -0.355 OA
ATOM     36  C   UNL d   1      28.001 -17.893  -0.155  0.00  0.00     0.210 C 
ENDBRANCH  34  35
ENDBRANCH  28  29
ENDBRANCH  25  27
ENDBRANCH   4  25
TORSDOF 11
ENDMDL
MODEL 8
REMARK VINA RESULT:    -7.593      3.730      5.245
REMARK INTER + INTRA:         -13.942
REMARK INTER:                 -10.875
REMARK INTRA:                  -3.068
REMARK CONF_INDEPENDENT:        3.281
REMARK UNBOUND:                -3.068
REMARK  11 active torsions:
REMARK  status: ('A' for Active; 'I' for Inactive)
REMARK    1  A    between atoms: C_2  and  N_3 
REMARK    2  A    between atoms: N_3  and  C_4 
REMARK    3  A    between atoms: N_3  and  C_6 
REMARK    4  A    between atoms: C_9  and  N_10 
REMARK       I    between atoms: N_10  and  C_11 
REMARK    5  A    between atoms: C_11  and  C_13 
REMARK    6  A    between atoms: C_13  and  S_14 
REMARK    7  A    between atoms: S_14  and  C_15 
REMARK    8  A    between atoms: C_18  and  N_19 
REMARK    9  A    between atoms: N_19  and  N_20 
REMARK   10  A    between atoms: C_21  and  C_22 
REMARK   11  A    between atoms: C_27  and  O_28 
ROOT
ATOM      1  C   UNL d   1      29.261 -16.045  -3.329  0.00  0.00     0.226 A 
ATOM      2  N   UNL d   1      30.515 -16.407  -3.047  0.00  0.00    -0.132 NA
ATOM      3  N   UNL d   1      30.344 -17.053  -1.867  0.00  0.00    -0.103 N 
ATOM      4  C   UNL d   1      29.034 -17.068  -1.453  0.00  0.00     0.739 A 
ATOM      5  N   UNL d   1      28.339 -16.436  -2.383  0.00  0.00    -0.034 NA
ATOM      6  H   UNL d   1      31.154 -17.420  -1.388  0.00  0.00     0.208 HD
ENDROOT
BRANCH   1   7
ATOM      7  S   UNL d   1      28.846 -14.952  -4.624  0.00  0.00    -0.079 SA
BRANCH   7   8
ATOM      8  C   UNL d   1      28.318 -13.345  -3.878  0.00  0.00     0.185 C 
BRANCH   8   9
ATOM      9  C   UNL d   1      28.692 -13.369  -2.362  0.00  0.00     0.231 C 
ATOM     10  N   UNL d   1      27.914 -14.174  -1.493  0.00  0.00    -0.327 N 
ATOM     11  H   UNL d   1      27.117 -14.670  -1.876  0.00  0.00     0.169 HD
ATOM     12  O   UNL d   1      29.625 -12.695  -1.956  0.00  0.00    -0.272 OA
BRANCH  10  13
ATOM     13  C   UNL d   1      28.115 -14.242  -0.064  0.00  0.00     0.034 A 
ATOM     14  C   UNL d   1      27.059 -14.078   0.849  0.00  0.00     0.032 A 
ATOM     15  C   UNL d   1      27.297 -14.035   2.262  0.00  0.00     0.039 A 
ATOM     16  C   UNL d   1      28.582 -14.260   2.783  0.00  0.00     0.134 A 
ATOM     17  C   UNL d   1      29.612 -14.448   1.876  0.00  0.00     0.039 A 
ATOM     18  C   UNL d   1      29.376 -14.441   0.500  0.00  0.00     0.032 A 
BRANCH  16  19
ATOM     19  N   UNL d   1      28.933 -14.505   4.239  0.00  0.00    -0.042 N 
ATOM     20  H   UNL d   1      28.995 -15.528   4.251  0.00  0.00     0.286 HD
BRANCH  19  21
ATOM     21  C   UNL d   1      30.405 -14.182   4.530  0.00  0.00     0.237 C 
ATOM     22  C   UNL d   1      30.784 -12.723   4.377  0.00  0.00     0.035 C 
ENDBRANCH  19  21
BRANCH  19  23
ATOM     23  C   UNL d   1      27.735 -14.353   5.161  0.00  0.00     0.237 C 
ATOM     24  C   UNL d   1      27.647 -13.031   5.890  0.00  0.00     0.035 C 
ENDBRANCH  19  23
ENDBRANCH  16  19
ENDBRANCH  10  13
ENDBRANCH   8   9
ENDBRANCH   7   8
ENDBRANCH   1   7
BRANCH   4  25
ATOM     25  N   UNL d   1      28.637 -17.651  -0.264  0.00  0.00    -0.106 N 
ATOM     26  H   UNL d   1      29.269 -18.284   0.222  0.00  0.00     0.208 HD
BRANCH  25  27
ATOM     27  N   UNL d   1      27.301 -17.650   0.100  0.00  0.00    -0.171 NA
ATOM     28  C   UNL d   1      26.397 -18.204  -0.650  0.00  0.00     0.153 C 
BRANCH  28  29
ATOM     29  C   UNL d   1      24.947 -17.814  -0.516  0.00  0.00     0.016 A 
ATOM     30  C   UNL d   1      24.031 -18.820  -0.145  0.00  0.00     0.016 A 
ATOM     31  C   UNL d   1      22.649 -18.562  -0.103  0.00  0.00     0.001 A 
ATOM     32  C   UNL d   1      22.163 -17.289  -0.377  0.00  0.00     0.003 A 
ATOM     33  C   UNL d   1      23.054 -16.291  -0.757  0.00  0.00     0.037 A 
ATOM     34  C   UNL d   1      24.438 -16.538  -0.860  0.00  0.00     0.080 A 
BRANCH  34  35
ATOM     35  O   UNL d   1      25.076 -15.435  -1.379  0.00  0.00    -0.355 OA
ATOM     36  C   UNL d   1      25.197 -15.357  -2.781  0.00  0.00     0.210 C 
ENDBRANCH  34  35
ENDBRANCH  28  29
ENDBRANCH  25  27
ENDBRANCH   4  25
TORSDOF 11
ENDMDL
MODEL 9
REMARK VINA RESULT:    -7.306      2.303      6.095
REMARK INTER + INTRA:         -13.982
REMARK INTER:                 -10.587
REMARK INTRA:                  -3.395
REMARK CONF_INDEPENDENT:        3.281
REMARK UNBOUND:                -3.395
REMARK  11 active torsions:
REMARK  status: ('A' for Active; 'I' for Inactive)
REMARK    1  A    between atoms: C_2  and  N_3 
REMARK    2  A    between atoms: N_3  and  C_4 
REMARK    3  A    between atoms: N_3  and  C_6 
REMARK    4  A    between atoms: C_9  and  N_10 
REMARK       I    between atoms: N_10  and  C_11 
REMARK    5  A    between atoms: C_11  and  C_13 
REMARK    6  A    between atoms: C_13  and  S_14 
REMARK    7  A    between atoms: S_14  and  C_15 
REMARK    8  A    between atoms: C_18  and  N_19 
REMARK    9  A    between atoms: N_19  and  N_20 
REMARK   10  A    between atoms: C_21  and  C_22 
REMARK   11  A    between atoms: C_27  and  O_28 
ROOT
ATOM      1  C   UNL d   1      31.752 -19.655  -2.200  0.00  0.00     0.226 A 
ATOM      2  N   UNL d   1      31.273 -20.566  -1.348  0.00  0.00    -0.132 NA
ATOM      3  N   UNL d   1      30.527 -19.789  -0.524  0.00  0.00    -0.103 N 
ATOM      4  C   UNL d   1      30.567 -18.458  -0.866  0.00  0.00     0.739 A 
ATOM      5  N   UNL d   1      31.338 -18.369  -1.936  0.00  0.00    -0.034 NA
ATOM      6  H   UNL d   1      30.057 -20.218   0.259  0.00  0.00     0.208 HD
ENDROOT
BRANCH   1   7
ATOM      7  S   UNL d   1      32.995 -20.001  -3.374  0.00  0.00    -0.079 SA
BRANCH   7   8
ATOM      8  C   UNL d   1      32.181 -20.301  -5.008  0.00  0.00     0.185 C 
BRANCH   8   9
ATOM      9  C   UNL d   1      31.021 -19.267  -5.166  0.00  0.00     0.231 C 
ATOM     10  N   UNL d   1      31.153 -18.009  -4.528  0.00  0.00    -0.327 N 
ATOM     11  H   UNL d   1      31.973 -17.839  -3.957  0.00  0.00     0.169 HD
ATOM     12  O   UNL d   1      30.030 -19.561  -5.815  0.00  0.00    -0.272 OA
BRANCH  10  13
ATOM     13  C   UNL d   1      30.132 -16.986  -4.544  0.00  0.00     0.034 A 
ATOM     14  C   UNL d   1      29.776 -16.305  -5.721  0.00  0.00     0.032 A 
ATOM     15  C   UNL d   1      28.843 -15.216  -5.696  0.00  0.00     0.039 A 
ATOM     16  C   UNL d   1      28.178 -14.864  -4.509  0.00  0.00     0.134 A 
ATOM     17  C   UNL d   1      28.516 -15.560  -3.360  0.00  0.00     0.039 A 
ATOM     18  C   UNL d   1      29.461 -16.588  -3.387  0.00  0.00     0.032 A 
BRANCH  16  19
ATOM     19  N   UNL d   1      26.991 -13.927  -4.386  0.00  0.00    -0.042 N 
ATOM     20  H   UNL d   1      26.934 -13.824  -3.368  0.00  0.00     0.286 HD
BRANCH  19  21
ATOM     21  C   UNL d   1      27.370 -12.482  -4.741  0.00  0.00     0.237 C 
ATOM     22  C   UNL d   1      27.469 -11.538  -3.561  0.00  0.00     0.035 C 
ENDBRANCH  19  21
BRANCH  19  23
ATOM     23  C   UNL d   1      25.665 -14.634  -4.603  0.00  0.00     0.237 C 
ATOM     24  C   UNL d   1      24.437 -13.816  -4.268  0.00  0.00     0.035 C 
ENDBRANCH  19  23
ENDBRANCH  16  19
ENDBRANCH  10  13
ENDBRANCH   8   9
ENDBRANCH   7   8
ENDBRANCH   1   7
BRANCH   4  25
ATOM     25  N   UNL d   1      29.900 -17.485  -0.145  0.00  0.00    -0.106 N 
ATOM     26  H   UNL d   1      30.213 -17.252   0.796  0.00  0.00     0.208 HD
BRANCH  25  27
ATOM     27  N   UNL d   1      28.641 -17.067  -0.541  0.00  0.00    -0.171 NA
ATOM     28  C   UNL d   1      27.637 -17.076   0.284  0.00  0.00     0.153 C 
BRANCH  28  29
ATOM     29  C   UNL d   1      26.221 -17.077  -0.234  0.00  0.00     0.016 A 
ATOM     30  C   UNL d   1      25.420 -18.199   0.057  0.00  0.00     0.016 A 
ATOM     31  C   UNL d   1      24.125 -18.325  -0.480  0.00  0.00     0.001 A 
ATOM     32  C   UNL d   1      23.591 -17.314  -1.270  0.00  0.00     0.003 A 
ATOM     33  C   UNL d   1      24.376 -16.208  -1.577  0.00  0.00     0.037 A 
ATOM     34  C   UNL d   1      25.696 -16.083  -1.096  0.00  0.00     0.080 A 
BRANCH  34  35
ATOM     35  O   UNL d   1      26.295 -14.975  -1.648  0.00  0.00    -0.355 OA
ATOM     36  C   UNL d   1      26.664 -13.934  -0.771  0.00  0.00     0.210 C 
ENDBRANCH  34  35
ENDBRANCH  28  29
ENDBRANCH  25  27
ENDBRANCH   4  25
TORSDOF 11
ENDMDL
