MODEL 1
REMARK VINA RESULT:    -7.369      0.000      0.000
REMARK INTER + INTRA:         -11.731
REMARK INTER:                  -9.457
REMARK INTRA:                  -2.273
REMARK CONF_INDEPENDENT:        2.088
REMARK UNBOUND:                -2.273
REMARK  7 active torsions:
REMARK  status: ('A' for Active; 'I' for Inactive)
REMARK    1  A    between atoms: N_2  and  C_4 
REMARK    2  A    between atoms: C_5  and  N_6 
REMARK    3  A    between atoms: N_6  and  C_7 
REMARK    4  A    between atoms: C_7  and  C_8 
REMARK    5  A    between atoms: C_8  and  O_9 
REMARK    6  A    between atoms: C_11  and  N_12 
REMARK    7  A    between atoms: N_15  and  C_16 
ROOT
ATOM      1  C   UNL d   1      28.013 -15.039  -1.615  0.00  0.00     0.162 A 
ATOM      2  C   UNL d   1      27.876 -15.683  -0.362  0.00  0.00     0.066 A 
ATOM      3  C   UNL d   1      26.615 -16.292  -0.048  0.00  0.00     0.063 A 
ATOM      4  C   UNL d   1      25.463 -16.366  -0.881  0.00  0.00     0.066 A 
ATOM      5  C   UNL d   1      25.659 -15.708  -2.128  0.00  0.00     0.146 A 
ATOM      6  N   UNL d   1      24.802 -15.563  -3.150  0.00  0.00    -0.101 NA
ATOM      7  O   UNL d   1      25.471 -14.827  -4.110  0.00  0.00    -0.106 OA
ATOM      8  N   UNL d   1      26.764 -14.539  -3.725  0.00  0.00    -0.100 NA
ATOM      9  C   UNL d   1      26.914 -15.044  -2.493  0.00  0.00     0.155 A 
ENDROOT
BRANCH   4  10
ATOM     10  N   UNL d   1      24.353 -17.083  -0.468  0.00  0.00    -0.376 N 
ATOM     11  C   UNL d   1      23.084 -16.420  -0.145  0.00  0.00     0.143 C 
ATOM     12  C   UNL d   1      21.934 -17.168  -0.895  0.00  0.00     0.144 C 
ATOM     13  N   UNL d   1      21.954 -18.618  -0.588  0.00  0.00    -0.364 N 
ATOM     14  C   UNL d   1      23.275 -19.269  -0.800  0.00  0.00     0.144 C 
ATOM     15  C   UNL d   1      24.424 -18.502  -0.094  0.00  0.00     0.143 C 
BRANCH  13  16
ATOM     16  C   UNL d   1      20.897 -19.312  -0.065  0.00  0.00     0.102 A 
ATOM     17  C   UNL d   1      19.781 -19.708  -0.813  0.00  0.00     0.048 A 
ATOM     18  C   UNL d   1      18.629 -20.177  -0.176  0.00  0.00     0.005 A 
ATOM     19  C   UNL d   1      18.626 -20.333   1.202  0.00  0.00     0.017 A 
ATOM     20  C   UNL d   1      19.792 -20.058   1.900  0.00  0.00     0.089 A 
ATOM     21  N   UNL d   1      20.856 -19.538   1.261  0.00  0.00    -0.352 N 
ATOM     22  H   UNL d   1      21.661 -19.235   1.800  0.00  0.00     0.166 HD
ENDBRANCH  13  16
ENDBRANCH   4  10
BRANCH   2  23
ATOM     23  N   UNL d   1      28.891 -15.632   0.600  0.00  0.00    -0.386 N 
ATOM     24  H   UNL d   1      29.218 -16.527   0.978  0.00  0.00     0.159 HD
BRANCH  23  25
ATOM     25  C   UNL d   1      29.102 -14.468   1.450  0.00  0.00     0.146 C 
BRANCH  25  26
ATOM     26  C   UNL d   1      30.562 -14.020   1.461  0.00  0.00     0.183 C 
BRANCH  26  27
ATOM     27  O   UNL d   1      31.034 -13.881   0.123  0.00  0.00    -0.399 OA
ATOM     28  H   UNL d   1      30.296 -14.096  -0.474  0.00  0.00     0.209 HD
ENDBRANCH  26  27
ENDBRANCH  25  26
ENDBRANCH  23  25
ENDBRANCH   2  23
BRANCH   1  29
ATOM     29  N   UNL d   1      29.247 -14.446  -2.059  0.00  0.00    -0.111 N 
ATOM     30  O   UNL d   1      29.265 -13.216  -2.185  0.00  0.00    -0.532 OA
ATOM     31  O   UNL d   1      30.192 -15.205  -2.330  0.00  0.00    -0.532 OA
ENDBRANCH   1  29
TORSDOF 7
ENDMDL
MODEL 2
REMARK VINA RESULT:    -7.113      1.430      1.584
REMARK INTER + INTRA:         -12.166
REMARK INTER:                  -9.201
REMARK INTRA:                  -2.965
REMARK CONF_INDEPENDENT:        2.088
REMARK UNBOUND:                -2.965
REMARK  7 active torsions:
REMARK  status: ('A' for Active; 'I' for Inactive)
REMARK    1  A    between atoms: N_2  and  C_4 
REMARK    2  A    between atoms: C_5  and  N_6 
REMARK    3  A    between atoms: N_6  and  C_7 
REMARK    4  A    between atoms: C_7  and  C_8 
REMARK    5  A    between atoms: C_8  and  O_9 
REMARK    6  A    between atoms: C_11  and  N_12 
REMARK    7  A    between atoms: N_15  and  C_16 
ROOT
ATOM      1  C   UNL d   1      27.683 -15.019  -2.491  0.00  0.00     0.162 A 
ATOM      2  C   UNL d   1      27.831 -16.001  -1.484  0.00  0.00     0.066 A 
ATOM      3  C   UNL d   1      26.644 -16.592  -0.934  0.00  0.00     0.063 A 
ATOM      4  C   UNL d   1      25.297 -16.331  -1.316  0.00  0.00     0.066 A 
ATOM      5  C   UNL d   1      25.209 -15.342  -2.334  0.00  0.00     0.146 A 
ATOM      6  N   UNL d   1      24.117 -14.836  -2.928  0.00  0.00    -0.101 NA
ATOM      7  O   UNL d   1      24.573 -13.890  -3.827  0.00  0.00    -0.106 OA
ATOM      8  N   UNL d   1      25.950 -13.819  -3.841  0.00  0.00    -0.100 NA
ATOM      9  C   UNL d   1      26.384 -14.683  -2.914  0.00  0.00     0.155 A 
ENDROOT
BRANCH   4  10
ATOM     10  N   UNL d   1      24.265 -17.064  -0.756  0.00  0.00    -0.376 N 
ATOM     11  C   UNL d   1      23.011 -16.429  -0.332  0.00  0.00     0.143 C 
ATOM     12  C   UNL d   1      21.819 -17.252  -0.923  0.00  0.00     0.144 C 
ATOM     13  N   UNL d   1      21.927 -18.683  -0.554  0.00  0.00    -0.364 N 
ATOM     14  C   UNL d   1      23.243 -19.300  -0.874  0.00  0.00     0.144 C 
ATOM     15  C   UNL d   1      24.428 -18.460  -0.327  0.00  0.00     0.143 C 
BRANCH  13  16
ATOM     16  C   UNL d   1      20.957 -19.386   0.108  0.00  0.00     0.102 A 
ATOM     17  C   UNL d   1      19.888 -20.027  -0.532  0.00  0.00     0.048 A 
ATOM     18  C   UNL d   1      18.800 -20.499   0.206  0.00  0.00     0.005 A 
ATOM     19  C   UNL d   1      18.821 -20.410   1.590  0.00  0.00     0.017 A 
ATOM     20  C   UNL d   1      19.953 -19.891   2.200  0.00  0.00     0.089 A 
ATOM     21  N   UNL d   1      20.949 -19.378   1.454  0.00  0.00    -0.352 N 
ATOM     22  H   UNL d   1      21.717 -18.899   1.912  0.00  0.00     0.166 HD
ENDBRANCH  13  16
ENDBRANCH   4  10
BRANCH   2  23
ATOM     23  N   UNL d   1      29.085 -16.313  -0.945  0.00  0.00    -0.386 N 
ATOM     24  H   UNL d   1      29.770 -15.552  -0.894  0.00  0.00     0.159 HD
BRANCH  23  25
ATOM     25  C   UNL d   1      29.633 -17.661  -0.975  0.00  0.00     0.146 C 
BRANCH  25  26
ATOM     26  C   UNL d   1      31.023 -17.706  -1.605  0.00  0.00     0.183 C 
BRANCH  26  27
ATOM     27  O   UNL d   1      31.588 -16.398  -1.620  0.00  0.00    -0.399 OA
ATOM     28  H   UNL d   1      30.959 -15.810  -2.075  0.00  0.00     0.209 HD
ENDBRANCH  26  27
ENDBRANCH  25  26
ENDBRANCH  23  25
ENDBRANCH   2  23
BRANCH   1  29
ATOM     29  N   UNL d   1      28.804 -14.402  -3.154  0.00  0.00    -0.111 N 
ATOM     30  O   UNL d   1      28.690 -14.187  -4.366  0.00  0.00    -0.532 OA
ATOM     31  O   UNL d   1      29.821 -14.172  -2.480  0.00  0.00    -0.532 OA
ENDBRANCH   1  29
TORSDOF 7
ENDMDL
MODEL 3
REMARK VINA RESULT:    -5.935      8.624     10.513
REMARK INTER + INTRA:         -10.811
REMARK INTER:                  -8.023
REMARK INTRA:                  -2.788
REMARK CONF_INDEPENDENT:        2.088
REMARK UNBOUND:                -2.788
REMARK  7 active torsions:
REMARK  status: ('A' for Active; 'I' for Inactive)
REMARK    1  A    between atoms: N_2  and  C_4 
REMARK    2  A    between atoms: C_5  and  N_6 
REMARK    3  A    between atoms: N_6  and  C_7 
REMARK    4  A    between atoms: C_7  and  C_8 
REMARK    5  A    between atoms: C_8  and  O_9 
REMARK    6  A    between atoms: C_11  and  N_12 
REMARK    7  A    between atoms: N_15  and  C_16 
ROOT
ATOM      1  C   UNL d   1      31.980 -21.219   4.644  0.00  0.00     0.162 A 
ATOM      2  C   UNL d   1      33.138 -20.848   3.920  0.00  0.00     0.066 A 
ATOM      3  C   UNL d   1      33.078 -20.874   2.486  0.00  0.00     0.063 A 
ATOM      4  C   UNL d   1      31.952 -21.200   1.678  0.00  0.00     0.066 A 
ATOM      5  C   UNL d   1      30.817 -21.560   2.456  0.00  0.00     0.146 A 
ATOM      6  N   UNL d   1      29.596 -21.934   2.047  0.00  0.00    -0.101 NA
ATOM      7  O   UNL d   1      28.870 -22.196   3.194  0.00  0.00    -0.106 OA
ATOM      8  N   UNL d   1      29.607 -21.950   4.334  0.00  0.00    -0.100 NA
ATOM      9  C   UNL d   1      30.827 -21.578   3.923  0.00  0.00     0.155 A 
ENDROOT
BRANCH   4  10
ATOM     10  N   UNL d   1      32.029 -21.078   0.301  0.00  0.00    -0.376 N 
ATOM     11  C   UNL d   1      32.210 -22.248  -0.567  0.00  0.00     0.143 C 
ATOM     12  C   UNL d   1      31.147 -22.179  -1.713  0.00  0.00     0.144 C 
ATOM     13  N   UNL d   1      31.216 -20.881  -2.424  0.00  0.00    -0.364 N 
ATOM     14  C   UNL d   1      31.153 -19.691  -1.533  0.00  0.00     0.144 C 
ATOM     15  C   UNL d   1      32.177 -19.779  -0.370  0.00  0.00     0.143 C 
BRANCH  13  16
ATOM     16  C   UNL d   1      31.412 -20.748  -3.772  0.00  0.00     0.102 A 
ATOM     17  C   UNL d   1      31.085 -19.593  -4.495  0.00  0.00     0.048 A 
ATOM     18  C   UNL d   1      31.064 -19.613  -5.892  0.00  0.00     0.005 A 
ATOM     19  C   UNL d   1      31.456 -20.761  -6.566  0.00  0.00     0.017 A 
ATOM     20  C   UNL d   1      31.903 -21.842  -5.822  0.00  0.00     0.089 A 
ATOM     21  N   UNL d   1      31.838 -21.812  -4.478  0.00  0.00    -0.352 N 
ATOM     22  H   UNL d   1      32.059 -22.650  -3.950  0.00  0.00     0.166 HD
ENDBRANCH  13  16
ENDBRANCH   4  10
BRANCH   2  23
ATOM     23  N   UNL d   1      34.349 -20.575   4.567  0.00  0.00    -0.386 N 
ATOM     24  H   UNL d   1      34.496 -21.015   5.481  0.00  0.00     0.159 HD
BRANCH  23  25
ATOM     25  C   UNL d   1      35.111 -19.360   4.316  0.00  0.00     0.146 C 
BRANCH  25  26
ATOM     26  C   UNL d   1      35.995 -18.978   5.502  0.00  0.00     0.183 C 
BRANCH  26  27
ATOM     27  O   UNL d   1      35.650 -19.770   6.635  0.00  0.00    -0.399 OA
ATOM     28  H   UNL d   1      34.681 -19.867   6.644  0.00  0.00     0.209 HD
ENDBRANCH  26  27
ENDBRANCH  25  26
ENDBRANCH  23  25
ENDBRANCH   2  23
BRANCH   1  29
ATOM     29  N   UNL d   1      31.908 -21.173   6.081  0.00  0.00    -0.111 N 
ATOM     30  O   UNL d   1      32.979 -21.198   6.698  0.00  0.00    -0.532 OA
ATOM     31  O   UNL d   1      30.783 -21.161   6.606  0.00  0.00    -0.532 OA
ENDBRANCH   1  29
TORSDOF 7
ENDMDL
MODEL 4
REMARK VINA RESULT:    -5.857      5.132      7.015
REMARK INTER + INTRA:         -10.798
REMARK INTER:                  -7.945
REMARK INTRA:                  -2.853
REMARK CONF_INDEPENDENT:        2.088
REMARK UNBOUND:                -2.853
REMARK  7 active torsions:
REMARK  status: ('A' for Active; 'I' for Inactive)
REMARK    1  A    between atoms: N_2  and  C_4 
REMARK    2  A    between atoms: C_5  and  N_6 
REMARK    3  A    between atoms: N_6  and  C_7 
REMARK    4  A    between atoms: C_7  and  C_8 
REMARK    5  A    between atoms: C_8  and  O_9 
REMARK    6  A    between atoms: C_11  and  N_12 
REMARK    7  A    between atoms: N_15  and  C_16 
ROOT
ATOM      1  C   UNL d   1      27.689 -14.928  -4.394  0.00  0.00     0.162 A 
ATOM      2  C   UNL d   1      28.856 -14.953  -3.596  0.00  0.00     0.066 A 
ATOM      3  C   UNL d   1      28.714 -14.758  -2.181  0.00  0.00     0.063 A 
ATOM      4  C   UNL d   1      27.503 -14.575  -1.455  0.00  0.00     0.066 A 
ATOM      5  C   UNL d   1      26.362 -14.564  -2.306  0.00  0.00     0.146 A 
ATOM      6  N   UNL d   1      25.070 -14.406  -1.984  0.00  0.00    -0.101 NA
ATOM      7  O   UNL d   1      24.370 -14.449  -3.175  0.00  0.00    -0.106 OA
ATOM      8  N   UNL d   1      25.202 -14.677  -4.251  0.00  0.00    -0.100 NA
ATOM      9  C   UNL d   1      26.449 -14.730  -3.761  0.00  0.00     0.155 A 
ENDROOT
BRANCH   4  10
ATOM     10  N   UNL d   1      27.527 -14.503  -0.073  0.00  0.00    -0.376 N 
ATOM     11  C   UNL d   1      28.321 -15.438   0.733  0.00  0.00     0.143 C 
ATOM     12  C   UNL d   1      29.159 -14.610   1.763  0.00  0.00     0.144 C 
ATOM     13  N   UNL d   1      28.288 -13.715   2.559  0.00  0.00    -0.364 N 
ATOM     14  C   UNL d   1      27.393 -12.849   1.744  0.00  0.00     0.144 C 
ATOM     15  C   UNL d   1      26.595 -13.663   0.692  0.00  0.00     0.143 C 
BRANCH  13  16
ATOM     16  C   UNL d   1      28.217 -13.719   3.925  0.00  0.00     0.102 A 
ATOM     17  C   UNL d   1      27.787 -12.624   4.686  0.00  0.00     0.048 A 
ATOM     18  C   UNL d   1      27.984 -12.598   6.069  0.00  0.00     0.005 A 
ATOM     19  C   UNL d   1      28.530 -13.705   6.702  0.00  0.00     0.017 A 
ATOM     20  C   UNL d   1      28.821 -14.825   5.938  0.00  0.00     0.089 A 
ATOM     21  N   UNL d   1      28.687 -14.785   4.600  0.00  0.00    -0.352 N 
ATOM     22  H   UNL d   1      29.011 -15.569   4.044  0.00  0.00     0.166 HD
ENDBRANCH  13  16
ENDBRANCH   4  10
BRANCH   2  23
ATOM     23  N   UNL d   1      30.131 -15.045  -4.167  0.00  0.00    -0.386 N 
ATOM     24  H   UNL d   1      30.276 -14.560  -5.058  0.00  0.00     0.159 HD
BRANCH  23  25
ATOM     25  C   UNL d   1      31.028 -16.159  -3.896  0.00  0.00     0.146 C 
BRANCH  25  26
ATOM     26  C   UNL d   1      31.374 -16.943  -5.161  0.00  0.00     0.183 C 
BRANCH  26  27
ATOM     27  O   UNL d   1      30.927 -16.227  -6.309  0.00  0.00    -0.399 OA
ATOM     28  H   UNL d   1      30.048 -15.860  -6.105  0.00  0.00     0.209 HD
ENDBRANCH  26  27
ENDBRANCH  25  26
ENDBRANCH  23  25
ENDBRANCH   2  23
BRANCH   1  29
ATOM     29  N   UNL d   1      27.706 -15.169  -5.814  0.00  0.00    -0.111 N 
ATOM     30  O   UNL d   1      28.754 -14.907  -6.415  0.00  0.00    -0.532 OA
ATOM     31  O   UNL d   1      26.660 -15.575  -6.346  0.00  0.00    -0.532 OA
ENDBRANCH   1  29
TORSDOF 7
ENDMDL
MODEL 5
REMARK VINA RESULT:    -5.838      4.614      7.793
REMARK INTER + INTRA:         -10.737
REMARK INTER:                  -7.926
REMARK INTRA:                  -2.811
REMARK CONF_INDEPENDENT:        2.088
REMARK UNBOUND:                -2.811
REMARK  7 active torsions:
REMARK  status: ('A' for Active; 'I' for Inactive)
REMARK    1  A    between atoms: N_2  and  C_4 
REMARK    2  A    between atoms: C_5  and  N_6 
REMARK    3  A    between atoms: N_6  and  C_7 
REMARK    4  A    between atoms: C_7  and  C_8 
REMARK    5  A    between atoms: C_8  and  O_9 
REMARK    6  A    between atoms: C_11  and  N_12 
REMARK    7  A    between atoms: N_15  and  C_16 
ROOT
ATOM      1  C   UNL d   1      25.665 -14.415  -2.832  0.00  0.00     0.162 A 
ATOM      2  C   UNL d   1      26.086 -13.138  -2.393  0.00  0.00     0.066 A 
ATOM      3  C   UNL d   1      26.609 -13.018  -1.061  0.00  0.00     0.063 A 
ATOM      4  C   UNL d   1      26.798 -14.063  -0.113  0.00  0.00     0.066 A 
ATOM      5  C   UNL d   1      26.363 -15.324  -0.609  0.00  0.00     0.146 A 
ATOM      6  N   UNL d   1      26.374 -16.520  -0.003  0.00  0.00    -0.101 NA
ATOM      7  O   UNL d   1      25.823 -17.413  -0.903  0.00  0.00    -0.106 OA
ATOM      8  N   UNL d   1      25.500 -16.802  -2.097  0.00  0.00    -0.100 NA
ATOM      9  C   UNL d   1      25.795 -15.503  -1.950  0.00  0.00     0.155 A 
ENDROOT
BRANCH   4  10
ATOM     10  N   UNL d   1      27.413 -13.798   1.098  0.00  0.00    -0.376 N 
ATOM     11  C   UNL d   1      27.510 -12.433   1.630  0.00  0.00     0.143 C 
ATOM     12  C   UNL d   1      27.030 -12.451   3.119  0.00  0.00     0.144 C 
ATOM     13  N   UNL d   1      27.776 -13.461   3.905  0.00  0.00    -0.364 N 
ATOM     14  C   UNL d   1      27.780 -14.823   3.305  0.00  0.00     0.144 C 
ATOM     15  C   UNL d   1      28.213 -14.801   1.815  0.00  0.00     0.143 C 
BRANCH  13  16
ATOM     16  C   UNL d   1      28.488 -13.185   5.041  0.00  0.00     0.102 A 
ATOM     17  C   UNL d   1      29.557 -13.967   5.498  0.00  0.00     0.048 A 
ATOM     18  C   UNL d   1      30.068 -13.787   6.786  0.00  0.00     0.005 A 
ATOM     19  C   UNL d   1      29.569 -12.767   7.583  0.00  0.00     0.017 A 
ATOM     20  C   UNL d   1      28.604 -11.926   7.051  0.00  0.00     0.089 A 
ATOM     21  N   UNL d   1      28.084 -12.177   5.836  0.00  0.00    -0.352 N 
ATOM     22  H   UNL d   1      27.300 -11.623   5.507  0.00  0.00     0.166 HD
ENDBRANCH  13  16
ENDBRANCH   4  10
BRANCH   2  23
ATOM     23  N   UNL d   1      25.895 -11.995  -3.178  0.00  0.00    -0.386 N 
ATOM     24  H   UNL d   1      25.008 -11.923  -3.685  0.00  0.00     0.159 HD
BRANCH  23  25
ATOM     25  C   UNL d   1      27.007 -11.234  -3.731  0.00  0.00     0.146 C 
BRANCH  25  26
ATOM     26  C   UNL d   1      26.901 -11.078  -5.247  0.00  0.00     0.183 C 
BRANCH  26  27
ATOM     27  O   UNL d   1      25.532 -11.101  -5.640  0.00  0.00    -0.399 OA
ATOM     28  H   UNL d   1      25.111 -11.861  -5.200  0.00  0.00     0.209 HD
ENDBRANCH  26  27
ENDBRANCH  25  26
ENDBRANCH  23  25
ENDBRANCH   2  23
BRANCH   1  29
ATOM     29  N   UNL d   1      25.179 -14.663  -4.165  0.00  0.00    -0.111 N 
ATOM     30  O   UNL d   1      24.404 -13.828  -4.644  0.00  0.00    -0.532 OA
ATOM     31  O   UNL d   1      25.530 -15.715  -4.724  0.00  0.00    -0.532 OA
ENDBRANCH   1  29
TORSDOF 7
ENDMDL
MODEL 6
REMARK VINA RESULT:    -5.416      4.386      7.519
REMARK INTER + INTRA:         -10.453
REMARK INTER:                  -7.504
REMARK INTRA:                  -2.949
REMARK CONF_INDEPENDENT:        2.088
REMARK UNBOUND:                -2.949
REMARK  7 active torsions:
REMARK  status: ('A' for Active; 'I' for Inactive)
REMARK    1  A    between atoms: N_2  and  C_4 
REMARK    2  A    between atoms: C_5  and  N_6 
REMARK    3  A    between atoms: N_6  and  C_7 
REMARK    4  A    between atoms: C_7  and  C_8 
REMARK    5  A    between atoms: C_8  and  O_9 
REMARK    6  A    between atoms: C_11  and  N_12 
REMARK    7  A    between atoms: N_15  and  C_16 
ROOT
ATOM      1  C   UNL d   1      26.165 -14.811  -3.130  0.00  0.00     0.162 A 
ATOM      2  C   UNL d   1      26.842 -13.672  -2.634  0.00  0.00     0.066 A 
ATOM      3  C   UNL d   1      27.012 -13.549  -1.214  0.00  0.00     0.063 A 
ATOM      4  C   UNL d   1      26.605 -14.479  -0.215  0.00  0.00     0.066 A 
ATOM      5  C   UNL d   1      25.936 -15.605  -0.770  0.00  0.00     0.146 A 
ATOM      6  N   UNL d   1      25.407 -16.667  -0.144  0.00  0.00    -0.101 NA
ATOM      7  O   UNL d   1      24.854 -17.460  -1.132  0.00  0.00    -0.106 OA
ATOM      8  N   UNL d   1      25.064 -16.933  -2.389  0.00  0.00    -0.100 NA
ATOM      9  C   UNL d   1      25.708 -15.771  -2.210  0.00  0.00     0.155 A 
ENDROOT
BRANCH   4  10
ATOM     10  N   UNL d   1      26.936 -14.261   1.111  0.00  0.00    -0.376 N 
ATOM     11  C   UNL d   1      27.780 -15.200   1.859  0.00  0.00     0.143 C 
ATOM     12  C   UNL d   1      28.905 -14.385   2.577  0.00  0.00     0.144 C 
ATOM     13  N   UNL d   1      28.329 -13.300   3.405  0.00  0.00    -0.364 N 
ATOM     14  C   UNL d   1      27.379 -12.415   2.677  0.00  0.00     0.144 C 
ATOM     15  C   UNL d   1      26.288 -13.225   1.927  0.00  0.00     0.143 C 
BRANCH  13  16
ATOM     16  C   UNL d   1      28.556 -13.146   4.745  0.00  0.00     0.102 A 
ATOM     17  C   UNL d   1      29.090 -14.151   5.564  0.00  0.00     0.048 A 
ATOM     18  C   UNL d   1      29.053 -14.027   6.955  0.00  0.00     0.005 A 
ATOM     19  C   UNL d   1      28.564 -12.860   7.525  0.00  0.00     0.017 A 
ATOM     20  C   UNL d   1      28.168 -11.831   6.684  0.00  0.00     0.089 A 
ATOM     21  N   UNL d   1      28.148 -12.016   5.352  0.00  0.00    -0.352 N 
ATOM     22  H   UNL d   1      27.749 -11.298   4.756  0.00  0.00     0.166 HD
ENDBRANCH  13  16
ENDBRANCH   4  10
BRANCH   2  23
ATOM     23  N   UNL d   1      27.235 -12.629  -3.481  0.00  0.00    -0.386 N 
ATOM     24  H   UNL d   1      26.490 -12.054  -3.886  0.00  0.00     0.159 HD
BRANCH  23  25
ATOM     25  C   UNL d   1      28.491 -12.653  -4.216  0.00  0.00     0.146 C 
BRANCH  25  26
ATOM     26  C   UNL d   1      28.273 -12.699  -5.728  0.00  0.00     0.183 C 
BRANCH  26  27
ATOM     27  O   UNL d   1      26.878 -12.677  -6.015  0.00  0.00    -0.399 OA
ATOM     28  H   UNL d   1      26.502 -13.525  -5.718  0.00  0.00     0.209 HD
ENDBRANCH  26  27
ENDBRANCH  25  26
ENDBRANCH  23  25
ENDBRANCH   2  23
BRANCH   1  29
ATOM     29  N   UNL d   1      25.988 -15.065  -4.536  0.00  0.00    -0.111 N 
ATOM     30  O   UNL d   1      24.882 -14.800  -5.020  0.00  0.00    -0.532 OA
ATOM     31  O   UNL d   1      26.935 -15.575  -5.157  0.00  0.00    -0.532 OA
ENDBRANCH   1  29
TORSDOF 7
ENDMDL
MODEL 7
REMARK VINA RESULT:    -5.122      3.711      8.121
REMARK INTER + INTRA:         -10.084
REMARK INTER:                  -7.210
REMARK INTRA:                  -2.874
REMARK CONF_INDEPENDENT:        2.088
REMARK UNBOUND:                -2.874
REMARK  7 active torsions:
REMARK  status: ('A' for Active; 'I' for Inactive)
REMARK    1  A    between atoms: N_2  and  C_4 
REMARK    2  A    between atoms: C_5  and  N_6 
REMARK    3  A    between atoms: N_6  and  C_7 
REMARK    4  A    between atoms: C_7  and  C_8 
REMARK    5  A    between atoms: C_8  and  O_9 
REMARK    6  A    between atoms: C_11  and  N_12 
REMARK    7  A    between atoms: N_15  and  C_16 
ROOT
ATOM      1  C   UNL d   1      25.950 -14.803  -1.823  0.00  0.00     0.162 A 
ATOM      2  C   UNL d   1      26.119 -15.732  -0.770  0.00  0.00     0.066 A 
ATOM      3  C   UNL d   1      26.778 -15.289   0.426  0.00  0.00     0.063 A 
ATOM      4  C   UNL d   1      27.261 -13.979   0.707  0.00  0.00     0.066 A 
ATOM      5  C   UNL d   1      27.059 -13.086  -0.382  0.00  0.00     0.146 A 
ATOM      6  N   UNL d   1      27.391 -11.791  -0.486  0.00  0.00    -0.101 NA
ATOM      7  O   UNL d   1      26.999 -11.394  -1.751  0.00  0.00    -0.106 OA
ATOM      8  N   UNL d   1      26.381 -12.416  -2.440  0.00  0.00    -0.100 NA
ATOM      9  C   UNL d   1      26.418 -13.490  -1.639  0.00  0.00     0.155 A 
ENDROOT
BRANCH   4  10
ATOM     10  N   UNL d   1      27.782 -13.686   1.955  0.00  0.00    -0.376 N 
ATOM     11  C   UNL d   1      28.394 -12.385   2.248  0.00  0.00     0.143 C 
ATOM     12  C   UNL d   1      27.782 -11.842   3.581  0.00  0.00     0.144 C 
ATOM     13  N   UNL d   1      27.920 -12.835   4.672  0.00  0.00    -0.364 N 
ATOM     14  C   UNL d   1      27.408 -14.191   4.335  0.00  0.00     0.144 C 
ATOM     15  C   UNL d   1      27.981 -14.711   2.990  0.00  0.00     0.143 C 
BRANCH  13  16
ATOM     16  C   UNL d   1      28.542 -12.589   5.866  0.00  0.00     0.102 A 
ATOM     17  C   UNL d   1      29.544 -13.409   6.404  0.00  0.00     0.048 A 
ATOM     18  C   UNL d   1      29.949 -13.254   7.733  0.00  0.00     0.005 A 
ATOM     19  C   UNL d   1      29.418 -12.224   8.494  0.00  0.00     0.017 A 
ATOM     20  C   UNL d   1      28.528 -11.349   7.891  0.00  0.00     0.089 A 
ATOM     21  N   UNL d   1      28.105 -11.574   6.634  0.00  0.00    -0.352 N 
ATOM     22  H   UNL d   1      27.369 -10.993   6.245  0.00  0.00     0.166 HD
ENDBRANCH  13  16
ENDBRANCH   4  10
BRANCH   2  23
ATOM     23  N   UNL d   1      25.769 -17.079  -0.920  0.00  0.00    -0.386 N 
ATOM     24  H   UNL d   1      25.774 -17.457  -1.872  0.00  0.00     0.159 HD
BRANCH  23  25
ATOM     25  C   UNL d   1      24.917 -17.774   0.035  0.00  0.00     0.146 C 
BRANCH  25  26
ATOM     26  C   UNL d   1      23.642 -18.311  -0.614  0.00  0.00     0.183 C 
BRANCH  26  27
ATOM     27  O   UNL d   1      23.681 -18.078  -2.019  0.00  0.00    -0.399 OA
ATOM     28  H   UNL d   1      24.214 -17.278  -2.172  0.00  0.00     0.209 HD
ENDBRANCH  26  27
ENDBRANCH  25  26
ENDBRANCH  23  25
ENDBRANCH   2  23
BRANCH   1  29
ATOM     29  N   UNL d   1      25.254 -15.121  -3.043  0.00  0.00    -0.111 N 
ATOM     30  O   UNL d   1      24.428 -14.297  -3.450  0.00  0.00    -0.532 OA
ATOM     31  O   UNL d   1      25.492 -16.216  -3.578  0.00  0.00    -0.532 OA
ENDBRANCH   1  29
TORSDOF 7
ENDMDL
MODEL 8
REMARK VINA RESULT:    -4.936      5.760      8.144
REMARK INTER + INTRA:          -9.858
REMARK INTER:                  -7.024
REMARK INTRA:                  -2.834
REMARK CONF_INDEPENDENT:        2.088
REMARK UNBOUND:                -2.834
REMARK  7 active torsions:
REMARK  status: ('A' for Active; 'I' for Inactive)
REMARK    1  A    between atoms: N_2  and  C_4 
REMARK    2  A    between atoms: C_5  and  N_6 
REMARK    3  A    between atoms: N_6  and  C_7 
REMARK    4  A    between atoms: C_7  and  C_8 
REMARK    5  A    between atoms: C_8  and  O_9 
REMARK    6  A    between atoms: C_11  and  N_12 
REMARK    7  A    between atoms: N_15  and  C_16 
ROOT
ATOM      1  C   UNL d   1      28.283  -8.872   5.257  0.00  0.00     0.162 A 
ATOM      2  C   UNL d   1      28.701 -10.176   5.615  0.00  0.00     0.066 A 
ATOM      3  C   UNL d   1      28.232 -11.279   4.826  0.00  0.00     0.063 A 
ATOM      4  C   UNL d   1      27.405 -11.219   3.669  0.00  0.00     0.066 A 
ATOM      5  C   UNL d   1      27.021  -9.887   3.351  0.00  0.00     0.146 A 
ATOM      6  N   UNL d   1      26.245  -9.447   2.349  0.00  0.00    -0.101 NA
ATOM      7  O   UNL d   1      26.163  -8.075   2.500  0.00  0.00    -0.106 OA
ATOM      8  N   UNL d   1      26.917  -7.632   3.566  0.00  0.00    -0.100 NA
ATOM      9  C   UNL d   1      27.445  -8.723   4.137  0.00  0.00     0.155 A 
ENDROOT
BRANCH   4  10
ATOM     10  N   UNL d   1      27.125 -12.373   2.956  0.00  0.00    -0.376 N 
ATOM     11  C   UNL d   1      26.314 -12.345   1.734  0.00  0.00     0.143 C 
ATOM     12  C   UNL d   1      27.070 -13.147   0.624  0.00  0.00     0.144 C 
ATOM     13  N   UNL d   1      27.411 -14.510   1.093  0.00  0.00    -0.364 N 
ATOM     14  C   UNL d   1      28.131 -14.547   2.395  0.00  0.00     0.144 C 
ATOM     15  C   UNL d   1      27.405 -13.715   3.485  0.00  0.00     0.143 C 
BRANCH  13  16
ATOM     16  C   UNL d   1      27.035 -15.663   0.458  0.00  0.00     0.102 A 
ATOM     17  C   UNL d   1      25.869 -15.782  -0.310  0.00  0.00     0.048 A 
ATOM     18  C   UNL d   1      25.408 -17.039  -0.710  0.00  0.00     0.005 A 
ATOM     19  C   UNL d   1      26.160 -18.168  -0.418  0.00  0.00     0.017 A 
ATOM     20  C   UNL d   1      27.376 -18.001   0.226  0.00  0.00     0.089 A 
ATOM     21  N   UNL d   1      27.750 -16.784   0.662  0.00  0.00    -0.352 N 
ATOM     22  H   UNL d   1      28.585 -16.695   1.231  0.00  0.00     0.166 HD
ENDBRANCH  13  16
ENDBRANCH   4  10
BRANCH   2  23
ATOM     23  N   UNL d   1      29.452 -10.410   6.773  0.00  0.00    -0.386 N 
ATOM     24  H   UNL d   1      29.555  -9.627   7.427  0.00  0.00     0.159 HD
BRANCH  23  25
ATOM     25  C   UNL d   1      30.488 -11.431   6.838  0.00  0.00     0.146 C 
BRANCH  25  26
ATOM     26  C   UNL d   1      31.851 -10.848   7.203  0.00  0.00     0.183 C 
BRANCH  26  27
ATOM     27  O   UNL d   1      31.688  -9.537   7.737  0.00  0.00    -0.399 OA
ATOM     28  H   UNL d   1      31.311  -8.977   7.035  0.00  0.00     0.209 HD
ENDBRANCH  26  27
ENDBRANCH  25  26
ENDBRANCH  23  25
ENDBRANCH   2  23
BRANCH   1  29
ATOM     29  N   UNL d   1      28.737  -7.689   5.941  0.00  0.00    -0.111 N 
ATOM     30  O   UNL d   1      27.979  -6.712   5.935  0.00  0.00    -0.532 OA
ATOM     31  O   UNL d   1      29.870  -7.710   6.447  0.00  0.00    -0.532 OA
ENDBRANCH   1  29
TORSDOF 7
ENDMDL
MODEL 9
REMARK VINA RESULT:    -4.695      5.957      9.417
REMARK INTER + INTRA:          -9.650
REMARK INTER:                  -6.783
REMARK INTRA:                  -2.866
REMARK CONF_INDEPENDENT:        2.088
REMARK UNBOUND:                -2.866
REMARK  7 active torsions:
REMARK  status: ('A' for Active; 'I' for Inactive)
REMARK    1  A    between atoms: N_2  and  C_4 
REMARK    2  A    between atoms: C_5  and  N_6 
REMARK    3  A    between atoms: N_6  and  C_7 
REMARK    4  A    between atoms: C_7  and  C_8 
REMARK    5  A    between atoms: C_8  and  O_9 
REMARK    6  A    between atoms: C_11  and  N_12 
REMARK    7  A    between atoms: N_15  and  C_16 
ROOT
ATOM      1  C   UNL d   1      27.487 -11.261   0.983  0.00  0.00     0.162 A 
ATOM      2  C   UNL d   1      27.979 -12.529   1.372  0.00  0.00     0.066 A 
ATOM      3  C   UNL d   1      28.100 -12.809   2.775  0.00  0.00     0.063 A 
ATOM      4  C   UNL d   1      27.737 -11.956   3.856  0.00  0.00     0.066 A 
ATOM      5  C   UNL d   1      27.244 -10.699   3.408  0.00  0.00     0.146 A 
ATOM      6  N   UNL d   1      26.822  -9.651   4.130  0.00  0.00    -0.101 NA
ATOM      7  O   UNL d   1      26.470  -8.673   3.219  0.00  0.00    -0.106 OA
ATOM      8  N   UNL d   1      26.624  -9.106   1.919  0.00  0.00    -0.100 NA
ATOM      9  C   UNL d   1      27.125 -10.347   1.989  0.00  0.00     0.155 A 
ENDROOT
BRANCH   4  10
ATOM     10  N   UNL d   1      27.820 -12.417   5.159  0.00  0.00    -0.376 N 
ATOM     11  C   UNL d   1      27.712 -13.845   5.480  0.00  0.00     0.143 C 
ATOM     12  C   UNL d   1      28.900 -14.228   6.423  0.00  0.00     0.144 C 
ATOM     13  N   UNL d   1      28.942 -13.343   7.611  0.00  0.00    -0.364 N 
ATOM     14  C   UNL d   1      28.931 -11.889   7.291  0.00  0.00     0.144 C 
ATOM     15  C   UNL d   1      27.780 -11.516   6.319  0.00  0.00     0.143 C 
BRANCH  13  16
ATOM     16  C   UNL d   1      28.903 -13.784   8.905  0.00  0.00     0.102 A 
ATOM     17  C   UNL d   1      28.155 -13.165   9.915  0.00  0.00     0.048 A 
ATOM     18  C   UNL d   1      28.360 -13.499  11.257  0.00  0.00     0.005 A 
ATOM     19  C   UNL d   1      29.248 -14.515  11.580  0.00  0.00     0.017 A 
ATOM     20  C   UNL d   1      29.872 -15.198  10.548  0.00  0.00     0.089 A 
ATOM     21  N   UNL d   1      29.707 -14.798   9.274  0.00  0.00    -0.352 N 
ATOM     22  H   UNL d   1      30.257 -15.233   8.541  0.00  0.00     0.166 HD
ENDBRANCH  13  16
ENDBRANCH   4  10
BRANCH   2  23
ATOM     23  N   UNL d   1      28.451 -13.451   0.430  0.00  0.00    -0.386 N 
ATOM     24  H   UNL d   1      28.614 -13.102  -0.520  0.00  0.00     0.159 HD
BRANCH  23  25
ATOM     25  C   UNL d   1      28.208 -14.881   0.548  0.00  0.00     0.146 C 
BRANCH  25  26
ATOM     26  C   UNL d   1      27.403 -15.429  -0.629  0.00  0.00     0.183 C 
BRANCH  26  27
ATOM     27  O   UNL d   1      27.469 -14.518  -1.724  0.00  0.00    -0.399 OA
ATOM     28  H   UNL d   1      27.035 -13.692  -1.447  0.00  0.00     0.209 HD
ENDBRANCH  26  27
ENDBRANCH  25  26
ENDBRANCH  23  25
ENDBRANCH   2  23
BRANCH   1  29
ATOM     29  N   UNL d   1      27.270 -10.894  -0.392  0.00  0.00    -0.111 N 
ATOM     30  O   UNL d   1      27.021 -11.809  -1.185  0.00  0.00    -0.532 OA
ATOM     31  O   UNL d   1      27.395  -9.697  -0.699  0.00  0.00    -0.532 OA
ENDBRANCH   1  29
TORSDOF 7
ENDMDL
