MODEL 1
REMARK VINA RESULT:   -31.719      0.000      0.000
REMARK INTER + INTRA:         -37.301
REMARK INTER:                 -35.299
REMARK INTRA:                  -2.002
REMARK CONF_INDEPENDENT:        3.580
REMARK UNBOUND:                -2.002
REMARK  12 active torsions:
REMARK  status: ('A' for Active; 'I' for Inactive)
REMARK    1  A    between atoms: C_2  and  O_3 
REMARK    2  A    between atoms: O_3  and  C_4 
REMARK    3  A    between atoms: C_6  and  C_7 
REMARK    4  A    between atoms: C_7  and  N_8 
REMARK    5  A    between atoms: N_8  and  C_9 
REMARK    6  A    between atoms: C_9  and  C_10 
REMARK    7  A    between atoms: C_10  and  N_11 
REMARK       I    between atoms: N_11  and  C_12 
REMARK    8  A    between atoms: C_12  and  C_14 
REMARK    9  A    between atoms: C_18  and  N_19 
REMARK   10  A    between atoms: C_23  and  O_24 
REMARK   11  A    between atoms: O_24  and  C_25 
REMARK   12  A    between atoms: C_25  and  C_26 
ROOT
ATOM      1  C   UNL d   1      29.303 -16.396  -2.199  0.00  0.00     0.103 A 
ATOM      2  C   UNL d   1      28.189 -16.291  -1.354  0.00  0.00     0.048 A 
ATOM      3  C   UNL d   1      26.982 -15.783  -1.841  0.00  0.00    -0.029 A 
ATOM      4  C   UNL d   1      26.923 -15.357  -3.166  0.00  0.00     0.031 A 
ATOM      5  C   UNL d   1      28.012 -15.408  -4.019  0.00  0.00     0.047 A 
ATOM      6 BR   UNL d   1      27.521 -14.713  -5.739  0.00  0.00    -0.048 Br
ATOM      7  C   UNL d   1      29.230 -15.924  -3.546  0.00  0.00     0.119 A 
ENDROOT
BRANCH   3   8
ATOM      8  C   UNL d   1      25.774 -15.693  -0.962  0.00  0.00     0.271 C 
BRANCH   8   9
ATOM      9  N   UNL d   1      24.579 -16.351  -1.579  0.00  0.00    -0.070 N 
ATOM     10  H   UNL d   1      24.529 -16.065  -2.569  0.00  0.00     0.277 HD
ATOM     11  H   UNL d   1      23.734 -15.986  -1.116  0.00  0.00     0.277 HD
BRANCH   9  12
ATOM     12  C   UNL d   1      24.591 -17.823  -1.496  0.00  0.00     0.252 C 
BRANCH  12  13
ATOM     13  C   UNL d   1      24.287 -18.287  -0.073  0.00  0.00     0.150 C 
BRANCH  13  14
ATOM     14  N   UNL d   1      22.994 -18.932   0.016  0.00  0.00    -0.354 N 
ATOM     15  C   UNL d   1      21.837 -18.223  -0.278  0.00  0.00     0.276 C 
ATOM     16  O   UNL d   1      21.898 -17.032  -0.593  0.00  0.00    -0.266 OA
ATOM     17  H   UNL d   1      22.908 -19.941   0.109  0.00  0.00     0.162 HD
BRANCH  15  18
ATOM     18  C   UNL d   1      20.596 -18.976  -0.183  0.00  0.00     0.201 A 
ATOM     19  N   UNL d   1      19.898 -19.325  -1.269  0.00  0.00    -0.096 NA
ATOM     20  O   UNL d   1      18.787 -20.005  -0.784  0.00  0.00    -0.104 OA
ATOM     21  N   UNL d   1      18.809 -20.078   0.604  0.00  0.00    -0.085 NA
ATOM     22  C   UNL d   1      19.927 -19.459   0.970  0.00  0.00     0.188 A 
BRANCH  22  23
ATOM     23  N   UNL d   1      20.343 -19.336   2.250  0.00  0.00    -0.380 N 
ATOM     24  H   UNL d   1      20.360 -18.391   2.635  0.00  0.00     0.158 HD
ATOM     25  H   UNL d   1      21.046 -19.942   2.652  0.00  0.00     0.158 HD
ENDBRANCH  22  23
ENDBRANCH  15  18
ENDBRANCH  13  14
ENDBRANCH  12  13
ENDBRANCH   9  12
ENDBRANCH   8   9
ENDBRANCH   3   8
BRANCH   1  26
ATOM     26  O   UNL d   1      30.509 -16.865  -1.713  0.00  0.00    -0.349 OA
BRANCH  26  27
ATOM     27  C   UNL d   1      30.451 -18.048  -0.893  0.00  0.00     0.171 C 
ATOM     28  C   UNL d   1      31.479 -19.063  -1.381  0.00  0.00     0.034 C 
ENDBRANCH  26  27
ENDBRANCH   1  26
BRANCH   7  29
ATOM     29  O   UNL d   1      30.394 -16.035  -4.257  0.00  0.00    -0.342 OA
BRANCH  29  30
ATOM     30  C   UNL d   1      30.288 -16.212  -5.667  0.00  0.00     0.214 C 
BRANCH  30  31
ATOM     31  C   UNL d   1      30.642 -17.598  -6.094  0.00  0.00    -0.034 A 
ATOM     32  C   UNL d   1      31.198 -17.812  -7.364  0.00  0.00     0.009 A 
ATOM     33  C   UNL d   1      31.389 -19.113  -7.814  0.00  0.00     0.001 A 
ATOM     34  C   UNL d   1      31.120 -20.184  -6.963  0.00  0.00     0.000 A 
ATOM     35  C   UNL d   1      30.634 -19.964  -5.675  0.00  0.00     0.001 A 
ATOM     36  C   UNL d   1      30.396 -18.672  -5.241  0.00  0.00     0.009 A 
ENDBRANCH  30  31
ENDBRANCH  29  30
ENDBRANCH   7  29
TORSDOF 12
ENDMDL
MODEL 2
REMARK VINA RESULT:   -31.704      3.535      4.947
REMARK INTER + INTRA:         -36.615
REMARK INTER:                 -35.284
REMARK INTRA:                  -1.331
REMARK CONF_INDEPENDENT:        3.580
REMARK UNBOUND:                -1.331
REMARK  12 active torsions:
REMARK  status: ('A' for Active; 'I' for Inactive)
REMARK    1  A    between atoms: C_2  and  O_3 
REMARK    2  A    between atoms: O_3  and  C_4 
REMARK    3  A    between atoms: C_6  and  C_7 
REMARK    4  A    between atoms: C_7  and  N_8 
REMARK    5  A    between atoms: N_8  and  C_9 
REMARK    6  A    between atoms: C_9  and  C_10 
REMARK    7  A    between atoms: C_10  and  N_11 
REMARK       I    between atoms: N_11  and  C_12 
REMARK    8  A    between atoms: C_12  and  C_14 
REMARK    9  A    between atoms: C_18  and  N_19 
REMARK   10  A    between atoms: C_23  and  O_24 
REMARK   11  A    between atoms: O_24  and  C_25 
REMARK   12  A    between atoms: C_25  and  C_26 
ROOT
ATOM      1  C   UNL d   1      27.227 -14.692  -4.984  0.00  0.00     0.103 A 
ATOM      2  C   UNL d   1      26.388 -15.432  -4.138  0.00  0.00     0.048 A 
ATOM      3  C   UNL d   1      25.481 -14.781  -3.299  0.00  0.00    -0.029 A 
ATOM      4  C   UNL d   1      25.453 -13.388  -3.300  0.00  0.00     0.031 A 
ATOM      5  C   UNL d   1      26.293 -12.622  -4.092  0.00  0.00     0.047 A 
ATOM      6 BR   UNL d   1      25.952 -10.758  -3.783  0.00  0.00    -0.048 Br
ATOM      7  C   UNL d   1      27.204 -13.263  -4.946  0.00  0.00     0.119 A 
ENDROOT
BRANCH   3   8
ATOM      8  C   UNL d   1      24.557 -15.556  -2.413  0.00  0.00     0.271 C 
BRANCH   8   9
ATOM      9  N   UNL d   1      25.301 -16.434  -1.456  0.00  0.00    -0.070 N 
ATOM     10  H   UNL d   1      25.341 -15.955  -0.544  0.00  0.00     0.277 HD
ATOM     11  H   UNL d   1      26.271 -16.527  -1.791  0.00  0.00     0.277 HD
BRANCH   9  12
ATOM     12  C   UNL d   1      24.709 -17.772  -1.280  0.00  0.00     0.252 C 
BRANCH  12  13
ATOM     13  C   UNL d   1      24.251 -17.975   0.163  0.00  0.00     0.150 C 
BRANCH  13  14
ATOM     14  N   UNL d   1      23.015 -18.725   0.233  0.00  0.00    -0.354 N 
ATOM     15  C   UNL d   1      21.848 -18.202  -0.309  0.00  0.00     0.276 C 
ATOM     16  O   UNL d   1      21.849 -17.084  -0.832  0.00  0.00    -0.266 OA
ATOM     17  H   UNL d   1      23.001 -19.706   0.502  0.00  0.00     0.162 HD
BRANCH  15  18
ATOM     18  C   UNL d   1      20.671 -19.050  -0.208  0.00  0.00     0.201 A 
ATOM     19  N   UNL d   1      19.905 -19.324  -1.270  0.00  0.00    -0.096 NA
ATOM     20  O   UNL d   1      18.886 -20.136  -0.784  0.00  0.00    -0.104 OA
ATOM     21  N   UNL d   1      19.034 -20.365   0.578  0.00  0.00    -0.085 NA
ATOM     22  C   UNL d   1      20.136 -19.711   0.927  0.00  0.00     0.188 A 
BRANCH  22  23
ATOM     23  N   UNL d   1      20.653 -19.704   2.177  0.00  0.00    -0.380 N 
ATOM     24  H   UNL d   1      21.203 -18.886   2.439  0.00  0.00     0.158 HD
ATOM     25  H   UNL d   1      20.952 -20.551   2.644  0.00  0.00     0.158 HD
ENDBRANCH  22  23
ENDBRANCH  15  18
ENDBRANCH  13  14
ENDBRANCH  12  13
ENDBRANCH   9  12
ENDBRANCH   8   9
ENDBRANCH   3   8
BRANCH   1  26
ATOM     26  O   UNL d   1      28.150 -15.332  -5.790  0.00  0.00    -0.349 OA
BRANCH  26  27
ATOM     27  C   UNL d   1      29.442 -15.585  -5.205  0.00  0.00     0.171 C 
ATOM     28  C   UNL d   1      29.292 -16.520  -4.011  0.00  0.00     0.034 C 
ENDBRANCH  26  27
ENDBRANCH   1  26
BRANCH   7  29
ATOM     29  O   UNL d   1      28.101 -12.654  -5.780  0.00  0.00    -0.342 OA
BRANCH  29  30
ATOM     30  C   UNL d   1      27.925 -12.840  -7.182  0.00  0.00     0.214 C 
BRANCH  30  31
ATOM     31  C   UNL d   1      27.511 -11.584  -7.875  0.00  0.00    -0.034 A 
ATOM     32  C   UNL d   1      27.117 -11.631  -9.221  0.00  0.00     0.009 A 
ATOM     33  C   UNL d   1      26.876 -10.444  -9.903  0.00  0.00     0.001 A 
ATOM     34  C   UNL d   1      26.928  -9.232  -9.216  0.00  0.00     0.000 A 
ATOM     35  C   UNL d   1      27.251  -9.195  -7.861  0.00  0.00     0.001 A 
ATOM     36  C   UNL d   1      27.540 -10.371  -7.191  0.00  0.00     0.009 A 
ENDBRANCH  30  31
ENDBRANCH  29  30
ENDBRANCH   7  29
TORSDOF 12
ENDMDL
MODEL 3
REMARK VINA RESULT:   -30.588      3.269      5.545
REMARK INTER + INTRA:         -37.420
REMARK INTER:                 -34.168
REMARK INTRA:                  -3.252
REMARK CONF_INDEPENDENT:        3.580
REMARK UNBOUND:                -3.252
REMARK  12 active torsions:
REMARK  status: ('A' for Active; 'I' for Inactive)
REMARK    1  A    between atoms: C_2  and  O_3 
REMARK    2  A    between atoms: O_3  and  C_4 
REMARK    3  A    between atoms: C_6  and  C_7 
REMARK    4  A    between atoms: C_7  and  N_8 
REMARK    5  A    between atoms: N_8  and  C_9 
REMARK    6  A    between atoms: C_9  and  C_10 
REMARK    7  A    between atoms: C_10  and  N_11 
REMARK       I    between atoms: N_11  and  C_12 
REMARK    8  A    between atoms: C_12  and  C_14 
REMARK    9  A    between atoms: C_18  and  N_19 
REMARK   10  A    between atoms: C_23  and  O_24 
REMARK   11  A    between atoms: O_24  and  C_25 
REMARK   12  A    between atoms: C_25  and  C_26 
ROOT
ATOM      1  C   UNL d   1      27.512 -14.787  -2.053  0.00  0.00     0.103 A 
ATOM      2  C   UNL d   1      27.182 -16.088  -1.648  0.00  0.00     0.048 A 
ATOM      3  C   UNL d   1      26.874 -16.353  -0.312  0.00  0.00    -0.029 A 
ATOM      4  C   UNL d   1      26.935 -15.307   0.607  0.00  0.00     0.031 A 
ATOM      5  C   UNL d   1      27.296 -14.018   0.252  0.00  0.00     0.047 A 
ATOM      6 BR   UNL d   1      27.277 -12.891   1.806  0.00  0.00    -0.048 Br
ATOM      7  C   UNL d   1      27.600 -13.735  -1.089  0.00  0.00     0.119 A 
ENDROOT
BRANCH   3   8
ATOM      8  C   UNL d   1      26.488 -17.729   0.132  0.00  0.00     0.271 C 
BRANCH   8   9
ATOM      9  N   UNL d   1      25.020 -17.977  -0.019  0.00  0.00    -0.070 N 
ATOM     10  H   UNL d   1      24.533 -17.522   0.767  0.00  0.00     0.277 HD
ATOM     11  H   UNL d   1      24.852 -18.990   0.068  0.00  0.00     0.277 HD
BRANCH   9  12
ATOM     12  C   UNL d   1      24.454 -17.492  -1.291  0.00  0.00     0.252 C 
BRANCH  12  13
ATOM     13  C   UNL d   1      23.190 -16.670  -1.042  0.00  0.00     0.150 C 
BRANCH  13  14
ATOM     14  N   UNL d   1      22.003 -17.497  -1.040  0.00  0.00    -0.354 N 
ATOM     15  C   UNL d   1      21.816 -18.449  -0.047  0.00  0.00     0.276 C 
ATOM     16  O   UNL d   1      22.670 -18.615   0.828  0.00  0.00    -0.266 OA
ATOM     17  H   UNL d   1      21.206 -17.287  -1.636  0.00  0.00     0.162 HD
BRANCH  15  18
ATOM     18  C   UNL d   1      20.577 -19.206  -0.125  0.00  0.00     0.201 A 
ATOM     19  N   UNL d   1      19.894 -19.325  -1.270  0.00  0.00    -0.096 NA
ATOM     20  O   UNL d   1      18.779 -20.091  -0.950  0.00  0.00    -0.104 OA
ATOM     21  N   UNL d   1      18.783 -20.448   0.393  0.00  0.00    -0.085 NA
ATOM     22  C   UNL d   1      19.894 -19.916   0.894  0.00  0.00     0.188 A 
BRANCH  22  23
ATOM     23  N   UNL d   1      20.292 -20.059   2.178  0.00  0.00    -0.380 N 
ATOM     24  H   UNL d   1      21.192 -19.647   2.425  0.00  0.00     0.158 HD
ATOM     25  H   UNL d   1      20.065 -20.877   2.728  0.00  0.00     0.158 HD
ENDBRANCH  22  23
ENDBRANCH  15  18
ENDBRANCH  13  14
ENDBRANCH  12  13
ENDBRANCH   9  12
ENDBRANCH   8   9
ENDBRANCH   3   8
BRANCH   1  26
ATOM     26  O   UNL d   1      27.851 -14.527  -3.368  0.00  0.00    -0.349 OA
BRANCH  26  27
ATOM     27  C   UNL d   1      27.056 -15.181  -4.375  0.00  0.00     0.171 C 
ATOM     28  C   UNL d   1      27.758 -15.090  -5.725  0.00  0.00     0.034 C 
ENDBRANCH  26  27
ENDBRANCH   1  26
BRANCH   7  29
ATOM     29  O   UNL d   1      27.979 -12.522  -1.596  0.00  0.00    -0.342 OA
BRANCH  29  30
ATOM     30  C   UNL d   1      27.073 -11.433  -1.437  0.00  0.00     0.214 C 
BRANCH  30  31
ATOM     31  C   UNL d   1      26.597 -10.896  -2.746  0.00  0.00    -0.034 A 
ATOM     32  C   UNL d   1      26.231  -9.545  -2.850  0.00  0.00     0.009 A 
ATOM     33  C   UNL d   1      25.650  -9.084  -4.025  0.00  0.00     0.001 A 
ATOM     34  C   UNL d   1      25.531  -9.942  -5.118  0.00  0.00     0.000 A 
ATOM     35  C   UNL d   1      25.961 -11.265  -5.033  0.00  0.00     0.001 A 
ATOM     36  C   UNL d   1      26.495 -11.741  -3.849  0.00  0.00     0.009 A 
ENDBRANCH  30  31
ENDBRANCH  29  30
ENDBRANCH   7  29
TORSDOF 12
ENDMDL
MODEL 4
REMARK VINA RESULT:   -30.556      3.200      4.375
REMARK INTER + INTRA:         -37.903
REMARK INTER:                 -34.135
REMARK INTRA:                  -3.768
REMARK CONF_INDEPENDENT:        3.580
REMARK UNBOUND:                -3.768
REMARK  12 active torsions:
REMARK  status: ('A' for Active; 'I' for Inactive)
REMARK    1  A    between atoms: C_2  and  O_3 
REMARK    2  A    between atoms: O_3  and  C_4 
REMARK    3  A    between atoms: C_6  and  C_7 
REMARK    4  A    between atoms: C_7  and  N_8 
REMARK    5  A    between atoms: N_8  and  C_9 
REMARK    6  A    between atoms: C_9  and  C_10 
REMARK    7  A    between atoms: C_10  and  N_11 
REMARK       I    between atoms: N_11  and  C_12 
REMARK    8  A    between atoms: C_12  and  C_14 
REMARK    9  A    between atoms: C_18  and  N_19 
REMARK   10  A    between atoms: C_23  and  O_24 
REMARK   11  A    between atoms: O_24  and  C_25 
REMARK   12  A    between atoms: C_25  and  C_26 
ROOT
ATOM      1  C   UNL d   1      27.491 -14.853  -0.095  0.00  0.00     0.103 A 
ATOM      2  C   UNL d   1      26.692 -15.934   0.307  0.00  0.00     0.048 A 
ATOM      3  C   UNL d   1      27.135 -17.245   0.118  0.00  0.00    -0.029 A 
ATOM      4  C   UNL d   1      28.364 -17.451  -0.504  0.00  0.00     0.031 A 
ATOM      5  C   UNL d   1      29.163 -16.411  -0.950  0.00  0.00     0.047 A 
ATOM      6 BR   UNL d   1      30.752 -17.117  -1.762  0.00  0.00    -0.048 Br
ATOM      7  C   UNL d   1      28.735 -15.087  -0.759  0.00  0.00     0.119 A 
ENDROOT
BRANCH   3   8
ATOM      8  C   UNL d   1      26.310 -18.410   0.568  0.00  0.00     0.271 C 
BRANCH   8   9
ATOM      9  N   UNL d   1      24.850 -18.195   0.315  0.00  0.00    -0.070 N 
ATOM     10  H   UNL d   1      24.508 -17.487   0.981  0.00  0.00     0.277 HD
ATOM     11  H   UNL d   1      24.353 -19.073   0.525  0.00  0.00     0.277 HD
BRANCH   9  12
ATOM     12  C   UNL d   1      24.533 -17.767  -1.060  0.00  0.00     0.252 C 
BRANCH  12  13
ATOM     13  C   UNL d   1      23.271 -16.906  -1.081  0.00  0.00     0.150 C 
BRANCH  13  14
ATOM     14  N   UNL d   1      22.071 -17.715  -1.100  0.00  0.00    -0.354 N 
ATOM     15  C   UNL d   1      21.755 -18.524  -0.016  0.00  0.00     0.276 C 
ATOM     16  O   UNL d   1      22.507 -18.580   0.961  0.00  0.00    -0.266 OA
ATOM     17  H   UNL d   1      21.346 -17.578  -1.801  0.00  0.00     0.162 HD
BRANCH  15  18
ATOM     18  C   UNL d   1      20.514 -19.272  -0.129  0.00  0.00     0.201 A 
ATOM     19  N   UNL d   1      19.815 -19.312  -1.270  0.00  0.00    -0.096 NA
ATOM     20  O   UNL d   1      18.703 -20.097  -0.988  0.00  0.00    -0.104 OA
ATOM     21  N   UNL d   1      18.725 -20.545   0.327  0.00  0.00    -0.085 NA
ATOM     22  C   UNL d   1      19.843 -20.050   0.848  0.00  0.00     0.188 A 
BRANCH  22  23
ATOM     23  N   UNL d   1      20.259 -20.281   2.113  0.00  0.00    -0.380 N 
ATOM     24  H   UNL d   1      21.074 -19.755   2.429  0.00  0.00     0.158 HD
ATOM     25  H   UNL d   1      20.177 -21.189   2.554  0.00  0.00     0.158 HD
ENDBRANCH  22  23
ENDBRANCH  15  18
ENDBRANCH  13  14
ENDBRANCH  12  13
ENDBRANCH   9  12
ENDBRANCH   8   9
ENDBRANCH   3   8
BRANCH   1  26
ATOM     26  O   UNL d   1      27.042 -13.555   0.059  0.00  0.00    -0.349 OA
BRANCH  26  27
ATOM     27  C   UNL d   1      26.383 -13.249   1.304  0.00  0.00     0.171 C 
ATOM     28  C   UNL d   1      27.373 -13.382   2.455  0.00  0.00     0.034 C 
ENDBRANCH  26  27
ENDBRANCH   1  26
BRANCH   7  29
ATOM     29  O   UNL d   1      29.400 -13.957  -1.146  0.00  0.00    -0.342 OA
BRANCH  29  30
ATOM     30  C   UNL d   1      29.512 -13.707  -2.545  0.00  0.00     0.214 C 
BRANCH  30  31
ATOM     31  C   UNL d   1      28.192 -13.761  -3.240  0.00  0.00    -0.034 A 
ATOM     32  C   UNL d   1      27.971 -14.725  -4.236  0.00  0.00     0.009 A 
ATOM     33  C   UNL d   1      26.799 -14.679  -4.981  0.00  0.00     0.001 A 
ATOM     34  C   UNL d   1      25.816 -13.742  -4.664  0.00  0.00     0.000 A 
ATOM     35  C   UNL d   1      26.011 -12.831  -3.626  0.00  0.00     0.001 A 
ATOM     36  C   UNL d   1      27.197 -12.843  -2.914  0.00  0.00     0.009 A 
ENDBRANCH  30  31
ENDBRANCH  29  30
ENDBRANCH   7  29
TORSDOF 12
ENDMDL
MODEL 5
REMARK VINA RESULT:   -30.458      2.565      4.073
REMARK INTER + INTRA:         -37.760
REMARK INTER:                 -34.038
REMARK INTRA:                  -3.721
REMARK CONF_INDEPENDENT:        3.580
REMARK UNBOUND:                -3.721
REMARK  12 active torsions:
REMARK  status: ('A' for Active; 'I' for Inactive)
REMARK    1  A    between atoms: C_2  and  O_3 
REMARK    2  A    between atoms: O_3  and  C_4 
REMARK    3  A    between atoms: C_6  and  C_7 
REMARK    4  A    between atoms: C_7  and  N_8 
REMARK    5  A    between atoms: N_8  and  C_9 
REMARK    6  A    between atoms: C_9  and  C_10 
REMARK    7  A    between atoms: C_10  and  N_11 
REMARK       I    between atoms: N_11  and  C_12 
REMARK    8  A    between atoms: C_12  and  C_14 
REMARK    9  A    between atoms: C_18  and  N_19 
REMARK   10  A    between atoms: C_23  and  O_24 
REMARK   11  A    between atoms: O_24  and  C_25 
REMARK   12  A    between atoms: C_25  and  C_26 
ROOT
ATOM      1  C   UNL d   1      28.658 -15.866  -1.944  0.00  0.00     0.103 A 
ATOM      2  C   UNL d   1      27.997 -17.046  -1.571  0.00  0.00     0.048 A 
ATOM      3  C   UNL d   1      27.121 -17.048  -0.484  0.00  0.00    -0.029 A 
ATOM      4  C   UNL d   1      26.946 -15.867   0.235  0.00  0.00     0.031 A 
ATOM      5  C   UNL d   1      27.611 -14.694  -0.078  0.00  0.00     0.047 A 
ATOM      6 BR   UNL d   1      27.110 -13.316   1.161  0.00  0.00    -0.048 Br
ATOM      7  C   UNL d   1      28.489 -14.674  -1.173  0.00  0.00     0.119 A 
ENDROOT
BRANCH   3   8
ATOM      8  C   UNL d   1      26.383 -18.289  -0.091  0.00  0.00     0.271 C 
BRANCH   8   9
ATOM      9  N   UNL d   1      24.899 -18.092  -0.114  0.00  0.00    -0.070 N 
ATOM     10  H   UNL d   1      24.627 -17.595   0.748  0.00  0.00     0.277 HD
ATOM     11  H   UNL d   1      24.449 -19.018  -0.084  0.00  0.00     0.277 HD
BRANCH   9  12
ATOM     12  C   UNL d   1      24.408 -17.344  -1.285  0.00  0.00     0.252 C 
BRANCH  12  13
ATOM     13  C   UNL d   1      23.134 -16.574  -0.940  0.00  0.00     0.150 C 
BRANCH  13  14
ATOM     14  N   UNL d   1      21.966 -17.428  -0.972  0.00  0.00    -0.354 N 
ATOM     15  C   UNL d   1      21.784 -18.402   0.001  0.00  0.00     0.276 C 
ATOM     16  O   UNL d   1      22.629 -18.564   0.887  0.00  0.00    -0.266 OA
ATOM     17  H   UNL d   1      21.173 -17.225  -1.576  0.00  0.00     0.162 HD
BRANCH  15  18
ATOM     18  C   UNL d   1      20.564 -19.184  -0.111  0.00  0.00     0.201 A 
ATOM     19  N   UNL d   1      19.905 -19.301  -1.269  0.00  0.00    -0.096 NA
ATOM     20  O   UNL d   1      18.802 -20.097  -0.981  0.00  0.00    -0.104 OA
ATOM     21  N   UNL d   1      18.790 -20.473   0.357  0.00  0.00    -0.085 NA
ATOM     22  C   UNL d   1      19.879 -19.925   0.885  0.00  0.00     0.188 A 
BRANCH  22  23
ATOM     23  N   UNL d   1      20.258 -20.078   2.174  0.00  0.00    -0.380 N 
ATOM     24  H   UNL d   1      19.613 -19.727   2.884  0.00  0.00     0.158 HD
ATOM     25  H   UNL d   1      21.227 -20.037   2.463  0.00  0.00     0.158 HD
ENDBRANCH  22  23
ENDBRANCH  15  18
ENDBRANCH  13  14
ENDBRANCH  12  13
ENDBRANCH   9  12
ENDBRANCH   8   9
ENDBRANCH   3   8
BRANCH   1  26
ATOM     26  O   UNL d   1      29.553 -15.868  -2.997  0.00  0.00    -0.349 OA
BRANCH  26  27
ATOM     27  C   UNL d   1      30.409 -17.021  -3.108  0.00  0.00     0.171 C 
ATOM     28  C   UNL d   1      31.770 -16.601  -3.652  0.00  0.00     0.034 C 
ENDBRANCH  26  27
ENDBRANCH   1  26
BRANCH   7  29
ATOM     29  O   UNL d   1      29.223 -13.603  -1.605  0.00  0.00    -0.342 OA
BRANCH  29  30
ATOM     30  C   UNL d   1      28.624 -12.745  -2.573  0.00  0.00     0.214 C 
BRANCH  30  31
ATOM     31  C   UNL d   1      27.412 -13.352  -3.199  0.00  0.00    -0.034 A 
ATOM     32  C   UNL d   1      27.552 -14.169  -4.332  0.00  0.00     0.009 A 
ATOM     33  C   UNL d   1      26.415 -14.611  -4.998  0.00  0.00     0.001 A 
ATOM     34  C   UNL d   1      25.155 -14.323  -4.477  0.00  0.00     0.000 A 
ATOM     35  C   UNL d   1      25.022 -13.571  -3.310  0.00  0.00     0.001 A 
ATOM     36  C   UNL d   1      26.150 -13.088  -2.672  0.00  0.00     0.009 A 
ENDBRANCH  30  31
ENDBRANCH  29  30
ENDBRANCH   7  29
TORSDOF 12
ENDMDL
MODEL 6
REMARK VINA RESULT:   -30.317      4.168      6.751
REMARK INTER + INTRA:         -36.813
REMARK INTER:                 -33.896
REMARK INTRA:                  -2.917
REMARK CONF_INDEPENDENT:        3.580
REMARK UNBOUND:                -2.917
REMARK  12 active torsions:
REMARK  status: ('A' for Active; 'I' for Inactive)
REMARK    1  A    between atoms: C_2  and  O_3 
REMARK    2  A    between atoms: O_3  and  C_4 
REMARK    3  A    between atoms: C_6  and  C_7 
REMARK    4  A    between atoms: C_7  and  N_8 
REMARK    5  A    between atoms: N_8  and  C_9 
REMARK    6  A    between atoms: C_9  and  C_10 
REMARK    7  A    between atoms: C_10  and  N_11 
REMARK       I    between atoms: N_11  and  C_12 
REMARK    8  A    between atoms: C_12  and  C_14 
REMARK    9  A    between atoms: C_18  and  N_19 
REMARK   10  A    between atoms: C_23  and  O_24 
REMARK   11  A    between atoms: O_24  and  C_25 
REMARK   12  A    between atoms: C_25  and  C_26 
ROOT
ATOM      1  C   UNL d   1      27.207 -14.565  -1.393  0.00  0.00     0.103 A 
ATOM      2  C   UNL d   1      26.811 -15.910  -1.402  0.00  0.00     0.048 A 
ATOM      3  C   UNL d   1      26.832 -16.658  -0.223  0.00  0.00    -0.029 A 
ATOM      4  C   UNL d   1      27.283 -16.049   0.946  0.00  0.00     0.031 A 
ATOM      5  C   UNL d   1      27.720 -14.735   0.986  0.00  0.00     0.047 A 
ATOM      6 BR   UNL d   1      28.274 -14.292   2.770  0.00  0.00    -0.048 Br
ATOM      7  C   UNL d   1      27.697 -13.968  -0.189  0.00  0.00     0.119 A 
ENDROOT
BRANCH   3   8
ATOM      8  C   UNL d   1      26.383 -18.086  -0.208  0.00  0.00     0.271 C 
BRANCH   8   9
ATOM      9  N   UNL d   1      24.892 -18.206  -0.272  0.00  0.00    -0.070 N 
ATOM     10  H   UNL d   1      24.503 -17.871   0.622  0.00  0.00     0.277 HD
ATOM     11  H   UNL d   1      24.652 -19.205  -0.351  0.00  0.00     0.277 HD
BRANCH   9  12
ATOM     12  C   UNL d   1      24.274 -17.461  -1.384  0.00  0.00     0.252 C 
BRANCH  12  13
ATOM     13  C   UNL d   1      23.069 -16.660  -0.895  0.00  0.00     0.150 C 
BRANCH  13  14
ATOM     14  N   UNL d   1      21.860 -17.456  -0.894  0.00  0.00    -0.354 N 
ATOM     15  C   UNL d   1      21.769 -18.590  -0.098  0.00  0.00     0.276 C 
ATOM     16  O   UNL d   1      22.727 -18.943   0.597  0.00  0.00    -0.266 OA
ATOM     17  H   UNL d   1      20.999 -17.118  -1.317  0.00  0.00     0.162 HD
BRANCH  15  18
ATOM     18  C   UNL d   1      20.502 -19.299  -0.153  0.00  0.00     0.201 A 
ATOM     19  N   UNL d   1      19.755 -19.324  -1.264  0.00  0.00    -0.096 NA
ATOM     20  O   UNL d   1      18.632 -20.072  -0.930  0.00  0.00    -0.104 OA
ATOM     21  N   UNL d   1      18.695 -20.512   0.387  0.00  0.00    -0.085 NA
ATOM     22  C   UNL d   1      19.849 -20.050   0.856  0.00  0.00     0.188 A 
BRANCH  22  23
ATOM     23  N   UNL d   1      20.309 -20.286   2.105  0.00  0.00    -0.380 N 
ATOM     24  H   UNL d   1      20.803 -19.518   2.562  0.00  0.00     0.158 HD
ATOM     25  H   UNL d   1      20.633 -21.198   2.400  0.00  0.00     0.158 HD
ENDBRANCH  22  23
ENDBRANCH  15  18
ENDBRANCH  13  14
ENDBRANCH  12  13
ENDBRANCH   9  12
ENDBRANCH   8   9
ENDBRANCH   3   8
BRANCH   1  26
ATOM     26  O   UNL d   1      27.221 -13.830  -2.564  0.00  0.00    -0.349 OA
BRANCH  26  27
ATOM     27  C   UNL d   1      25.938 -13.534  -3.149  0.00  0.00     0.171 C 
ATOM     28  C   UNL d   1      25.929 -13.960  -4.612  0.00  0.00     0.034 C 
ENDBRANCH  26  27
ENDBRANCH   1  26
BRANCH   7  29
ATOM     29  O   UNL d   1      28.099 -12.667  -0.316  0.00  0.00    -0.342 OA
BRANCH  29  30
ATOM     30  C   UNL d   1      27.094 -11.659  -0.244  0.00  0.00     0.214 C 
BRANCH  30  31
ATOM     31  C   UNL d   1      27.267 -10.769   0.942  0.00  0.00    -0.034 A 
ATOM     32  C   UNL d   1      28.232  -9.750   0.910  0.00  0.00     0.009 A 
ATOM     33  C   UNL d   1      28.493  -9.022   2.064  0.00  0.00     0.001 A 
ATOM     34  C   UNL d   1      27.725  -9.241   3.207  0.00  0.00     0.000 A 
ATOM     35  C   UNL d   1      26.719 -10.206   3.213  0.00  0.00     0.001 A 
ATOM     36  C   UNL d   1      26.489 -10.968   2.081  0.00  0.00     0.009 A 
ENDBRANCH  30  31
ENDBRANCH  29  30
ENDBRANCH   7  29
TORSDOF 12
ENDMDL
MODEL 7
REMARK VINA RESULT:   -30.219      2.497      3.728
REMARK INTER + INTRA:         -36.884
REMARK INTER:                 -33.798
REMARK INTRA:                  -3.085
REMARK CONF_INDEPENDENT:        3.580
REMARK UNBOUND:                -3.085
REMARK  12 active torsions:
REMARK  status: ('A' for Active; 'I' for Inactive)
REMARK    1  A    between atoms: C_2  and  O_3 
REMARK    2  A    between atoms: O_3  and  C_4 
REMARK    3  A    between atoms: C_6  and  C_7 
REMARK    4  A    between atoms: C_7  and  N_8 
REMARK    5  A    between atoms: N_8  and  C_9 
REMARK    6  A    between atoms: C_9  and  C_10 
REMARK    7  A    between atoms: C_10  and  N_11 
REMARK       I    between atoms: N_11  and  C_12 
REMARK    8  A    between atoms: C_12  and  C_14 
REMARK    9  A    between atoms: C_18  and  N_19 
REMARK   10  A    between atoms: C_23  and  O_24 
REMARK   11  A    between atoms: O_24  and  C_25 
REMARK   12  A    between atoms: C_25  and  C_26 
ROOT
ATOM      1  C   UNL d   1      27.911 -15.411  -1.814  0.00  0.00     0.103 A 
ATOM      2  C   UNL d   1      27.063 -16.072  -0.914  0.00  0.00     0.048 A 
ATOM      3  C   UNL d   1      27.496 -17.225  -0.255  0.00  0.00    -0.029 A 
ATOM      4  C   UNL d   1      28.769 -17.716  -0.537  0.00  0.00     0.031 A 
ATOM      5  C   UNL d   1      29.620 -17.114  -1.449  0.00  0.00     0.047 A 
ATOM      6 BR   UNL d   1      31.258 -18.108  -1.559  0.00  0.00    -0.048 Br
ATOM      7  C   UNL d   1      29.201 -15.950  -2.113  0.00  0.00     0.119 A 
ENDROOT
BRANCH   3   8
ATOM      8  C   UNL d   1      26.615 -17.926   0.732  0.00  0.00     0.271 C 
BRANCH   8   9
ATOM      9  N   UNL d   1      25.166 -17.629   0.502  0.00  0.00    -0.070 N 
ATOM     10  H   UNL d   1      25.024 -16.614   0.613  0.00  0.00     0.277 HD
ATOM     11  H   UNL d   1      24.620 -18.093   1.241  0.00  0.00     0.277 HD
BRANCH   9  12
ATOM     12  C   UNL d   1      24.666 -18.051  -0.820  0.00  0.00     0.252 C 
BRANCH  12  13
ATOM     13  C   UNL d   1      23.487 -17.183  -1.254  0.00  0.00     0.150 C 
BRANCH  13  14
ATOM     14  N   UNL d   1      22.240 -17.916  -1.221  0.00  0.00    -0.354 N 
ATOM     15  C   UNL d   1      21.849 -18.580  -0.065  0.00  0.00     0.276 C 
ATOM     16  O   UNL d   1      22.573 -18.571   0.934  0.00  0.00    -0.266 OA
ATOM     17  H   UNL d   1      21.542 -17.816  -1.955  0.00  0.00     0.162 HD
BRANCH  15  18
ATOM     18  C   UNL d   1      20.567 -19.262  -0.134  0.00  0.00     0.201 A 
ATOM     19  N   UNL d   1      19.861 -19.325  -1.269  0.00  0.00    -0.096 NA
ATOM     20  O   UNL d   1      18.708 -20.029  -0.940  0.00  0.00    -0.104 OA
ATOM     21  N   UNL d   1      18.712 -20.404   0.398  0.00  0.00    -0.085 NA
ATOM     22  C   UNL d   1      19.859 -19.945   0.887  0.00  0.00     0.188 A 
BRANCH  22  23
ATOM     23  N   UNL d   1      20.268 -20.128   2.163  0.00  0.00    -0.380 N 
ATOM     24  H   UNL d   1      21.213 -19.816   2.388  0.00  0.00     0.158 HD
ATOM     25  H   UNL d   1      19.965 -20.916   2.721  0.00  0.00     0.158 HD
ENDBRANCH  22  23
ENDBRANCH  15  18
ENDBRANCH  13  14
ENDBRANCH  12  13
ENDBRANCH   9  12
ENDBRANCH   8   9
ENDBRANCH   3   8
BRANCH   1  26
ATOM     26  O   UNL d   1      27.474 -14.290  -2.495  0.00  0.00    -0.349 OA
BRANCH  26  27
ATOM     27  C   UNL d   1      26.073 -14.251  -2.830  0.00  0.00     0.171 C 
ATOM     28  C   UNL d   1      25.828 -15.047  -4.106  0.00  0.00     0.034 C 
ENDBRANCH  26  27
ENDBRANCH   1  26
BRANCH   7  29
ATOM     29  O   UNL d   1      29.916 -15.245  -3.041  0.00  0.00    -0.342 OA
BRANCH  29  30
ATOM     30  C   UNL d   1      29.945 -15.753  -4.372  0.00  0.00     0.214 C 
BRANCH  30  31
ATOM     31  C   UNL d   1      29.712 -14.688  -5.392  0.00  0.00    -0.034 A 
ATOM     32  C   UNL d   1      30.317 -13.431  -5.233  0.00  0.00     0.009 A 
ATOM     33  C   UNL d   1      29.982 -12.399  -6.101  0.00  0.00     0.001 A 
ATOM     34  C   UNL d   1      29.130 -12.650  -7.176  0.00  0.00     0.000 A 
ATOM     35  C   UNL d   1      28.587 -13.919  -7.371  0.00  0.00     0.001 A 
ATOM     36  C   UNL d   1      28.880 -14.937  -6.481  0.00  0.00     0.009 A 
ENDBRANCH  30  31
ENDBRANCH  29  30
ENDBRANCH   7  29
TORSDOF 12
ENDMDL
MODEL 8
REMARK VINA RESULT:   -30.046      1.905      3.037
REMARK INTER + INTRA:         -36.654
REMARK INTER:                 -33.626
REMARK INTRA:                  -3.028
REMARK CONF_INDEPENDENT:        3.580
REMARK UNBOUND:                -3.028
REMARK  12 active torsions:
REMARK  status: ('A' for Active; 'I' for Inactive)
REMARK    1  A    between atoms: C_2  and  O_3 
REMARK    2  A    between atoms: O_3  and  C_4 
REMARK    3  A    between atoms: C_6  and  C_7 
REMARK    4  A    between atoms: C_7  and  N_8 
REMARK    5  A    between atoms: N_8  and  C_9 
REMARK    6  A    between atoms: C_9  and  C_10 
REMARK    7  A    between atoms: C_10  and  N_11 
REMARK       I    between atoms: N_11  and  C_12 
REMARK    8  A    between atoms: C_12  and  C_14 
REMARK    9  A    between atoms: C_18  and  N_19 
REMARK   10  A    between atoms: C_23  and  O_24 
REMARK   11  A    between atoms: O_24  and  C_25 
REMARK   12  A    between atoms: C_25  and  C_26 
ROOT
ATOM      1  C   UNL d   1      27.749 -15.957  -2.567  0.00  0.00     0.103 A 
ATOM      2  C   UNL d   1      26.982 -16.674  -1.638  0.00  0.00     0.048 A 
ATOM      3  C   UNL d   1      27.456 -16.876  -0.340  0.00  0.00    -0.029 A 
ATOM      4  C   UNL d   1      28.713 -16.379  -0.003  0.00  0.00     0.031 A 
ATOM      5  C   UNL d   1      29.517 -15.700  -0.904  0.00  0.00     0.047 A 
ATOM      6 BR   UNL d   1      31.165 -15.205  -0.055  0.00  0.00    -0.048 Br
ATOM      7  C   UNL d   1      29.050 -15.482  -2.211  0.00  0.00     0.119 A 
ENDROOT
BRANCH   3   8
ATOM      8  C   UNL d   1      26.637 -17.613   0.674  0.00  0.00     0.271 C 
BRANCH   8   9
ATOM      9  N   UNL d   1      25.179 -17.601   0.334  0.00  0.00    -0.070 N 
ATOM     10  H   UNL d   1      24.902 -16.627   0.139  0.00  0.00     0.277 HD
ATOM     11  H   UNL d   1      24.651 -17.904   1.165  0.00  0.00     0.277 HD
BRANCH   9  12
ATOM     12  C   UNL d   1      24.820 -18.451  -0.816  0.00  0.00     0.252 C 
BRANCH  12  13
ATOM     13  C   UNL d   1      23.738 -17.785  -1.664  0.00  0.00     0.150 C 
BRANCH  13  14
ATOM     14  N   UNL d   1      22.456 -18.437  -1.506  0.00  0.00    -0.354 N 
ATOM     15  C   UNL d   1      21.926 -18.640  -0.239  0.00  0.00     0.276 C 
ATOM     16  O   UNL d   1      22.555 -18.291   0.764  0.00  0.00    -0.266 OA
ATOM     17  H   UNL d   1      21.835 -18.590  -2.297  0.00  0.00     0.162 HD
BRANCH  15  18
ATOM     18  C   UNL d   1      20.621 -19.279  -0.197  0.00  0.00     0.201 A 
ATOM     19  N   UNL d   1      19.822 -19.322  -1.270  0.00  0.00    -0.096 NA
ATOM     20  O   UNL d   1      18.677 -19.986  -0.843  0.00  0.00    -0.104 OA
ATOM     21  N   UNL d   1      18.779 -20.356   0.492  0.00  0.00    -0.085 NA
ATOM     22  C   UNL d   1      19.977 -19.935   0.883  0.00  0.00     0.188 A 
BRANCH  22  23
ATOM     23  N   UNL d   1      20.484 -20.127   2.121  0.00  0.00    -0.380 N 
ATOM     24  H   UNL d   1      21.222 -19.487   2.417  0.00  0.00     0.158 HD
ATOM     25  H   UNL d   1      20.564 -21.046   2.537  0.00  0.00     0.158 HD
ENDBRANCH  22  23
ENDBRANCH  15  18
ENDBRANCH  13  14
ENDBRANCH  12  13
ENDBRANCH   9  12
ENDBRANCH   8   9
ENDBRANCH   3   8
BRANCH   1  26
ATOM     26  O   UNL d   1      27.300 -15.784  -3.863  0.00  0.00    -0.349 OA
BRANCH  26  27
ATOM     27  C   UNL d   1      26.762 -14.488  -4.186  0.00  0.00     0.171 C 
ATOM     28  C   UNL d   1      25.287 -14.434  -3.805  0.00  0.00     0.034 C 
ENDBRANCH  26  27
ENDBRANCH   1  26
BRANCH   7  29
ATOM     29  O   UNL d   1      29.721 -14.840  -3.214  0.00  0.00    -0.342 OA
BRANCH  29  30
ATOM     30  C   UNL d   1      30.963 -15.399  -3.637  0.00  0.00     0.214 C 
BRANCH  30  31
ATOM     31  C   UNL d   1      30.838 -16.838  -4.014  0.00  0.00    -0.034 A 
ATOM     32  C   UNL d   1      31.162 -17.832  -3.077  0.00  0.00     0.009 A 
ATOM     33  C   UNL d   1      31.187 -19.163  -3.477  0.00  0.00     0.001 A 
ATOM     34  C   UNL d   1      30.795 -19.502  -4.771  0.00  0.00     0.000 A 
ATOM     35  C   UNL d   1      30.406 -18.518  -5.678  0.00  0.00     0.001 A 
ATOM     36  C   UNL d   1      30.426 -17.187  -5.299  0.00  0.00     0.009 A 
ENDBRANCH  30  31
ENDBRANCH  29  30
ENDBRANCH   7  29
TORSDOF 12
ENDMDL
MODEL 9
REMARK VINA RESULT:   -29.291      3.902      5.777
REMARK INTER + INTRA:         -36.590
REMARK INTER:                 -32.871
REMARK INTRA:                  -3.719
REMARK CONF_INDEPENDENT:        3.580
REMARK UNBOUND:                -3.719
REMARK  12 active torsions:
REMARK  status: ('A' for Active; 'I' for Inactive)
REMARK    1  A    between atoms: C_2  and  O_3 
REMARK    2  A    between atoms: O_3  and  C_4 
REMARK    3  A    between atoms: C_6  and  C_7 
REMARK    4  A    between atoms: C_7  and  N_8 
REMARK    5  A    between atoms: N_8  and  C_9 
REMARK    6  A    between atoms: C_9  and  C_10 
REMARK    7  A    between atoms: C_10  and  N_11 
REMARK       I    between atoms: N_11  and  C_12 
REMARK    8  A    between atoms: C_12  and  C_14 
REMARK    9  A    between atoms: C_18  and  N_19 
REMARK   10  A    between atoms: C_23  and  O_24 
REMARK   11  A    between atoms: O_24  and  C_25 
REMARK   12  A    between atoms: C_25  and  C_26 
ROOT
ATOM      1  C   UNL d   1      27.346 -14.732   0.068  0.00  0.00     0.103 A 
ATOM      2  C   UNL d   1      26.580 -15.853   0.419  0.00  0.00     0.048 A 
ATOM      3  C   UNL d   1      27.150 -17.128   0.403  0.00  0.00    -0.029 A 
ATOM      4  C   UNL d   1      28.478 -17.260   0.003  0.00  0.00     0.031 A 
ATOM      5  C   UNL d   1      29.254 -16.182  -0.387  0.00  0.00     0.047 A 
ATOM      6 BR   UNL d   1      31.007 -16.791  -0.879  0.00  0.00    -0.048 Br
ATOM      7  C   UNL d   1      28.697 -14.893  -0.369  0.00  0.00     0.119 A 
ENDROOT
BRANCH   3   8
ATOM      8  C   UNL d   1      26.356 -18.332   0.804  0.00  0.00     0.271 C 
BRANCH   8   9
ATOM      9  N   UNL d   1      24.913 -18.203   0.429  0.00  0.00    -0.070 N 
ATOM     10  H   UNL d   1      24.518 -17.397   0.937  0.00  0.00     0.277 HD
ATOM     11  H   UNL d   1      24.416 -19.042   0.761  0.00  0.00     0.277 HD
BRANCH   9  12
ATOM     12  C   UNL d   1      24.678 -18.031  -1.017  0.00  0.00     0.252 C 
BRANCH  12  13
ATOM     13  C   UNL d   1      23.455 -17.149  -1.265  0.00  0.00     0.150 C 
BRANCH  13  14
ATOM     14  N   UNL d   1      22.227 -17.914  -1.235  0.00  0.00    -0.354 N 
ATOM     15  C   UNL d   1      21.837 -18.566  -0.072  0.00  0.00     0.276 C 
ATOM     16  O   UNL d   1      22.546 -18.519   0.937  0.00  0.00    -0.266 OA
ATOM     17  H   UNL d   1      21.538 -17.845  -1.980  0.00  0.00     0.162 HD
BRANCH  15  18
ATOM     18  C   UNL d   1      20.573 -19.281  -0.145  0.00  0.00     0.201 A 
ATOM     19  N   UNL d   1      19.850 -19.323  -1.270  0.00  0.00    -0.096 NA
ATOM     20  O   UNL d   1      18.723 -20.072  -0.950  0.00  0.00    -0.104 OA
ATOM     21  N   UNL d   1      18.761 -20.496   0.372  0.00  0.00    -0.085 NA
ATOM     22  C   UNL d   1      19.903 -20.023   0.860  0.00  0.00     0.188 A 
BRANCH  22  23
ATOM     23  N   UNL d   1      20.339 -20.242   2.121  0.00  0.00    -0.380 N 
ATOM     24  H   UNL d   1      21.080 -19.627   2.461  0.00  0.00     0.158 HD
ATOM     25  H   UNL d   1      20.371 -21.166   2.531  0.00  0.00     0.158 HD
ENDBRANCH  22  23
ENDBRANCH  15  18
ENDBRANCH  13  14
ENDBRANCH  12  13
ENDBRANCH   9  12
ENDBRANCH   8   9
ENDBRANCH   3   8
BRANCH   1  26
ATOM     26  O   UNL d   1      26.777 -13.472   0.049  0.00  0.00    -0.349 OA
BRANCH  26  27
ATOM     27  C   UNL d   1      26.403 -12.959  -1.245  0.00  0.00     0.171 C 
ATOM     28  C   UNL d   1      25.873 -14.094  -2.114  0.00  0.00     0.034 C 
ENDBRANCH  26  27
ENDBRANCH   1  26
BRANCH   7  29
ATOM     29  O   UNL d   1      29.326 -13.733  -0.730  0.00  0.00    -0.342 OA
BRANCH  29  30
ATOM     30  C   UNL d   1      29.435 -12.711   0.257  0.00  0.00     0.214 C 
BRANCH  30  31
ATOM     31  C   UNL d   1      29.766 -13.257   1.606  0.00  0.00    -0.034 A 
ATOM     32  C   UNL d   1      30.878 -14.099   1.760  0.00  0.00     0.009 A 
ATOM     33  C   UNL d   1      31.097 -14.723   2.982  0.00  0.00     0.001 A 
ATOM     34  C   UNL d   1      30.271 -14.427   4.066  0.00  0.00     0.000 A 
ATOM     35  C   UNL d   1      29.209 -13.534   3.927  0.00  0.00     0.001 A 
ATOM     36  C   UNL d   1      28.958 -12.949   2.699  0.00  0.00     0.009 A 
ENDBRANCH  30  31
ENDBRANCH  29  30
ENDBRANCH   7  29
TORSDOF 12
ENDMDL
