MODEL 1
REMARK VINA RESULT:    -8.534      0.000      0.000
REMARK INTER + INTRA:         -11.931
REMARK INTER:                 -10.622
REMARK INTRA:                  -1.309
REMARK CONF_INDEPENDENT:        2.088
REMARK UNBOUND:                -1.309
REMARK  7 active torsions:
REMARK  status: ('A' for Active; 'I' for Inactive)
REMARK    1  A    between atoms: C_2  and  N_3 
REMARK    2  A    between atoms: N_3  and  S_4 
REMARK    3  A    between atoms: S_4  and  C_7 
REMARK    4  A    between atoms: C_9  and  C_10 
REMARK       I    between atoms: C_10  and  N_12 
REMARK    5  A    between atoms: N_12  and  C_13 
REMARK    6  A    between atoms: C_17  and  N_18 
REMARK    7  A    between atoms: C_25  and  O_26 
ROOT
ATOM      1  C   UNL d   1      23.939 -17.110  -0.842  0.00  0.00     0.108 C 
ATOM      2  C   UNL d   1      24.083 -16.022  -1.740  0.00  0.00     0.044 C 
ATOM      3  C   UNL d   1      25.345 -15.457  -2.060  0.00  0.00     0.034 C 
ATOM      4  C   UNL d   1      26.459 -15.834  -1.337  0.00  0.00     0.020 C 
ATOM      5  C   UNL d   1      26.336 -16.896  -0.446  0.00  0.00     0.039 C 
ATOM      6  C   UNL d   1      25.107 -17.564  -0.201  0.00  0.00     0.091 C 
ENDROOT
BRANCH   3   7
ATOM      7  C   UNL d   1      25.457 -14.629  -3.293  0.00  0.00     0.256 C 
ATOM      8  O   UNL d   1      24.410 -14.449  -3.912  0.00  0.00    -0.267 OA
ATOM      9  N   UNL d   1      26.707 -14.203  -3.749  0.00  0.00    -0.322 N 
ATOM     10  H   UNL d   1      27.536 -14.718  -3.485  0.00  0.00     0.169 HD
BRANCH   9  11
ATOM     11  C   UNL d   1      26.860 -13.264  -4.812  0.00  0.00     0.043 A 
ATOM     12  C   UNL d   1      26.035 -12.123  -4.813  0.00  0.00     0.030 A 
ATOM     13  C   UNL d   1      26.092 -11.211  -5.868  0.00  0.00     0.005 A 
ATOM     14  C   UNL d   1      26.988 -11.420  -6.916  0.00  0.00     0.037 A 
ATOM     15  C   UNL d   1      27.797 -12.575  -6.957  0.00  0.00     0.111 A 
ATOM     16  C   UNL d   1      27.744 -13.520  -5.904  0.00  0.00    -0.002 A 
ATOM     17  C   UNL d   1      28.527 -14.806  -5.895  0.00  0.00     0.053 C 
BRANCH  15  18
ATOM     18  N   UNL d   1      28.628 -12.744  -8.179  0.00  0.00    -0.115 N 
ATOM     19  O   UNL d   1      28.069 -12.586  -9.273  0.00  0.00    -0.532 OA
ATOM     20  O   UNL d   1      29.815 -13.063  -8.083  0.00  0.00    -0.532 OA
ENDBRANCH  15  18
ENDBRANCH   9  11
ENDBRANCH   3   7
BRANCH   1  21
ATOM     21  S   UNL d   1      22.271 -17.834  -0.892  0.00  0.00     0.244 S 
ATOM     22  O   UNL d   1      22.110 -18.945  -1.815  0.00  0.00    -0.206 OA
ATOM     23  O   UNL d   1      21.319 -16.761  -0.950  0.00  0.00    -0.206 OA
BRANCH  21  24
ATOM     24  N   UNL d   1      22.123 -18.626   0.614  0.00  0.00    -0.216 NA
ATOM     25  H   UNL d   1      22.967 -19.162   0.821  0.00  0.00     0.139 HD
BRANCH  24  26
ATOM     26  C   UNL d   1      20.919 -19.510   0.588  0.00  0.00     0.100 C 
ATOM     27  C   UNL d   1      20.262 -19.556   1.942  0.00  0.00     0.021 C 
ENDBRANCH  24  26
ENDBRANCH  21  24
ENDBRANCH   1  21
BRANCH   6  28
ATOM     28  O   UNL d   1      25.353 -18.579   0.685  0.00  0.00    -0.354 OA
ATOM     29  C   UNL d   1      26.611 -18.569   1.301  0.00  0.00     0.210 C 
ENDBRANCH   6  28
TORSDOF 7
ENDMDL
MODEL 2
REMARK VINA RESULT:    -8.378      1.708      2.145
REMARK INTER + INTRA:         -11.690
REMARK INTER:                 -10.467
REMARK INTRA:                  -1.223
REMARK CONF_INDEPENDENT:        2.088
REMARK UNBOUND:                -1.223
REMARK  7 active torsions:
REMARK  status: ('A' for Active; 'I' for Inactive)
REMARK    1  A    between atoms: C_2  and  N_3 
REMARK    2  A    between atoms: N_3  and  S_4 
REMARK    3  A    between atoms: S_4  and  C_7 
REMARK    4  A    between atoms: C_9  and  C_10 
REMARK       I    between atoms: C_10  and  N_12 
REMARK    5  A    between atoms: N_12  and  C_13 
REMARK    6  A    between atoms: C_17  and  N_18 
REMARK    7  A    between atoms: C_25  and  O_26 
ROOT
ATOM      1  C   UNL d   1      23.937 -17.082  -0.780  0.00  0.00     0.108 C 
ATOM      2  C   UNL d   1      24.092 -16.031  -1.719  0.00  0.00     0.044 C 
ATOM      3  C   UNL d   1      25.347 -15.427  -1.990  0.00  0.00     0.034 C 
ATOM      4  C   UNL d   1      26.429 -15.721  -1.184  0.00  0.00     0.020 C 
ATOM      5  C   UNL d   1      26.295 -16.745  -0.252  0.00  0.00     0.039 C 
ATOM      6  C   UNL d   1      25.082 -17.455  -0.049  0.00  0.00     0.091 C 
ENDROOT
BRANCH   3   7
ATOM      7  C   UNL d   1      25.499 -14.652  -3.253  0.00  0.00     0.256 C 
ATOM      8  O   UNL d   1      24.464 -14.450  -3.884  0.00  0.00    -0.267 OA
ATOM      9  N   UNL d   1      26.769 -14.299  -3.718  0.00  0.00    -0.322 N 
ATOM     10  H   UNL d   1      27.573 -14.839  -3.430  0.00  0.00     0.169 HD
BRANCH   9  11
ATOM     11  C   UNL d   1      26.968 -13.408  -4.815  0.00  0.00     0.043 A 
ATOM     12  C   UNL d   1      27.791 -13.834  -5.875  0.00  0.00     0.030 A 
ATOM     13  C   UNL d   1      28.079 -12.975  -6.935  0.00  0.00     0.005 A 
ATOM     14  C   UNL d   1      27.529 -11.693  -6.957  0.00  0.00     0.037 A 
ATOM     15  C   UNL d   1      26.733 -11.230  -5.887  0.00  0.00     0.111 A 
ATOM     16  C   UNL d   1      26.442 -12.082  -4.795  0.00  0.00    -0.002 A 
ATOM     17  C   UNL d   1      25.652 -11.651  -3.587  0.00  0.00     0.053 C 
BRANCH  15  18
ATOM     18  N   UNL d   1      26.299  -9.810  -5.968  0.00  0.00    -0.115 N 
ATOM     19  O   UNL d   1      25.120  -9.592  -6.283  0.00  0.00    -0.532 OA
ATOM     20  O   UNL d   1      27.106  -8.901  -5.757  0.00  0.00    -0.532 OA
ENDBRANCH  15  18
ENDBRANCH   9  11
ENDBRANCH   3   7
BRANCH   1  21
ATOM     21  S   UNL d   1      22.307 -17.882  -0.894  0.00  0.00     0.244 S 
ATOM     22  O   UNL d   1      22.225 -18.980  -1.843  0.00  0.00    -0.206 OA
ATOM     23  O   UNL d   1      21.308 -16.852  -0.959  0.00  0.00    -0.206 OA
BRANCH  21  24
ATOM     24  N   UNL d   1      22.152 -18.710   0.591  0.00  0.00    -0.216 NA
ATOM     25  H   UNL d   1      23.005 -19.231   0.802  0.00  0.00     0.139 HD
BRANCH  24  26
ATOM     26  C   UNL d   1      20.970 -19.621   0.526  0.00  0.00     0.100 C 
ATOM     27  C   UNL d   1      20.281 -19.699   1.862  0.00  0.00     0.021 C 
ENDBRANCH  24  26
ENDBRANCH  21  24
ENDBRANCH   1  21
BRANCH   6  28
ATOM     28  O   UNL d   1      25.314 -18.416   0.898  0.00  0.00    -0.354 OA
ATOM     29  C   UNL d   1      26.646 -18.575   1.301  0.00  0.00     0.210 C 
ENDBRANCH   6  28
TORSDOF 7
ENDMDL
MODEL 3
REMARK VINA RESULT:    -7.217      5.320      8.237
REMARK INTER + INTRA:         -10.178
REMARK INTER:                  -9.305
REMARK INTRA:                  -0.872
REMARK CONF_INDEPENDENT:        2.088
REMARK UNBOUND:                -0.872
REMARK  7 active torsions:
REMARK  status: ('A' for Active; 'I' for Inactive)
REMARK    1  A    between atoms: C_2  and  N_3 
REMARK    2  A    between atoms: N_3  and  S_4 
REMARK    3  A    between atoms: S_4  and  C_7 
REMARK    4  A    between atoms: C_9  and  C_10 
REMARK       I    between atoms: C_10  and  N_12 
REMARK    5  A    between atoms: N_12  and  C_13 
REMARK    6  A    between atoms: C_17  and  N_18 
REMARK    7  A    between atoms: C_25  and  O_26 
ROOT
ATOM      1  C   UNL d   1      25.542 -15.769  -1.378  0.00  0.00     0.108 C 
ATOM      2  C   UNL d   1      26.132 -15.392  -0.145  0.00  0.00     0.044 C 
ATOM      3  C   UNL d   1      26.677 -14.101   0.079  0.00  0.00     0.034 C 
ATOM      4  C   UNL d   1      26.825 -13.234  -0.986  0.00  0.00     0.020 C 
ATOM      5  C   UNL d   1      26.258 -13.589  -2.206  0.00  0.00     0.039 C 
ATOM      6  C   UNL d   1      25.593 -14.825  -2.422  0.00  0.00     0.091 C 
ENDROOT
BRANCH   3   7
ATOM      7  C   UNL d   1      26.885 -13.656   1.484  0.00  0.00     0.256 C 
ATOM      8  O   UNL d   1      26.003 -12.940   1.955  0.00  0.00    -0.267 OA
ATOM      9  N   UNL d   1      28.076 -13.953   2.152  0.00  0.00    -0.322 N 
ATOM     10  H   UNL d   1      28.913 -14.140   1.618  0.00  0.00     0.169 HD
BRANCH   9  11
ATOM     11  C   UNL d   1      28.258 -13.713   3.548  0.00  0.00     0.043 A 
ATOM     12  C   UNL d   1      28.310 -14.825   4.410  0.00  0.00     0.030 A 
ATOM     13  C   UNL d   1      28.411 -14.644   5.790  0.00  0.00     0.005 A 
ATOM     14  C   UNL d   1      28.484 -13.355   6.316  0.00  0.00     0.037 A 
ATOM     15  C   UNL d   1      28.394 -12.224   5.475  0.00  0.00     0.111 A 
ATOM     16  C   UNL d   1      28.276 -12.387   4.073  0.00  0.00    -0.002 A 
ATOM     17  C   UNL d   1      28.116 -11.240   3.111  0.00  0.00     0.053 C 
BRANCH  15  18
ATOM     18  N   UNL d   1      28.368 -10.905   6.160  0.00  0.00    -0.115 N 
ATOM     19  O   UNL d   1      28.530 -10.898   7.389  0.00  0.00    -0.532 OA
ATOM     20  O   UNL d   1      28.158  -9.875   5.515  0.00  0.00    -0.532 OA
ENDBRANCH  15  18
ENDBRANCH   9  11
ENDBRANCH   3   7
BRANCH   1  21
ATOM     21  S   UNL d   1      24.632 -17.340  -1.261  0.00  0.00     0.244 S 
ATOM     22  O   UNL d   1      25.138 -18.271  -0.268  0.00  0.00    -0.206 OA
ATOM     23  O   UNL d   1      24.405 -17.825  -2.594  0.00  0.00    -0.206 OA
BRANCH  21  24
ATOM     24  N   UNL d   1      23.134 -16.895  -0.571  0.00  0.00    -0.216 NA
ATOM     25  H   UNL d   1      23.258 -16.124   0.087  0.00  0.00     0.139 HD
BRANCH  24  26
ATOM     26  C   UNL d   1      22.530 -18.084   0.101  0.00  0.00     0.100 C 
ATOM     27  C   UNL d   1      21.805 -18.950  -0.895  0.00  0.00     0.021 C 
ENDBRANCH  24  26
ENDBRANCH  21  24
ENDBRANCH   1  21
BRANCH   6  28
ATOM     28  O   UNL d   1      25.119 -14.826  -3.707  0.00  0.00    -0.354 OA
ATOM     29  C   UNL d   1      26.070 -15.039  -4.714  0.00  0.00     0.210 C 
ENDBRANCH   6  28
TORSDOF 7
ENDMDL
MODEL 4
REMARK VINA RESULT:    -7.000      5.172      8.041
REMARK INTER + INTRA:         -10.389
REMARK INTER:                  -9.088
REMARK INTRA:                  -1.301
REMARK CONF_INDEPENDENT:        2.088
REMARK UNBOUND:                -1.301
REMARK  7 active torsions:
REMARK  status: ('A' for Active; 'I' for Inactive)
REMARK    1  A    between atoms: C_2  and  N_3 
REMARK    2  A    between atoms: N_3  and  S_4 
REMARK    3  A    between atoms: S_4  and  C_7 
REMARK    4  A    between atoms: C_9  and  C_10 
REMARK       I    between atoms: C_10  and  N_12 
REMARK    5  A    between atoms: N_12  and  C_13 
REMARK    6  A    between atoms: C_17  and  N_18 
REMARK    7  A    between atoms: C_25  and  O_26 
ROOT
ATOM      1  C   UNL d   1      27.219 -15.165  -3.255  0.00  0.00     0.108 C 
ATOM      2  C   UNL d   1      26.773 -14.642  -2.015  0.00  0.00     0.044 C 
ATOM      3  C   UNL d   1      27.573 -14.669  -0.843  0.00  0.00     0.034 C 
ATOM      4  C   UNL d   1      28.746 -15.397  -0.839  0.00  0.00     0.020 C 
ATOM      5  C   UNL d   1      29.197 -15.924  -2.045  0.00  0.00     0.039 C 
ATOM      6  C   UNL d   1      28.475 -15.801  -3.263  0.00  0.00     0.091 C 
ENDROOT
BRANCH   3   7
ATOM      7  C   UNL d   1      27.219 -13.750   0.274  0.00  0.00     0.256 C 
ATOM      8  O   UNL d   1      26.171 -14.004   0.865  0.00  0.00    -0.267 OA
ATOM      9  N   UNL d   1      27.991 -12.612   0.527  0.00  0.00    -0.322 N 
ATOM     10  H   UNL d   1      28.548 -12.213  -0.216  0.00  0.00     0.169 HD
BRANCH   9  11
ATOM     11  C   UNL d   1      27.810 -11.800   1.686  0.00  0.00     0.043 A 
ATOM     12  C   UNL d   1      28.022 -12.388   2.948  0.00  0.00     0.030 A 
ATOM     13  C   UNL d   1      27.786 -11.660   4.115  0.00  0.00     0.005 A 
ATOM     14  C   UNL d   1      27.360 -10.335   4.030  0.00  0.00     0.037 A 
ATOM     15  C   UNL d   1      27.103  -9.736   2.778  0.00  0.00     0.111 A 
ATOM     16  C   UNL d   1      27.322 -10.463   1.583  0.00  0.00    -0.002 A 
ATOM     17  C   UNL d   1      27.019  -9.923   0.211  0.00  0.00     0.053 C 
BRANCH  15  18
ATOM     18  N   UNL d   1      26.545  -8.359   2.819  0.00  0.00    -0.115 N 
ATOM     19  O   UNL d   1      27.017  -7.577   3.657  0.00  0.00    -0.532 OA
ATOM     20  O   UNL d   1      25.625  -8.039   2.061  0.00  0.00    -0.532 OA
ENDBRANCH  15  18
ENDBRANCH   9  11
ENDBRANCH   3   7
BRANCH   1  21
ATOM     21  S   UNL d   1      26.138 -14.687  -4.639  0.00  0.00     0.244 S 
ATOM     22  O   UNL d   1      24.750 -14.449  -4.281  0.00  0.00    -0.206 OA
ATOM     23  O   UNL d   1      26.415 -15.561  -5.744  0.00  0.00    -0.206 OA
BRANCH  21  24
ATOM     24  N   UNL d   1      26.657 -13.110  -5.037  0.00  0.00    -0.216 NA
ATOM     25  H   UNL d   1      27.612 -12.953  -4.710  0.00  0.00     0.139 HD
BRANCH  24  26
ATOM     26  C   UNL d   1      25.715 -12.117  -4.438  0.00  0.00     0.100 C 
ATOM     27  C   UNL d   1      26.452 -11.153  -3.545  0.00  0.00     0.021 C 
ENDBRANCH  24  26
ENDBRANCH  21  24
ENDBRANCH   1  21
BRANCH   6  28
ATOM     28  O   UNL d   1      29.222 -16.385  -4.251  0.00  0.00    -0.354 OA
ATOM     29  C   UNL d   1      29.602 -15.551  -5.310  0.00  0.00     0.210 C 
ENDBRANCH   6  28
TORSDOF 7
ENDMDL
MODEL 5
REMARK VINA RESULT:    -6.975      5.434      7.623
REMARK INTER + INTRA:         -10.555
REMARK INTER:                  -9.063
REMARK INTRA:                  -1.492
REMARK CONF_INDEPENDENT:        2.088
REMARK UNBOUND:                -1.492
REMARK  7 active torsions:
REMARK  status: ('A' for Active; 'I' for Inactive)
REMARK    1  A    between atoms: C_2  and  N_3 
REMARK    2  A    between atoms: N_3  and  S_4 
REMARK    3  A    between atoms: S_4  and  C_7 
REMARK    4  A    between atoms: C_9  and  C_10 
REMARK       I    between atoms: C_10  and  N_12 
REMARK    5  A    between atoms: N_12  and  C_13 
REMARK    6  A    between atoms: C_17  and  N_18 
REMARK    7  A    between atoms: C_25  and  O_26 
ROOT
ATOM      1  C   UNL d   1      25.823 -16.212  -0.843  0.00  0.00     0.108 C 
ATOM      2  C   UNL d   1      26.607 -15.619   0.180  0.00  0.00     0.044 C 
ATOM      3  C   UNL d   1      27.507 -14.551  -0.069  0.00  0.00     0.034 C 
ATOM      4  C   UNL d   1      27.790 -14.193  -1.373  0.00  0.00     0.020 C 
ATOM      5  C   UNL d   1      27.035 -14.767  -2.391  0.00  0.00     0.039 C 
ATOM      6  C   UNL d   1      26.036 -15.749  -2.156  0.00  0.00     0.091 C 
ENDROOT
BRANCH   3   7
ATOM      7  C   UNL d   1      27.961 -13.726   1.085  0.00  0.00     0.256 C 
ATOM      8  O   UNL d   1      29.167 -13.493   1.134  0.00  0.00    -0.267 OA
ATOM      9  N   UNL d   1      27.062 -13.361   2.091  0.00  0.00    -0.322 N 
ATOM     10  H   UNL d   1      26.231 -13.917   2.243  0.00  0.00     0.169 HD
BRANCH   9  11
ATOM     11  C   UNL d   1      27.393 -12.427   3.118  0.00  0.00     0.043 A 
ATOM     12  C   UNL d   1      27.952 -12.924   4.312  0.00  0.00     0.030 A 
ATOM     13  C   UNL d   1      28.224 -12.064   5.376  0.00  0.00     0.005 A 
ATOM     14  C   UNL d   1      27.962 -10.700   5.248  0.00  0.00     0.037 A 
ATOM     15  C   UNL d   1      27.366 -10.184   4.077  0.00  0.00     0.111 A 
ATOM     16  C   UNL d   1      27.069 -11.043   2.991  0.00  0.00    -0.002 A 
ATOM     17  C   UNL d   1      26.381 -10.589   1.732  0.00  0.00     0.053 C 
BRANCH  15  18
ATOM     18  N   UNL d   1      27.030  -8.736   4.102  0.00  0.00    -0.115 N 
ATOM     19  O   UNL d   1      27.456  -8.070   5.057  0.00  0.00    -0.532 OA
ATOM     20  O   UNL d   1      26.326  -8.247   3.216  0.00  0.00    -0.532 OA
ENDBRANCH  15  18
ENDBRANCH   9  11
ENDBRANCH   3   7
BRANCH   1  21
ATOM     21  S   UNL d   1      24.528 -17.304  -0.180  0.00  0.00     0.244 S 
ATOM     22  O   UNL d   1      23.294 -16.637   0.198  0.00  0.00    -0.206 OA
ATOM     23  O   UNL d   1      25.137 -18.194   0.768  0.00  0.00    -0.206 OA
BRANCH  21  24
ATOM     24  N   UNL d   1      24.019 -18.205  -1.538  0.00  0.00    -0.216 NA
ATOM     25  H   UNL d   1      24.216 -17.696  -2.401  0.00  0.00     0.139 HD
BRANCH  24  26
ATOM     26  C   UNL d   1      22.560 -18.502  -1.412  0.00  0.00     0.100 C 
ATOM     27  C   UNL d   1      22.287 -19.325  -0.181  0.00  0.00     0.021 C 
ENDBRANCH  24  26
ENDBRANCH  21  24
ENDBRANCH   1  21
BRANCH   6  28
ATOM     28  O   UNL d   1      25.463 -16.059  -3.360  0.00  0.00    -0.354 OA
ATOM     29  C   UNL d   1      25.834 -15.252  -4.444  0.00  0.00     0.210 C 
ENDBRANCH   6  28
TORSDOF 7
ENDMDL
MODEL 6
REMARK VINA RESULT:    -6.881      5.091      7.888
REMARK INTER + INTRA:         -10.045
REMARK INTER:                  -8.969
REMARK INTRA:                  -1.076
REMARK CONF_INDEPENDENT:        2.088
REMARK UNBOUND:                -1.076
REMARK  7 active torsions:
REMARK  status: ('A' for Active; 'I' for Inactive)
REMARK    1  A    between atoms: C_2  and  N_3 
REMARK    2  A    between atoms: N_3  and  S_4 
REMARK    3  A    between atoms: S_4  and  C_7 
REMARK    4  A    between atoms: C_9  and  C_10 
REMARK       I    between atoms: C_10  and  N_12 
REMARK    5  A    between atoms: N_12  and  C_13 
REMARK    6  A    between atoms: C_17  and  N_18 
REMARK    7  A    between atoms: C_25  and  O_26 
ROOT
ATOM      1  C   UNL d   1      26.899 -13.254  -4.892  0.00  0.00     0.108 C 
ATOM      2  C   UNL d   1      26.609 -12.283  -3.900  0.00  0.00     0.044 C 
ATOM      3  C   UNL d   1      27.026 -10.931  -4.010  0.00  0.00     0.034 C 
ATOM      4  C   UNL d   1      27.909 -10.572  -5.009  0.00  0.00     0.020 C 
ATOM      5  C   UNL d   1      28.211 -11.514  -5.988  0.00  0.00     0.039 C 
ATOM      6  C   UNL d   1      27.704 -12.840  -5.971  0.00  0.00     0.091 C 
ENDROOT
BRANCH   3   7
ATOM      7  C   UNL d   1      26.341  -9.911  -3.168  0.00  0.00     0.256 C 
ATOM      8  O   UNL d   1      25.151  -9.726  -3.413  0.00  0.00    -0.267 OA
ATOM      9  N   UNL d   1      27.068  -9.146  -2.251  0.00  0.00    -0.322 N 
ATOM     10  H   UNL d   1      28.061  -9.014  -2.389  0.00  0.00     0.169 HD
BRANCH   9  11
ATOM     11  C   UNL d   1      26.444  -8.289  -1.296  0.00  0.00     0.043 A 
ATOM     12  C   UNL d   1      25.813  -7.120  -1.765  0.00  0.00     0.030 A 
ATOM     13  C   UNL d   1      25.254  -6.211  -0.868  0.00  0.00     0.005 A 
ATOM     14  C   UNL d   1      25.298  -6.472   0.501  0.00  0.00     0.037 A 
ATOM     15  C   UNL d   1      25.958  -7.616   0.998  0.00  0.00     0.111 A 
ATOM     16  C   UNL d   1      26.546  -8.544   0.104  0.00  0.00    -0.002 A 
ATOM     17  C   UNL d   1      27.319  -9.757   0.549  0.00  0.00     0.053 C 
BRANCH  15  18
ATOM     18  N   UNL d   1      26.040  -7.728   2.479  0.00  0.00    -0.115 N 
ATOM     19  O   UNL d   1      26.282  -6.693   3.115  0.00  0.00    -0.532 OA
ATOM     20  O   UNL d   1      25.902  -8.824   3.027  0.00  0.00    -0.532 OA
ENDBRANCH  15  18
ENDBRANCH   9  11
ENDBRANCH   3   7
BRANCH   1  21
ATOM     21  S   UNL d   1      25.958 -14.792  -4.653  0.00  0.00     0.244 S 
ATOM     22  O   UNL d   1      26.262 -15.853  -5.598  0.00  0.00    -0.206 OA
ATOM     23  O   UNL d   1      24.580 -14.445  -4.442  0.00  0.00    -0.206 OA
BRANCH  21  24
ATOM     24  N   UNL d   1      26.593 -15.440  -3.206  0.00  0.00    -0.216 NA
ATOM     25  H   UNL d   1      26.878 -16.411  -3.343  0.00  0.00     0.139 HD
BRANCH  24  26
ATOM     26  C   UNL d   1      25.566 -15.330  -2.126  0.00  0.00     0.100 C 
ATOM     27  C   UNL d   1      24.901 -16.660  -1.885  0.00  0.00     0.021 C 
ENDBRANCH  24  26
ENDBRANCH  21  24
ENDBRANCH   1  21
BRANCH   6  28
ATOM     28  O   UNL d   1      28.156 -13.475  -7.096  0.00  0.00    -0.354 OA
ATOM     29  C   UNL d   1      28.957 -14.605  -6.887  0.00  0.00     0.210 C 
ENDBRANCH   6  28
TORSDOF 7
ENDMDL
MODEL 7
REMARK VINA RESULT:    -6.858      5.334      8.219
REMARK INTER + INTRA:         -10.736
REMARK INTER:                  -8.946
REMARK INTRA:                  -1.790
REMARK CONF_INDEPENDENT:        2.088
REMARK UNBOUND:                -1.790
REMARK  7 active torsions:
REMARK  status: ('A' for Active; 'I' for Inactive)
REMARK    1  A    between atoms: C_2  and  N_3 
REMARK    2  A    between atoms: N_3  and  S_4 
REMARK    3  A    between atoms: S_4  and  C_7 
REMARK    4  A    between atoms: C_9  and  C_10 
REMARK       I    between atoms: C_10  and  N_12 
REMARK    5  A    between atoms: N_12  and  C_13 
REMARK    6  A    between atoms: C_17  and  N_18 
REMARK    7  A    between atoms: C_25  and  O_26 
ROOT
ATOM      1  C   UNL d   1      27.276 -15.140  -2.991  0.00  0.00     0.108 C 
ATOM      2  C   UNL d   1      26.772 -14.502  -1.829  0.00  0.00     0.044 C 
ATOM      3  C   UNL d   1      27.388 -14.632  -0.558  0.00  0.00     0.034 C 
ATOM      4  C   UNL d   1      28.395 -15.560  -0.384  0.00  0.00     0.020 C 
ATOM      5  C   UNL d   1      28.900 -16.201  -1.511  0.00  0.00     0.039 C 
ATOM      6  C   UNL d   1      28.383 -15.993  -2.818  0.00  0.00     0.091 C 
ENDROOT
BRANCH   3   7
ATOM      7  C   UNL d   1      27.062 -13.626   0.491  0.00  0.00     0.256 C 
ATOM      8  O   UNL d   1      25.931 -13.696   0.967  0.00  0.00    -0.267 OA
ATOM      9  N   UNL d   1      27.968 -12.607   0.800  0.00  0.00    -0.322 N 
ATOM     10  H   UNL d   1      28.655 -12.326   0.115  0.00  0.00     0.169 HD
BRANCH   9  11
ATOM     11  C   UNL d   1      27.791 -11.730   1.913  0.00  0.00     0.043 A 
ATOM     12  C   UNL d   1      28.011 -12.245   3.205  0.00  0.00     0.030 A 
ATOM     13  C   UNL d   1      27.780 -11.452   4.329  0.00  0.00     0.005 A 
ATOM     14  C   UNL d   1      27.351 -10.135   4.172  0.00  0.00     0.037 A 
ATOM     15  C   UNL d   1      27.087  -9.609   2.889  0.00  0.00     0.111 A 
ATOM     16  C   UNL d   1      27.301 -10.402   1.736  0.00  0.00    -0.002 A 
ATOM     17  C   UNL d   1      26.989  -9.941   0.337  0.00  0.00     0.053 C 
BRANCH  15  18
ATOM     18  N   UNL d   1      26.525  -8.232   2.854  0.00  0.00    -0.115 N 
ATOM     19  O   UNL d   1      27.030  -7.392   3.613  0.00  0.00    -0.532 OA
ATOM     20  O   UNL d   1      25.574  -7.969   2.115  0.00  0.00    -0.532 OA
ENDBRANCH  15  18
ENDBRANCH   9  11
ENDBRANCH   3   7
BRANCH   1  21
ATOM     21  S   UNL d   1      26.498 -14.523  -4.515  0.00  0.00     0.244 S 
ATOM     22  O   UNL d   1      26.712 -13.112  -4.787  0.00  0.00    -0.206 OA
ATOM     23  O   UNL d   1      25.155 -15.029  -4.567  0.00  0.00    -0.206 OA
BRANCH  21  24
ATOM     24  N   UNL d   1      27.412 -15.247  -5.763  0.00  0.00    -0.216 NA
ATOM     25  H   UNL d   1      28.007 -15.988  -5.388  0.00  0.00     0.139 HD
BRANCH  24  26
ATOM     26  C   UNL d   1      28.226 -14.199  -6.448  0.00  0.00     0.100 C 
ATOM     27  C   UNL d   1      29.649 -14.660  -6.627  0.00  0.00     0.021 C 
ENDBRANCH  24  26
ENDBRANCH  21  24
ENDBRANCH   1  21
BRANCH   6  28
ATOM     28  O   UNL d   1      29.135 -16.736  -3.688  0.00  0.00    -0.354 OA
ATOM     29  C   UNL d   1      30.466 -16.963  -3.313  0.00  0.00     0.210 C 
ENDBRANCH   6  28
TORSDOF 7
ENDMDL
MODEL 8
REMARK VINA RESULT:    -6.579      4.932      8.250
REMARK INTER + INTRA:          -9.969
REMARK INTER:                  -8.667
REMARK INTRA:                  -1.302
REMARK CONF_INDEPENDENT:        2.088
REMARK UNBOUND:                -1.302
REMARK  7 active torsions:
REMARK  status: ('A' for Active; 'I' for Inactive)
REMARK    1  A    between atoms: C_2  and  N_3 
REMARK    2  A    between atoms: N_3  and  S_4 
REMARK    3  A    between atoms: S_4  and  C_7 
REMARK    4  A    between atoms: C_9  and  C_10 
REMARK       I    between atoms: C_10  and  N_12 
REMARK    5  A    between atoms: N_12  and  C_13 
REMARK    6  A    between atoms: C_17  and  N_18 
REMARK    7  A    between atoms: C_25  and  O_26 
ROOT
ATOM      1  C   UNL d   1      26.691 -14.977  -3.122  0.00  0.00     0.108 C 
ATOM      2  C   UNL d   1      26.915 -14.827  -1.730  0.00  0.00     0.044 C 
ATOM      3  C   UNL d   1      28.190 -15.013  -1.136  0.00  0.00     0.034 C 
ATOM      4  C   UNL d   1      29.216 -15.549  -1.888  0.00  0.00     0.020 C 
ATOM      5  C   UNL d   1      29.014 -15.710  -3.255  0.00  0.00     0.039 C 
ATOM      6  C   UNL d   1      27.784 -15.410  -3.898  0.00  0.00     0.091 C 
ENDROOT
BRANCH   3   7
ATOM      7  C   UNL d   1      28.429 -14.440   0.218  0.00  0.00     0.256 C 
ATOM      8  O   UNL d   1      29.588 -14.498   0.626  0.00  0.00    -0.267 OA
ATOM      9  N   UNL d   1      27.359 -13.985   0.994  0.00  0.00    -0.322 N 
ATOM     10  H   UNL d   1      26.431 -14.348   0.823  0.00  0.00     0.169 HD
BRANCH   9  11
ATOM     11  C   UNL d   1      27.542 -13.265   2.212  0.00  0.00     0.043 A 
ATOM     12  C   UNL d   1      27.794 -14.001   3.386  0.00  0.00     0.030 A 
ATOM     13  C   UNL d   1      27.905 -13.352   4.616  0.00  0.00     0.005 A 
ATOM     14  C   UNL d   1      27.790 -11.964   4.680  0.00  0.00     0.037 A 
ATOM     15  C   UNL d   1      27.499 -11.209   3.523  0.00  0.00     0.111 A 
ATOM     16  C   UNL d   1      27.367 -11.850   2.268  0.00  0.00    -0.002 A 
ATOM     17  C   UNL d   1      27.000 -11.131   0.997  0.00  0.00     0.053 C 
BRANCH  15  18
ATOM     18  N   UNL d   1      27.286  -9.752   3.735  0.00  0.00    -0.115 N 
ATOM     19  O   UNL d   1      28.132  -9.145   4.405  0.00  0.00    -0.532 OA
ATOM     20  O   UNL d   1      26.282  -9.200   3.279  0.00  0.00    -0.532 OA
ENDBRANCH  15  18
ENDBRANCH   9  11
ENDBRANCH   3   7
BRANCH   1  21
ATOM     21  S   UNL d   1      25.064 -14.347  -3.636  0.00  0.00     0.244 S 
ATOM     22  O   UNL d   1      23.981 -14.607  -2.703  0.00  0.00    -0.206 OA
ATOM     23  O   UNL d   1      24.868 -14.690  -5.017  0.00  0.00    -0.206 OA
BRANCH  21  24
ATOM     24  N   UNL d   1      25.221 -12.652  -3.503  0.00  0.00    -0.216 NA
ATOM     25  H   UNL d   1      24.410 -12.183  -3.909  0.00  0.00     0.139 HD
BRANCH  24  26
ATOM     26  C   UNL d   1      26.483 -12.221  -4.178  0.00  0.00     0.100 C 
ATOM     27  C   UNL d   1      26.183 -11.542  -5.487  0.00  0.00     0.021 C 
ENDBRANCH  24  26
ENDBRANCH  21  24
ENDBRANCH   1  21
BRANCH   6  28
ATOM     28  O   UNL d   1      27.947 -15.635  -5.239  0.00  0.00    -0.354 OA
ATOM     29  C   UNL d   1      28.523 -14.591  -5.974  0.00  0.00     0.210 C 
ENDBRANCH   6  28
TORSDOF 7
ENDMDL
MODEL 9
REMARK VINA RESULT:    -6.466      6.296      8.203
REMARK INTER + INTRA:          -9.950
REMARK INTER:                  -8.554
REMARK INTRA:                  -1.396
REMARK CONF_INDEPENDENT:        2.088
REMARK UNBOUND:                -1.396
REMARK  7 active torsions:
REMARK  status: ('A' for Active; 'I' for Inactive)
REMARK    1  A    between atoms: C_2  and  N_3 
REMARK    2  A    between atoms: N_3  and  S_4 
REMARK    3  A    between atoms: S_4  and  C_7 
REMARK    4  A    between atoms: C_9  and  C_10 
REMARK       I    between atoms: C_10  and  N_12 
REMARK    5  A    between atoms: N_12  and  C_13 
REMARK    6  A    between atoms: C_17  and  N_18 
REMARK    7  A    between atoms: C_25  and  O_26 
ROOT
ATOM      1  C   UNL d   1      27.782 -11.581   3.766  0.00  0.00     0.108 C 
ATOM      2  C   UNL d   1      27.873 -12.371   2.592  0.00  0.00     0.044 C 
ATOM      3  C   UNL d   1      27.876 -13.790   2.624  0.00  0.00     0.034 C 
ATOM      4  C   UNL d   1      27.994 -14.440   3.836  0.00  0.00     0.020 C 
ATOM      5  C   UNL d   1      27.913 -13.682   5.000  0.00  0.00     0.039 C 
ATOM      6  C   UNL d   1      27.781 -12.267   4.995  0.00  0.00     0.091 C 
ENDROOT
BRANCH   3   7
ATOM      7  C   UNL d   1      27.554 -14.525   1.370  0.00  0.00     0.256 C 
ATOM      8  O   UNL d   1      28.427 -15.284   0.955  0.00  0.00    -0.267 OA
ATOM      9  N   UNL d   1      26.373 -14.252   0.672  0.00  0.00    -0.322 N 
ATOM     10  H   UNL d   1      25.922 -13.355   0.789  0.00  0.00     0.169 HD
BRANCH   9  11
ATOM     11  C   UNL d   1      25.926 -15.045  -0.427  0.00  0.00     0.043 A 
ATOM     12  C   UNL d   1      25.553 -16.379  -0.173  0.00  0.00     0.030 A 
ATOM     13  C   UNL d   1      25.180 -17.220  -1.223  0.00  0.00     0.005 A 
ATOM     14  C   UNL d   1      25.155 -16.729  -2.528  0.00  0.00     0.037 A 
ATOM     15  C   UNL d   1      25.562 -15.408  -2.811  0.00  0.00     0.111 A 
ATOM     16  C   UNL d   1      25.958 -14.543  -1.762  0.00  0.00    -0.002 A 
ATOM     17  C   UNL d   1      26.462 -13.141  -1.981  0.00  0.00     0.053 C 
BRANCH  15  18
ATOM     18  N   UNL d   1      25.602 -15.034  -4.250  0.00  0.00    -0.115 N 
ATOM     19  O   UNL d   1      24.778 -14.196  -4.644  0.00  0.00    -0.532 OA
ATOM     20  O   UNL d   1      26.409 -15.575  -5.009  0.00  0.00    -0.532 OA
ENDBRANCH  15  18
ENDBRANCH   9  11
ENDBRANCH   3   7
BRANCH   1  21
ATOM     21  S   UNL d   1      27.454  -9.829   3.400  0.00  0.00     0.244 S 
ATOM     22  O   UNL d   1      26.051  -9.484   3.251  0.00  0.00    -0.206 OA
ATOM     23  O   UNL d   1      28.370  -9.408   2.378  0.00  0.00    -0.206 OA
BRANCH  21  24
ATOM     24  N   UNL d   1      27.844  -9.028   4.857  0.00  0.00    -0.216 NA
ATOM     25  H   UNL d   1      27.405  -9.495   5.652  0.00  0.00     0.139 HD
BRANCH  24  26
ATOM     26  C   UNL d   1      27.406  -7.602   4.766  0.00  0.00     0.100 C 
ATOM     27  C   UNL d   1      28.203  -6.738   5.707  0.00  0.00     0.021 C 
ENDBRANCH  24  26
ENDBRANCH  21  24
ENDBRANCH   1  21
BRANCH   6  28
ATOM     28  O   UNL d   1      27.682 -11.853   6.297  0.00  0.00    -0.354 OA
ATOM     29  C   UNL d   1      28.820 -11.238   6.835  0.00  0.00     0.210 C 
ENDBRANCH   6  28
TORSDOF 7
ENDMDL
