MODEL 1
REMARK VINA RESULT:   -30.981      0.000      0.000
REMARK INTER + INTRA:         -33.446
REMARK INTER:                 -33.069
REMARK INTRA:                  -0.377
REMARK CONF_INDEPENDENT:        2.088
REMARK UNBOUND:                -0.377
REMARK  7 active torsions:
REMARK  status: ('A' for Active; 'I' for Inactive)
REMARK    1  A    between atoms: C_5  and  C_6 
REMARK    2  A    between atoms: C_6  and  C_7 
REMARK    3  A    between atoms: C_7  and  C_8 
REMARK    4  A    between atoms: C_8  and  N_9 
REMARK       I    between atoms: N_9  and  C_10 
REMARK       I    between atoms: C_10  and  N_12 
REMARK    5  A    between atoms: N_12  and  C_13 
REMARK    6  A    between atoms: C_13  and  C_14 
REMARK    7  A    between atoms: C_17  and  O_18 
ROOT
ATOM      1  N   UNL d   1      26.668 -17.327   0.045  0.00  0.00    -0.343 N 
ATOM      2  C   UNL d   1      26.826 -16.004   0.402  0.00  0.00     0.316 C 
ATOM      3  O   UNL d   1      26.025 -15.125   0.096  0.00  0.00    -0.247 OA
ATOM      4  N   UNL d   1      27.963 -15.767   1.124  0.00  0.00    -0.339 N 
ATOM      5  H   UNL d   1      27.362 -18.007   0.315  0.00  0.00     0.164 HD
ATOM      6  H   UNL d   1      28.523 -16.556   1.379  0.00  0.00     0.164 HD
ENDROOT
BRANCH   1   7
ATOM      7  C   UNL d   1      25.512 -17.752  -0.736  0.00  0.00     0.125 C 
BRANCH   7   8
ATOM      8  C   UNL d   1      24.245 -17.975   0.099  0.00  0.00     0.028 C 
BRANCH   8   9
ATOM      9  C   UNL d   1      23.007 -17.356  -0.569  0.00  0.00     0.090 C 
BRANCH   9  10
ATOM     10  C   UNL d   1      21.775 -18.195  -0.496  0.00  0.00     0.172 A 
ATOM     11  O   UNL d   1      20.670 -17.794  -1.194  0.00  0.00    -0.196 OA
ATOM     12  N   UNL d   1      19.656 -18.707  -0.895  0.00  0.00    -0.112 NA
ATOM     13  C   UNL d   1      20.251 -19.564  -0.056  0.00  0.00     0.152 A 
ATOM     14  C   UNL d   1      19.535 -20.686   0.584  0.00  0.00     0.096 C 
ATOM     15  N   UNL d   1      21.569 -19.288   0.208  0.00  0.00    -0.209 NA
ENDBRANCH   9  10
ENDBRANCH   8   9
ENDBRANCH   7   8
ENDBRANCH   1   7
BRANCH   4  16
ATOM     16  C   UNL d   1      28.314 -14.433   1.611  0.00  0.00     0.162 C 
BRANCH  16  17
ATOM     17  C   UNL d   1      28.486 -14.300   3.119  0.00  0.00    -0.040 A 
ATOM     18  C   UNL d   1      27.411 -14.082   3.995  0.00  0.00     0.011 A 
ATOM     19  C   UNL d   1      27.598 -13.974   5.377  0.00  0.00     0.037 A 
ATOM     20  C   UNL d   1      28.872 -14.101   5.909  0.00  0.00     0.065 A 
ATOM     21  C   UNL d   1      29.960 -14.319   5.076  0.00  0.00     0.037 A 
ATOM     22  C   UNL d   1      29.771 -14.420   3.689  0.00  0.00     0.011 A 
BRANCH  20  23
ATOM     23  O   UNL d   1      29.095 -14.020   7.251  0.00  0.00    -0.361 OA
ATOM     24  H   UNL d   1      29.054 -14.914   7.632  0.00  0.00     0.217 HD
ENDBRANCH  20  23
ENDBRANCH  16  17
ENDBRANCH   4  16
TORSDOF 7
ENDMDL
MODEL 2
REMARK VINA RESULT:   -30.736      3.845      5.777
REMARK INTER + INTRA:         -33.256
REMARK INTER:                 -32.824
REMARK INTRA:                  -0.432
REMARK CONF_INDEPENDENT:        2.088
REMARK UNBOUND:                -0.432
REMARK  7 active torsions:
REMARK  status: ('A' for Active; 'I' for Inactive)
REMARK    1  A    between atoms: C_5  and  C_6 
REMARK    2  A    between atoms: C_6  and  C_7 
REMARK    3  A    between atoms: C_7  and  C_8 
REMARK    4  A    between atoms: C_8  and  N_9 
REMARK       I    between atoms: N_9  and  C_10 
REMARK       I    between atoms: C_10  and  N_12 
REMARK    5  A    between atoms: N_12  and  C_13 
REMARK    6  A    between atoms: C_13  and  C_14 
REMARK    7  A    between atoms: C_17  and  O_18 
ROOT
ATOM      1  N   UNL d   1      26.530 -18.229   0.338  0.00  0.00    -0.343 N 
ATOM      2  C   UNL d   1      27.193 -17.188  -0.277  0.00  0.00     0.316 C 
ATOM      3  O   UNL d   1      26.632 -16.163  -0.654  0.00  0.00    -0.247 OA
ATOM      4  N   UNL d   1      28.533 -17.413  -0.432  0.00  0.00    -0.339 N 
ATOM      5  H   UNL d   1      27.038 -19.054   0.619  0.00  0.00     0.164 HD
ATOM      6  H   UNL d   1      28.912 -18.251  -0.037  0.00  0.00     0.164 HD
ENDROOT
BRANCH   1   7
ATOM      7  C   UNL d   1      25.092 -18.157   0.572  0.00  0.00     0.125 C 
BRANCH   7   8
ATOM      8  C   UNL d   1      24.243 -18.411  -0.680  0.00  0.00     0.028 C 
BRANCH   8   9
ATOM      9  C   UNL d   1      22.987 -17.528  -0.705  0.00  0.00     0.090 C 
BRANCH   9  10
ATOM     10  C   UNL d   1      21.699 -18.272  -0.586  0.00  0.00     0.172 A 
ATOM     11  O   UNL d   1      20.600 -17.783  -1.235  0.00  0.00    -0.196 OA
ATOM     12  N   UNL d   1      19.532 -18.619  -0.898  0.00  0.00    -0.112 NA
ATOM     13  C   UNL d   1      20.095 -19.525  -0.089  0.00  0.00     0.152 A 
ATOM     14  C   UNL d   1      19.323 -20.596   0.574  0.00  0.00     0.096 C 
ATOM     15  N   UNL d   1      21.440 -19.352   0.121  0.00  0.00    -0.209 NA
ENDBRANCH   9  10
ENDBRANCH   8   9
ENDBRANCH   7   8
ENDBRANCH   1   7
BRANCH   4  16
ATOM     16  C   UNL d   1      29.422 -16.430  -1.051  0.00  0.00     0.162 C 
BRANCH  16  17
ATOM     17  C   UNL d   1      29.145 -16.113  -2.516  0.00  0.00    -0.040 A 
ATOM     18  C   UNL d   1      29.864 -16.693  -3.573  0.00  0.00     0.011 A 
ATOM     19  C   UNL d   1      29.581 -16.390  -4.909  0.00  0.00     0.037 A 
ATOM     20  C   UNL d   1      28.554 -15.508  -5.211  0.00  0.00     0.065 A 
ATOM     21  C   UNL d   1      27.819 -14.916  -4.193  0.00  0.00     0.037 A 
ATOM     22  C   UNL d   1      28.109 -15.216  -2.853  0.00  0.00     0.011 A 
BRANCH  20  23
ATOM     23  O   UNL d   1      28.234 -15.201  -6.499  0.00  0.00    -0.361 OA
ATOM     24  H   UNL d   1      28.809 -14.478  -6.802  0.00  0.00     0.217 HD
ENDBRANCH  20  23
ENDBRANCH  16  17
ENDBRANCH   4  16
TORSDOF 7
ENDMDL
MODEL 3
REMARK VINA RESULT:   -30.730      4.634      6.679
REMARK INTER + INTRA:         -33.211
REMARK INTER:                 -32.818
REMARK INTRA:                  -0.394
REMARK CONF_INDEPENDENT:        2.088
REMARK UNBOUND:                -0.394
REMARK  7 active torsions:
REMARK  status: ('A' for Active; 'I' for Inactive)
REMARK    1  A    between atoms: C_5  and  C_6 
REMARK    2  A    between atoms: C_6  and  C_7 
REMARK    3  A    between atoms: C_7  and  C_8 
REMARK    4  A    between atoms: C_8  and  N_9 
REMARK       I    between atoms: N_9  and  C_10 
REMARK       I    between atoms: C_10  and  N_12 
REMARK    5  A    between atoms: N_12  and  C_13 
REMARK    6  A    between atoms: C_13  and  C_14 
REMARK    7  A    between atoms: C_17  and  O_18 
ROOT
ATOM      1  N   UNL d   1      25.512 -16.086  -0.670  0.00  0.00    -0.343 N 
ATOM      2  C   UNL d   1      25.270 -15.766  -1.989  0.00  0.00     0.316 C 
ATOM      3  O   UNL d   1      24.978 -16.601  -2.840  0.00  0.00    -0.247 OA
ATOM      4  N   UNL d   1      25.393 -14.430  -2.256  0.00  0.00    -0.339 N 
ATOM      5  H   UNL d   1      25.758 -15.361  -0.012  0.00  0.00     0.164 HD
ATOM      6  H   UNL d   1      25.572 -13.817  -1.485  0.00  0.00     0.164 HD
ENDROOT
BRANCH   1   7
ATOM      7  C   UNL d   1      25.433 -17.470  -0.215  0.00  0.00     0.125 C 
BRANCH   7   8
ATOM      8  C   UNL d   1      24.186 -18.216  -0.706  0.00  0.00     0.028 C 
BRANCH   8   9
ATOM      9  C   UNL d   1      22.898 -17.441  -0.389  0.00  0.00     0.090 C 
BRANCH   9  10
ATOM     10  C   UNL d   1      21.655 -18.268  -0.397  0.00  0.00     0.172 A 
ATOM     11  O   UNL d   1      20.582 -17.825  -1.118  0.00  0.00    -0.196 OA
ATOM     12  N   UNL d   1      19.548 -18.738  -0.895  0.00  0.00    -0.112 NA
ATOM     13  C   UNL d   1      20.102 -19.635  -0.070  0.00  0.00     0.152 A 
ATOM     14  C   UNL d   1      19.350 -20.774   0.495  0.00  0.00     0.096 C 
ATOM     15  N   UNL d   1      21.411 -19.386   0.254  0.00  0.00    -0.209 NA
ENDBRANCH   9  10
ENDBRANCH   8   9
ENDBRANCH   7   8
ENDBRANCH   1   7
BRANCH   4  16
ATOM     16  C   UNL d   1      25.167 -13.878  -3.592  0.00  0.00     0.162 C 
BRANCH  16  17
ATOM     17  C   UNL d   1      26.344 -13.967  -4.555  0.00  0.00    -0.040 A 
ATOM     18  C   UNL d   1      27.091 -15.141  -4.742  0.00  0.00     0.011 A 
ATOM     19  C   UNL d   1      28.162 -15.196  -5.641  0.00  0.00     0.037 A 
ATOM     20  C   UNL d   1      28.492 -14.074  -6.386  0.00  0.00     0.065 A 
ATOM     21  C   UNL d   1      27.774 -12.896  -6.231  0.00  0.00     0.037 A 
ATOM     22  C   UNL d   1      26.706 -12.840  -5.323  0.00  0.00     0.011 A 
BRANCH  20  23
ATOM     23  O   UNL d   1      29.515 -14.091  -7.286  0.00  0.00    -0.361 OA
ATOM     24  H   UNL d   1      29.254 -14.635  -8.048  0.00  0.00     0.217 HD
ENDBRANCH  20  23
ENDBRANCH  16  17
ENDBRANCH   4  16
TORSDOF 7
ENDMDL
MODEL 4
REMARK VINA RESULT:   -30.667      5.533      6.742
REMARK INTER + INTRA:         -33.169
REMARK INTER:                 -32.755
REMARK INTRA:                  -0.414
REMARK CONF_INDEPENDENT:        2.088
REMARK UNBOUND:                -0.414
REMARK  7 active torsions:
REMARK  status: ('A' for Active; 'I' for Inactive)
REMARK    1  A    between atoms: C_5  and  C_6 
REMARK    2  A    between atoms: C_6  and  C_7 
REMARK    3  A    between atoms: C_7  and  C_8 
REMARK    4  A    between atoms: C_8  and  N_9 
REMARK       I    between atoms: N_9  and  C_10 
REMARK       I    between atoms: C_10  and  N_12 
REMARK    5  A    between atoms: N_12  and  C_13 
REMARK    6  A    between atoms: C_13  and  C_14 
REMARK    7  A    between atoms: C_17  and  O_18 
ROOT
ATOM      1  N   UNL d   1      25.242 -15.531  -2.369  0.00  0.00    -0.343 N 
ATOM      2  C   UNL d   1      25.209 -14.630  -3.413  0.00  0.00     0.316 C 
ATOM      3  O   UNL d   1      24.166 -14.185  -3.883  0.00  0.00    -0.247 OA
ATOM      4  N   UNL d   1      26.449 -14.288  -3.876  0.00  0.00    -0.339 N 
ATOM      5  H   UNL d   1      26.128 -15.872  -2.027  0.00  0.00     0.164 HD
ATOM      6  H   UNL d   1      27.244 -14.654  -3.389  0.00  0.00     0.164 HD
ENDROOT
BRANCH   1   7
ATOM      7  C   UNL d   1      24.005 -16.010  -1.762  0.00  0.00     0.125 C 
BRANCH   7   8
ATOM      8  C   UNL d   1      23.963 -17.528  -1.549  0.00  0.00     0.028 C 
BRANCH   8   9
ATOM      9  C   UNL d   1      23.314 -17.897  -0.207  0.00  0.00     0.090 C 
BRANCH   9  10
ATOM     10  C   UNL d   1      21.961 -18.518  -0.319  0.00  0.00     0.172 A 
ATOM     11  O   UNL d   1      20.990 -17.846  -1.008  0.00  0.00    -0.196 OA
ATOM     12  N   UNL d   1      19.823 -18.606  -0.895  0.00  0.00    -0.112 NA
ATOM     13  C   UNL d   1      20.209 -19.655  -0.159  0.00  0.00     0.152 A 
ATOM     14  C   UNL d   1      19.277 -20.716   0.275  0.00  0.00     0.096 C 
ATOM     15  N   UNL d   1      21.531 -19.644   0.209  0.00  0.00    -0.209 NA
ENDBRANCH   9  10
ENDBRANCH   8   9
ENDBRANCH   7   8
ENDBRANCH   1   7
BRANCH   4  16
ATOM     16  C   UNL d   1      26.638 -13.338  -4.972  0.00  0.00     0.162 C 
BRANCH  16  17
ATOM     17  C   UNL d   1      26.193 -11.907  -4.695  0.00  0.00    -0.040 A 
ATOM     18  C   UNL d   1      25.957 -11.417  -3.400  0.00  0.00     0.011 A 
ATOM     19  C   UNL d   1      25.559 -10.095  -3.174  0.00  0.00     0.037 A 
ATOM     20  C   UNL d   1      25.407  -9.231  -4.248  0.00  0.00     0.065 A 
ATOM     21  C   UNL d   1      25.634  -9.677  -5.543  0.00  0.00     0.037 A 
ATOM     22  C   UNL d   1      26.026 -11.005  -5.767  0.00  0.00     0.011 A 
BRANCH  20  23
ATOM     23  O   UNL d   1      25.039  -7.931  -4.070  0.00  0.00    -0.361 OA
ATOM     24  H   UNL d   1      24.354  -7.889  -3.381  0.00  0.00     0.217 HD
ENDBRANCH  20  23
ENDBRANCH  16  17
ENDBRANCH   4  16
TORSDOF 7
ENDMDL
MODEL 5
REMARK VINA RESULT:   -30.606      4.703      6.608
REMARK INTER + INTRA:         -33.071
REMARK INTER:                 -32.694
REMARK INTRA:                  -0.377
REMARK CONF_INDEPENDENT:        2.088
REMARK UNBOUND:                -0.377
REMARK  7 active torsions:
REMARK  status: ('A' for Active; 'I' for Inactive)
REMARK    1  A    between atoms: C_5  and  C_6 
REMARK    2  A    between atoms: C_6  and  C_7 
REMARK    3  A    between atoms: C_7  and  C_8 
REMARK    4  A    between atoms: C_8  and  N_9 
REMARK       I    between atoms: N_9  and  C_10 
REMARK       I    between atoms: C_10  and  N_12 
REMARK    5  A    between atoms: N_12  and  C_13 
REMARK    6  A    between atoms: C_13  and  C_14 
REMARK    7  A    between atoms: C_17  and  O_18 
ROOT
ATOM      1  N   UNL d   1      25.753 -16.197  -0.761  0.00  0.00    -0.343 N 
ATOM      2  C   UNL d   1      25.524 -15.735  -2.041  0.00  0.00     0.316 C 
ATOM      3  O   UNL d   1      25.173 -16.463  -2.965  0.00  0.00    -0.247 OA
ATOM      4  N   UNL d   1      25.734 -14.391  -2.179  0.00  0.00    -0.339 N 
ATOM      5  H   UNL d   1      26.049 -15.557  -0.040  0.00  0.00     0.164 HD
ATOM      6  H   UNL d   1      25.958 -13.869  -1.355  0.00  0.00     0.164 HD
ENDROOT
BRANCH   1   7
ATOM      7  C   UNL d   1      25.585 -17.610  -0.442  0.00  0.00     0.125 C 
BRANCH   7   8
ATOM      8  C   UNL d   1      24.248 -18.200  -0.911  0.00  0.00     0.028 C 
BRANCH   8   9
ATOM      9  C   UNL d   1      23.053 -17.462  -0.291  0.00  0.00     0.090 C 
BRANCH   9  10
ATOM     10  C   UNL d   1      21.772 -18.229  -0.303  0.00  0.00     0.172 A 
ATOM     11  O   UNL d   1      20.772 -17.816  -1.137  0.00  0.00    -0.196 OA
ATOM     12  N   UNL d   1      19.680 -18.654  -0.896  0.00  0.00    -0.112 NA
ATOM     13  C   UNL d   1      20.134 -19.485   0.050  0.00  0.00     0.152 A 
ATOM     14  C   UNL d   1      19.290 -20.526   0.673  0.00  0.00     0.096 C 
ATOM     15  N   UNL d   1      21.431 -19.262   0.438  0.00  0.00    -0.209 NA
ENDBRANCH   9  10
ENDBRANCH   8   9
ENDBRANCH   7   8
ENDBRANCH   1   7
BRANCH   4  16
ATOM     16  C   UNL d   1      25.537 -13.698  -3.453  0.00  0.00     0.162 C 
BRANCH  16  17
ATOM     17  C   UNL d   1      26.632 -13.897  -4.493  0.00  0.00    -0.040 A 
ATOM     18  C   UNL d   1      27.007 -12.900  -5.409  0.00  0.00     0.011 A 
ATOM     19  C   UNL d   1      28.023 -13.107  -6.347  0.00  0.00     0.037 A 
ATOM     20  C   UNL d   1      28.698 -14.318  -6.373  0.00  0.00     0.065 A 
ATOM     21  C   UNL d   1      28.358 -15.327  -5.482  0.00  0.00     0.037 A 
ATOM     22  C   UNL d   1      27.334 -15.120  -4.546  0.00  0.00     0.011 A 
BRANCH  20  23
ATOM     23  O   UNL d   1      29.706 -14.554  -7.258  0.00  0.00    -0.361 OA
ATOM     24  H   UNL d   1      29.330 -14.630  -8.151  0.00  0.00     0.217 HD
ENDBRANCH  20  23
ENDBRANCH  16  17
ENDBRANCH   4  16
TORSDOF 7
ENDMDL
MODEL 6
REMARK VINA RESULT:   -30.518      1.226      1.453
REMARK INTER + INTRA:         -32.972
REMARK INTER:                 -32.606
REMARK INTRA:                  -0.367
REMARK CONF_INDEPENDENT:        2.088
REMARK UNBOUND:                -0.367
REMARK  7 active torsions:
REMARK  status: ('A' for Active; 'I' for Inactive)
REMARK    1  A    between atoms: C_5  and  C_6 
REMARK    2  A    between atoms: C_6  and  C_7 
REMARK    3  A    between atoms: C_7  and  C_8 
REMARK    4  A    between atoms: C_8  and  N_9 
REMARK       I    between atoms: N_9  and  C_10 
REMARK       I    between atoms: C_10  and  N_12 
REMARK    5  A    between atoms: N_12  and  C_13 
REMARK    6  A    between atoms: C_13  and  C_14 
REMARK    7  A    between atoms: C_17  and  O_18 
ROOT
ATOM      1  N   UNL d   1      26.528 -17.336   0.405  0.00  0.00    -0.343 N 
ATOM      2  C   UNL d   1      26.795 -15.989   0.277  0.00  0.00     0.316 C 
ATOM      3  O   UNL d   1      26.207 -15.261  -0.517  0.00  0.00    -0.247 OA
ATOM      4  N   UNL d   1      27.781 -15.548   1.115  0.00  0.00    -0.339 N 
ATOM      5  H   UNL d   1      27.048 -17.892   1.068  0.00  0.00     0.164 HD
ATOM      6  H   UNL d   1      28.160 -16.202   1.772  0.00  0.00     0.164 HD
ENDROOT
BRANCH   1   7
ATOM      7  C   UNL d   1      25.509 -17.973  -0.422  0.00  0.00     0.125 C 
BRANCH   7   8
ATOM      8  C   UNL d   1      24.152 -18.134   0.276  0.00  0.00     0.028 C 
BRANCH   8   9
ATOM      9  C   UNL d   1      23.015 -17.500  -0.539  0.00  0.00     0.090 C 
BRANCH   9  10
ATOM     10  C   UNL d   1      21.713 -18.226  -0.460  0.00  0.00     0.172 A 
ATOM     11  O   UNL d   1      20.666 -17.771  -1.211  0.00  0.00    -0.196 OA
ATOM     12  N   UNL d   1      19.568 -18.576  -0.895  0.00  0.00    -0.112 NA
ATOM     13  C   UNL d   1      20.065 -19.432   0.006  0.00  0.00     0.152 A 
ATOM     14  C   UNL d   1      19.237 -20.452   0.682  0.00  0.00     0.096 C 
ATOM     15  N   UNL d   1      21.394 -19.256   0.295  0.00  0.00    -0.209 NA
ENDBRANCH   9  10
ENDBRANCH   8   9
ENDBRANCH   7   8
ENDBRANCH   1   7
BRANCH   4  16
ATOM     16  C   UNL d   1      28.210 -14.149   1.146  0.00  0.00     0.162 C 
BRANCH  16  17
ATOM     17  C   UNL d   1      28.048 -13.434   2.482  0.00  0.00    -0.040 A 
ATOM     18  C   UNL d   1      27.811 -14.113   3.688  0.00  0.00     0.011 A 
ATOM     19  C   UNL d   1      27.676 -13.431   4.902  0.00  0.00     0.037 A 
ATOM     20  C   UNL d   1      27.794 -12.050   4.930  0.00  0.00     0.065 A 
ATOM     21  C   UNL d   1      28.030 -11.344   3.759  0.00  0.00     0.037 A 
ATOM     22  C   UNL d   1      28.158 -12.029   2.541  0.00  0.00     0.011 A 
BRANCH  20  23
ATOM     23  O   UNL d   1      27.687 -11.349   6.094  0.00  0.00    -0.361 OA
ATOM     24  H   UNL d   1      26.750 -11.146   6.254  0.00  0.00     0.217 HD
ENDBRANCH  20  23
ENDBRANCH  16  17
ENDBRANCH   4  16
TORSDOF 7
ENDMDL
MODEL 7
REMARK VINA RESULT:   -30.347      3.741      5.355
REMARK INTER + INTRA:         -32.940
REMARK INTER:                 -32.435
REMARK INTRA:                  -0.505
REMARK CONF_INDEPENDENT:        2.088
REMARK UNBOUND:                -0.505
REMARK  7 active torsions:
REMARK  status: ('A' for Active; 'I' for Inactive)
REMARK    1  A    between atoms: C_5  and  C_6 
REMARK    2  A    between atoms: C_6  and  C_7 
REMARK    3  A    between atoms: C_7  and  C_8 
REMARK    4  A    between atoms: C_8  and  N_9 
REMARK       I    between atoms: N_9  and  C_10 
REMARK       I    between atoms: C_10  and  N_12 
REMARK    5  A    between atoms: N_12  and  C_13 
REMARK    6  A    between atoms: C_13  and  C_14 
REMARK    7  A    between atoms: C_17  and  O_18 
ROOT
ATOM      1  N   UNL d   1      26.524 -17.864   0.182  0.00  0.00    -0.343 N 
ATOM      2  C   UNL d   1      26.778 -16.609  -0.332  0.00  0.00     0.316 C 
ATOM      3  O   UNL d   1      25.910 -15.752  -0.472  0.00  0.00    -0.247 OA
ATOM      4  N   UNL d   1      28.087 -16.416  -0.676  0.00  0.00    -0.339 N 
ATOM      5  H   UNL d   1      27.273 -18.534   0.267  0.00  0.00     0.164 HD
ATOM      6  H   UNL d   1      28.735 -17.151  -0.467  0.00  0.00     0.164 HD
ENDROOT
BRANCH   1   7
ATOM      7  C   UNL d   1      25.175 -18.239   0.591  0.00  0.00     0.125 C 
BRANCH   7   8
ATOM      8  C   UNL d   1      24.199 -18.425  -0.578  0.00  0.00     0.028 C 
BRANCH   8   9
ATOM      9  C   UNL d   1      22.954 -17.539  -0.425  0.00  0.00     0.090 C 
BRANCH   9  10
ATOM     10  C   UNL d   1      21.660 -18.283  -0.392  0.00  0.00     0.172 A 
ATOM     11  O   UNL d   1      20.630 -17.836  -1.171  0.00  0.00    -0.196 OA
ATOM     12  N   UNL d   1      19.535 -18.659  -0.895  0.00  0.00    -0.112 NA
ATOM     13  C   UNL d   1      20.016 -19.516   0.013  0.00  0.00     0.152 A 
ATOM     14  C   UNL d   1      19.183 -20.554   0.655  0.00  0.00     0.096 C 
ATOM     15  N   UNL d   1      21.333 -19.324   0.344  0.00  0.00    -0.209 NA
ENDBRANCH   9  10
ENDBRANCH   8   9
ENDBRANCH   7   8
ENDBRANCH   1   7
BRANCH   4  16
ATOM     16  C   UNL d   1      28.570 -15.151  -1.230  0.00  0.00     0.162 C 
BRANCH  16  17
ATOM     17  C   UNL d   1      27.681 -14.505  -2.285  0.00  0.00    -0.040 A 
ATOM     18  C   UNL d   1      27.035 -15.238  -3.293  0.00  0.00     0.011 A 
ATOM     19  C   UNL d   1      26.215 -14.620  -4.243  0.00  0.00     0.037 A 
ATOM     20  C   UNL d   1      26.015 -13.249  -4.188  0.00  0.00     0.065 A 
ATOM     21  C   UNL d   1      26.635 -12.490  -3.205  0.00  0.00     0.037 A 
ATOM     22  C   UNL d   1      27.462 -13.112  -2.257  0.00  0.00     0.011 A 
BRANCH  20  23
ATOM     23  O   UNL d   1      25.211 -12.609  -5.083  0.00  0.00    -0.361 OA
ATOM     24  H   UNL d   1      24.461 -12.215  -4.607  0.00  0.00     0.217 HD
ENDBRANCH  20  23
ENDBRANCH  16  17
ENDBRANCH   4  16
TORSDOF 7
ENDMDL
MODEL 8
REMARK VINA RESULT:   -30.095      5.003      7.017
REMARK INTER + INTRA:         -32.503
REMARK INTER:                 -32.183
REMARK INTRA:                  -0.319
REMARK CONF_INDEPENDENT:        2.088
REMARK UNBOUND:                -0.319
REMARK  7 active torsions:
REMARK  status: ('A' for Active; 'I' for Inactive)
REMARK    1  A    between atoms: C_5  and  C_6 
REMARK    2  A    between atoms: C_6  and  C_7 
REMARK    3  A    between atoms: C_7  and  C_8 
REMARK    4  A    between atoms: C_8  and  N_9 
REMARK       I    between atoms: N_9  and  C_10 
REMARK       I    between atoms: C_10  and  N_12 
REMARK    5  A    between atoms: N_12  and  C_13 
REMARK    6  A    between atoms: C_13  and  C_14 
REMARK    7  A    between atoms: C_17  and  O_18 
ROOT
ATOM      1  N   UNL d   1      25.734 -16.365  -1.538  0.00  0.00    -0.343 N 
ATOM      2  C   UNL d   1      25.808 -15.534  -2.636  0.00  0.00     0.316 C 
ATOM      3  O   UNL d   1      24.832 -14.963  -3.113  0.00  0.00    -0.247 OA
ATOM      4  N   UNL d   1      27.072 -15.414  -3.144  0.00  0.00    -0.339 N 
ATOM      5  H   UNL d   1      26.567 -16.817  -1.191  0.00  0.00     0.164 HD
ATOM      6  H   UNL d   1      27.816 -15.867  -2.649  0.00  0.00     0.164 HD
ENDROOT
BRANCH   1   7
ATOM      7  C   UNL d   1      24.457 -16.611  -0.878  0.00  0.00     0.125 C 
BRANCH   7   8
ATOM      8  C   UNL d   1      23.863 -17.995  -1.169  0.00  0.00     0.028 C 
BRANCH   8   9
ATOM      9  C   UNL d   1      23.170 -18.588   0.067  0.00  0.00     0.090 C 
BRANCH   9  10
ATOM     10  C   UNL d   1      21.728 -18.921  -0.126  0.00  0.00     0.172 A 
ATOM     11  O   UNL d   1      20.980 -18.128  -0.952  0.00  0.00    -0.196 OA
ATOM     12  N   UNL d   1      19.672 -18.615  -0.895  0.00  0.00    -0.112 NA
ATOM     13  C   UNL d   1      19.765 -19.648  -0.049  0.00  0.00     0.152 A 
ATOM     14  C   UNL d   1      18.595 -20.446   0.372  0.00  0.00     0.096 C 
ATOM     15  N   UNL d   1      21.025 -19.878   0.441  0.00  0.00    -0.209 NA
ENDBRANCH   9  10
ENDBRANCH   8   9
ENDBRANCH   7   8
ENDBRANCH   1   7
BRANCH   4  16
ATOM     16  C   UNL d   1      27.371 -14.571  -4.302  0.00  0.00     0.162 C 
BRANCH  16  17
ATOM     17  C   UNL d   1      28.490 -15.064  -5.211  0.00  0.00    -0.040 A 
ATOM     18  C   UNL d   1      28.818 -14.441  -6.425  0.00  0.00     0.011 A 
ATOM     19  C   UNL d   1      29.858 -14.910  -7.236  0.00  0.00     0.037 A 
ATOM     20  C   UNL d   1      30.601 -16.008  -6.832  0.00  0.00     0.065 A 
ATOM     21  C   UNL d   1      30.308 -16.650  -5.637  0.00  0.00     0.037 A 
ATOM     22  C   UNL d   1      29.261 -16.182  -4.828  0.00  0.00     0.011 A 
BRANCH  20  23
ATOM     23  O   UNL d   1      31.633 -16.486  -7.583  0.00  0.00    -0.361 OA
ATOM     24  H   UNL d   1      31.744 -15.918  -8.364  0.00  0.00     0.217 HD
ENDBRANCH  20  23
ENDBRANCH  16  17
ENDBRANCH   4  16
TORSDOF 7
ENDMDL
MODEL 9
REMARK VINA RESULT:   -30.033      2.185      2.612
REMARK INTER + INTRA:         -32.488
REMARK INTER:                 -32.121
REMARK INTRA:                  -0.367
REMARK CONF_INDEPENDENT:        2.088
REMARK UNBOUND:                -0.367
REMARK  7 active torsions:
REMARK  status: ('A' for Active; 'I' for Inactive)
REMARK    1  A    between atoms: C_5  and  C_6 
REMARK    2  A    between atoms: C_6  and  C_7 
REMARK    3  A    between atoms: C_7  and  C_8 
REMARK    4  A    between atoms: C_8  and  N_9 
REMARK       I    between atoms: N_9  and  C_10 
REMARK       I    between atoms: C_10  and  N_12 
REMARK    5  A    between atoms: N_12  and  C_13 
REMARK    6  A    between atoms: C_13  and  C_14 
REMARK    7  A    between atoms: C_17  and  O_18 
ROOT
ATOM      1  N   UNL d   1      26.602 -18.026   0.316  0.00  0.00    -0.343 N 
ATOM      2  C   UNL d   1      27.520 -17.083  -0.095  0.00  0.00     0.316 C 
ATOM      3  O   UNL d   1      27.217 -15.925  -0.369  0.00  0.00    -0.247 OA
ATOM      4  N   UNL d   1      28.797 -17.564  -0.173  0.00  0.00    -0.339 N 
ATOM      5  H   UNL d   1      26.903 -18.967   0.520  0.00  0.00     0.164 HD
ATOM      6  H   UNL d   1      28.958 -18.505   0.131  0.00  0.00     0.164 HD
ENDROOT
BRANCH   1   7
ATOM      7  C   UNL d   1      25.190 -17.682   0.444  0.00  0.00     0.125 C 
BRANCH   7   8
ATOM      8  C   UNL d   1      24.240 -18.694  -0.210  0.00  0.00     0.028 C 
BRANCH   8   9
ATOM      9  C   UNL d   1      23.120 -17.997  -0.996  0.00  0.00     0.090 C 
BRANCH   9  10
ATOM     10  C   UNL d   1      21.760 -18.577  -0.790  0.00  0.00     0.172 A 
ATOM     11  O   UNL d   1      20.681 -17.903  -1.289  0.00  0.00    -0.196 OA
ATOM     12  N   UNL d   1      19.547 -18.619  -0.896  0.00  0.00    -0.112 NA
ATOM     13  C   UNL d   1      20.056 -19.648  -0.209  0.00  0.00     0.152 A 
ATOM     14  C   UNL d   1      19.213 -20.659   0.462  0.00  0.00     0.096 C 
ATOM     15  N   UNL d   1      21.426 -19.665  -0.130  0.00  0.00    -0.209 NA
ENDBRANCH   9  10
ENDBRANCH   8   9
ENDBRANCH   7   8
ENDBRANCH   1   7
BRANCH   4  16
ATOM     16  C   UNL d   1      29.924 -16.724  -0.578  0.00  0.00     0.162 C 
BRANCH  16  17
ATOM     17  C   UNL d   1      30.451 -15.763   0.481  0.00  0.00    -0.040 A 
ATOM     18  C   UNL d   1      29.641 -14.811   1.119  0.00  0.00     0.011 A 
ATOM     19  C   UNL d   1      30.149 -13.947   2.096  0.00  0.00     0.037 A 
ATOM     20  C   UNL d   1      31.483 -14.036   2.463  0.00  0.00     0.065 A 
ATOM     21  C   UNL d   1      32.316 -14.967   1.856  0.00  0.00     0.037 A 
ATOM     22  C   UNL d   1      31.805 -15.827   0.872  0.00  0.00     0.011 A 
BRANCH  20  23
ATOM     23  O   UNL d   1      32.014 -13.227   3.422  0.00  0.00    -0.361 OA
ATOM     24  H   UNL d   1      32.207 -13.759   4.212  0.00  0.00     0.217 HD
ENDBRANCH  20  23
ENDBRANCH  16  17
ENDBRANCH   4  16
TORSDOF 7
ENDMDL
