MODEL 1
REMARK VINA RESULT:   -10.515      0.000      0.000
REMARK INTER + INTRA:         -16.689
REMARK INTER:                 -14.094
REMARK INTRA:                  -2.595
REMARK CONF_INDEPENDENT:        3.580
REMARK UNBOUND:                -2.595
REMARK  12 active torsions:
REMARK  status: ('A' for Active; 'I' for Inactive)
REMARK    1  A    between atoms: C_3  and  C_4 
REMARK    2  A    between atoms: C_4  and  O_6 
REMARK    3  A    between atoms: O_6  and  C_7 
REMARK    4  A    between atoms: C_13  and  C_14 
REMARK    5  A    between atoms: N_15  and  C_14 
REMARK    6  A    between atoms: N_15  and  C_28 
REMARK    7  A    between atoms: N_15  and  C_16 
REMARK    8  A    between atoms: C_16  and  C_17 
REMARK    9  A    between atoms: C_17  and  O_18 
REMARK   10  A    between atoms: C_17  and  C_19 
REMARK   11  A    between atoms: C_19  and  O_20 
REMARK   12  A    between atoms: O_20  and  C_21 
ROOT
ATOM      1  C   UNL d   1      29.481 -13.560   1.252  0.00  0.00     0.313 C 
ENDROOT
BRANCH   1   2
ATOM      2  C   UNL d   1      28.773 -13.283  -0.072  0.00  0.00     0.134 C 
ATOM      3  N   UNL d   1      28.825 -14.194  -0.976  0.00  0.00    -0.225 NA
ATOM      4  C   UNL d   1      27.965 -14.107  -1.993  0.00  0.00     0.116 C 
ATOM      5  S   UNL d   1      27.642 -15.455  -2.951  0.00  0.00    -0.063 SA
ATOM      6  C   UNL d   1      27.240 -13.004  -2.321  0.00  0.00     0.075 C 
ATOM      7  C   UNL d   1      26.703 -14.513  -4.035  0.00  0.00     0.089 C 
ATOM      8  C   UNL d   1      26.551 -13.205  -3.566  0.00  0.00    -0.020 C 
ATOM      9  C   UNL d   1      25.833 -12.088  -4.234  0.00  0.00     0.051 C 
ATOM     10  C   UNL d   1      27.374 -11.865  -1.425  0.00  0.00     0.260 C 
ATOM     11  N   UNL d   1      28.072 -12.122  -0.252  0.00  0.00    -0.309 N 
ATOM     12  O   UNL d   1      26.921 -10.742  -1.658  0.00  0.00    -0.267 OA
ATOM     13  H   UNL d   1      28.190 -11.321   0.355  0.00  0.00     0.170 HD
BRANCH   7  14
ATOM     14  C   UNL d   1      26.258 -15.203  -5.237  0.00  0.00     0.301 C 
ATOM     15  O   UNL d   1      25.158 -15.714  -5.391  0.00  0.00    -0.259 OA
BRANCH  14  16
ATOM     16  O   UNL d   1      27.242 -15.200  -6.176  0.00  0.00    -0.312 OA
BRANCH  16  17
ATOM     17  C   UNL d   1      28.457 -14.505  -5.851  0.00  0.00     0.124 C 
ATOM     18  C   UNL d   1      29.639 -15.464  -5.894  0.00  0.00     0.040 C 
ATOM     19  C   UNL d   1      28.665 -13.410  -6.897  0.00  0.00     0.040 C 
ENDBRANCH  16  17
ENDBRANCH  14  16
ENDBRANCH   7  14
ENDBRANCH   1   2
BRANCH   1  20
ATOM     20  N   UNL d   1      29.021 -14.827   2.069  0.00  0.00    -0.058 N 
ATOM     21  H   UNL d   1      29.774 -15.535   1.997  0.00  0.00     0.280 HD
BRANCH  20  22
ATOM     22  C   UNL d   1      28.813 -14.456   3.551  0.00  0.00     0.180 C 
ATOM     23  C   UNL d   1      29.942 -13.606   4.116  0.00  0.00     0.039 C 
ATOM     24  C   UNL d   1      27.528 -13.672   3.730  0.00  0.00     0.039 C 
ENDBRANCH  20  22
BRANCH  20  25
ATOM     25  C   UNL d   1      27.781 -15.538   1.546  0.00  0.00     0.269 C 
BRANCH  25  26
ATOM     26  C   UNL d   1      27.999 -16.382   0.295  0.00  0.00     0.168 C 
BRANCH  26  27
ATOM     27  O   UNL d   1      29.250 -17.048   0.304  0.00  0.00    -0.392 OA
ATOM     28  H   UNL d   1      29.607 -16.974   1.210  0.00  0.00     0.210 HD
ENDBRANCH  26  27
BRANCH  26  29
ATOM     29  C   UNL d   1      26.764 -17.269   0.200  0.00  0.00     0.209 C 
BRANCH  29  30
ATOM     30  O   UNL d   1      25.664 -16.444  -0.144  0.00  0.00    -0.349 OA
BRANCH  30  31
ATOM     31  C   UNL d   1      24.525 -17.167  -0.331  0.00  0.00     0.069 C 
ATOM     32  C   UNL d   1      23.360 -16.441  -0.551  0.00  0.00     0.038 C 
ATOM     33  C   UNL d   1      22.189 -17.114  -0.885  0.00  0.00     0.026 C 
ATOM     34  C   UNL d   1      22.127 -18.495  -0.726  0.00  0.00     0.034 C 
ATOM     35 CL   UNL d   1      20.621 -19.306  -0.889  0.00  0.00    -0.084 Cl
ATOM     36  C   UNL d   1      23.266 -19.218  -0.385  0.00  0.00     0.026 C 
ATOM     37  C   UNL d   1      24.488 -18.560  -0.268  0.00  0.00     0.038 C 
ENDBRANCH  30  31
ENDBRANCH  29  30
ENDBRANCH  26  29
ENDBRANCH  25  26
ENDBRANCH  20  25
ENDBRANCH   1  20
TORSDOF 12
ENDMDL
MODEL 2
REMARK VINA RESULT:    -9.826      3.638      6.863
REMARK INTER + INTRA:         -16.595
REMARK INTER:                 -13.406
REMARK INTRA:                  -3.189
REMARK CONF_INDEPENDENT:        3.580
REMARK UNBOUND:                -3.189
REMARK  12 active torsions:
REMARK  status: ('A' for Active; 'I' for Inactive)
REMARK    1  A    between atoms: C_3  and  C_4 
REMARK    2  A    between atoms: C_4  and  O_6 
REMARK    3  A    between atoms: O_6  and  C_7 
REMARK    4  A    between atoms: C_13  and  C_14 
REMARK    5  A    between atoms: N_15  and  C_14 
REMARK    6  A    between atoms: N_15  and  C_28 
REMARK    7  A    between atoms: N_15  and  C_16 
REMARK    8  A    between atoms: C_16  and  C_17 
REMARK    9  A    between atoms: C_17  and  O_18 
REMARK   10  A    between atoms: C_17  and  C_19 
REMARK   11  A    between atoms: C_19  and  O_20 
REMARK   12  A    between atoms: O_20  and  C_21 
ROOT
ATOM      1  C   UNL d   1      30.513 -17.098  -0.394  0.00  0.00     0.313 C 
ENDROOT
BRANCH   1   2
ATOM      2  C   UNL d   1      29.133 -16.729  -0.934  0.00  0.00     0.134 C 
ATOM      3  N   UNL d   1      28.123 -17.377  -0.477  0.00  0.00    -0.225 NA
ATOM      4  C   UNL d   1      26.910 -16.866  -0.694  0.00  0.00     0.116 C 
ATOM      5  S   UNL d   1      25.596 -17.369   0.235  0.00  0.00    -0.063 SA
ATOM      6  C   UNL d   1      26.614 -15.889  -1.592  0.00  0.00     0.075 C 
ATOM      7  C   UNL d   1      24.507 -16.473  -0.742  0.00  0.00     0.089 C 
ATOM      8  C   UNL d   1      25.192 -15.701  -1.685  0.00  0.00    -0.020 C 
ATOM      9  C   UNL d   1      24.602 -14.818  -2.724  0.00  0.00     0.051 C 
ATOM     10  C   UNL d   1      27.747 -15.318  -2.306  0.00  0.00     0.260 C 
ATOM     11  N   UNL d   1      28.993 -15.711  -1.837  0.00  0.00    -0.309 N 
ATOM     12  O   UNL d   1      27.646 -14.546  -3.263  0.00  0.00    -0.267 OA
ATOM     13  H   UNL d   1      29.778 -15.336  -2.354  0.00  0.00     0.170 HD
BRANCH   7  14
ATOM     14  C   UNL d   1      23.095 -16.678  -0.454  0.00  0.00     0.301 C 
ATOM     15  O   UNL d   1      22.178 -16.005  -0.900  0.00  0.00    -0.259 OA
BRANCH  14  16
ATOM     16  O   UNL d   1      22.934 -17.734   0.389  0.00  0.00    -0.312 OA
BRANCH  16  17
ATOM     17  C   UNL d   1      22.539 -18.986  -0.195  0.00  0.00     0.124 C 
ATOM     18  C   UNL d   1      21.031 -19.167  -0.080  0.00  0.00     0.040 C 
ATOM     19  C   UNL d   1      22.926 -18.957  -1.673  0.00  0.00     0.040 C 
ENDBRANCH  16  17
ENDBRANCH  14  16
ENDBRANCH   7  14
ENDBRANCH   1   2
BRANCH   1  20
ATOM     20  N   UNL d   1      30.992 -16.375   0.922  0.00  0.00    -0.058 N 
ATOM     21  H   UNL d   1      30.405 -16.724   1.701  0.00  0.00     0.280 HD
BRANCH  20  22
ATOM     22  C   UNL d   1      32.468 -16.715   1.207  0.00  0.00     0.180 C 
ATOM     23  C   UNL d   1      33.025 -15.984   2.420  0.00  0.00     0.039 C 
ATOM     24  C   UNL d   1      32.635 -18.200   1.464  0.00  0.00     0.039 C 
ENDBRANCH  20  22
BRANCH  20  25
ATOM     25  C   UNL d   1      30.805 -14.865   0.954  0.00  0.00     0.269 C 
BRANCH  25  26
ATOM     26  C   UNL d   1      29.449 -14.392   1.469  0.00  0.00     0.168 C 
BRANCH  26  27
ATOM     27  O   UNL d   1      28.463 -15.407   1.404  0.00  0.00    -0.392 OA
ATOM     28  H   UNL d   1      28.551 -15.944   2.216  0.00  0.00     0.210 HD
ENDBRANCH  26  27
BRANCH  26  29
ATOM     29  C   UNL d   1      29.733 -13.815   2.850  0.00  0.00     0.209 C 
BRANCH  29  30
ATOM     30  O   UNL d   1      29.127 -14.665   3.807  0.00  0.00    -0.349 OA
BRANCH  30  31
ATOM     31  C   UNL d   1      28.951 -14.039   5.005  0.00  0.00     0.069 C 
ATOM     32  C   UNL d   1      29.812 -14.413   6.030  0.00  0.00     0.038 C 
ATOM     33  C   UNL d   1      29.780 -13.720   7.236  0.00  0.00     0.026 C 
ATOM     34  C   UNL d   1      28.718 -12.859   7.499  0.00  0.00     0.034 C 
ATOM     35 CL   UNL d   1      28.529 -12.194   9.072  0.00  0.00    -0.084 Cl
ATOM     36  C   UNL d   1      27.780 -12.573   6.512  0.00  0.00     0.026 C 
ATOM     37  C   UNL d   1      27.944 -13.102   5.234  0.00  0.00     0.038 C 
ENDBRANCH  30  31
ENDBRANCH  29  30
ENDBRANCH  26  29
ENDBRANCH  25  26
ENDBRANCH  20  25
ENDBRANCH   1  20
TORSDOF 12
ENDMDL
MODEL 3
REMARK VINA RESULT:    -9.741      4.362      7.002
REMARK INTER + INTRA:         -16.098
REMARK INTER:                 -13.321
REMARK INTRA:                  -2.777
REMARK CONF_INDEPENDENT:        3.580
REMARK UNBOUND:                -2.777
REMARK  12 active torsions:
REMARK  status: ('A' for Active; 'I' for Inactive)
REMARK    1  A    between atoms: C_3  and  C_4 
REMARK    2  A    between atoms: C_4  and  O_6 
REMARK    3  A    between atoms: O_6  and  C_7 
REMARK    4  A    between atoms: C_13  and  C_14 
REMARK    5  A    between atoms: N_15  and  C_14 
REMARK    6  A    between atoms: N_15  and  C_28 
REMARK    7  A    between atoms: N_15  and  C_16 
REMARK    8  A    between atoms: C_16  and  C_17 
REMARK    9  A    between atoms: C_17  and  O_18 
REMARK   10  A    between atoms: C_17  and  C_19 
REMARK   11  A    between atoms: C_19  and  O_20 
REMARK   12  A    between atoms: O_20  and  C_21 
ROOT
ATOM      1  C   UNL d   1      30.103 -13.886   1.555  0.00  0.00     0.313 C 
ENDROOT
BRANCH   1   2
ATOM      2  C   UNL d   1      28.943 -14.451   0.739  0.00  0.00     0.134 C 
ATOM      3  N   UNL d   1      28.586 -13.806  -0.313  0.00  0.00    -0.225 NA
ATOM      4  C   UNL d   1      27.806 -14.437  -1.192  0.00  0.00     0.116 C 
ATOM      5  S   UNL d   1      27.672 -13.868  -2.773  0.00  0.00    -0.063 SA
ATOM      6  C   UNL d   1      27.116 -15.585  -0.953  0.00  0.00     0.075 C 
ATOM      7  C   UNL d   1      26.440 -15.010  -3.125  0.00  0.00     0.089 C 
ATOM      8  C   UNL d   1      26.248 -15.892  -2.057  0.00  0.00    -0.020 C 
ATOM      9  C   UNL d   1      25.257 -16.995  -1.969  0.00  0.00     0.051 C 
ATOM     10  C   UNL d   1      27.327 -16.193   0.352  0.00  0.00     0.260 C 
ATOM     11  N   UNL d   1      28.348 -15.628   1.103  0.00  0.00    -0.309 N 
ATOM     12  O   UNL d   1      26.665 -17.136   0.793  0.00  0.00    -0.267 OA
ATOM     13  H   UNL d   1      28.473 -16.033   2.022  0.00  0.00     0.170 HD
BRANCH   7  14
ATOM     14  C   UNL d   1      25.802 -14.860  -4.425  0.00  0.00     0.301 C 
ATOM     15  O   UNL d   1      24.783 -14.221  -4.641  0.00  0.00    -0.259 OA
BRANCH  14  16
ATOM     16  O   UNL d   1      26.504 -15.533  -5.376  0.00  0.00    -0.312 OA
BRANCH  16  17
ATOM     17  C   UNL d   1      27.578 -14.829  -6.020  0.00  0.00     0.124 C 
ATOM     18  C   UNL d   1      27.412 -13.327  -5.828  0.00  0.00     0.040 C 
ATOM     19  C   UNL d   1      28.888 -15.273  -5.369  0.00  0.00     0.040 C 
ENDBRANCH  16  17
ENDBRANCH  14  16
ENDBRANCH   7  14
ENDBRANCH   1   2
BRANCH   1  20
ATOM     20  N   UNL d   1      30.551 -14.694   2.832  0.00  0.00    -0.058 N 
ATOM     21  H   UNL d   1      30.006 -15.575   2.851  0.00  0.00     0.280 HD
BRANCH  20  22
ATOM     22  C   UNL d   1      32.054 -15.027   2.748  0.00  0.00     0.180 C 
ATOM     23  C   UNL d   1      32.336 -16.320   1.995  0.00  0.00     0.039 C 
ATOM     24  C   UNL d   1      32.808 -13.921   2.037  0.00  0.00     0.039 C 
ENDBRANCH  20  22
BRANCH  20  25
ATOM     25  C   UNL d   1      30.253 -14.035   4.171  0.00  0.00     0.269 C 
BRANCH  25  26
ATOM     26  C   UNL d   1      28.817 -14.189   4.662  0.00  0.00     0.168 C 
BRANCH  26  27
ATOM     27  O   UNL d   1      28.112 -15.200   3.962  0.00  0.00    -0.392 OA
ATOM     28  H   UNL d   1      28.517 -16.054   4.209  0.00  0.00     0.210 HD
ENDBRANCH  26  27
BRANCH  26  29
ATOM     29  C   UNL d   1      28.934 -14.369   6.170  0.00  0.00     0.209 C 
BRANCH  29  30
ATOM     30  O   UNL d   1      28.056 -13.444   6.786  0.00  0.00    -0.349 OA
BRANCH  30  31
ATOM     31  C   UNL d   1      28.567 -12.955   7.951  0.00  0.00     0.069 C 
ATOM     32  C   UNL d   1      29.191 -11.715   7.880  0.00  0.00     0.038 C 
ATOM     33  C   UNL d   1      29.613 -11.095   9.053  0.00  0.00     0.026 C 
ATOM     34  C   UNL d   1      29.658 -11.831  10.234  0.00  0.00     0.034 C 
ATOM     35 CL   UNL d   1      30.411 -11.162  11.626  0.00  0.00    -0.084 Cl
ATOM     36  C   UNL d   1      29.144 -13.123  10.281  0.00  0.00     0.026 C 
ATOM     37  C   UNL d   1      28.522 -13.656   9.155  0.00  0.00     0.038 C 
ENDBRANCH  30  31
ENDBRANCH  29  30
ENDBRANCH  26  29
ENDBRANCH  25  26
ENDBRANCH  20  25
ENDBRANCH   1  20
TORSDOF 12
ENDMDL
MODEL 4
REMARK VINA RESULT:    -9.362      3.721      6.321
REMARK INTER + INTRA:         -16.501
REMARK INTER:                 -12.941
REMARK INTRA:                  -3.560
REMARK CONF_INDEPENDENT:        3.580
REMARK UNBOUND:                -3.560
REMARK  12 active torsions:
REMARK  status: ('A' for Active; 'I' for Inactive)
REMARK    1  A    between atoms: C_3  and  C_4 
REMARK    2  A    between atoms: C_4  and  O_6 
REMARK    3  A    between atoms: O_6  and  C_7 
REMARK    4  A    between atoms: C_13  and  C_14 
REMARK    5  A    between atoms: N_15  and  C_14 
REMARK    6  A    between atoms: N_15  and  C_28 
REMARK    7  A    between atoms: N_15  and  C_16 
REMARK    8  A    between atoms: C_16  and  C_17 
REMARK    9  A    between atoms: C_17  and  O_18 
REMARK   10  A    between atoms: C_17  and  C_19 
REMARK   11  A    between atoms: C_19  and  O_20 
REMARK   12  A    between atoms: O_20  and  C_21 
ROOT
ATOM      1  C   UNL d   1      31.421 -16.398  -0.032  0.00  0.00     0.313 C 
ENDROOT
BRANCH   1   2
ATOM      2  C   UNL d   1      29.966 -16.202  -0.451  0.00  0.00     0.134 C 
ATOM      3  N   UNL d   1      29.744 -15.635  -1.582  0.00  0.00    -0.225 NA
ATOM      4  C   UNL d   1      28.519 -15.740  -2.099  0.00  0.00     0.116 C 
ATOM      5  S   UNL d   1      28.258 -15.447  -3.738  0.00  0.00    -0.063 SA
ATOM      6  C   UNL d   1      27.408 -16.136  -1.421  0.00  0.00     0.075 C 
ATOM      7  C   UNL d   1      26.559 -15.577  -3.535  0.00  0.00     0.089 C 
ATOM      8  C   UNL d   1      26.234 -15.972  -2.234  0.00  0.00    -0.020 C 
ATOM      9  C   UNL d   1      24.875 -16.164  -1.666  0.00  0.00     0.051 C 
ATOM     10  C   UNL d   1      27.618 -16.547  -0.041  0.00  0.00     0.260 C 
ATOM     11  N   UNL d   1      28.949 -16.663   0.339  0.00  0.00    -0.309 N 
ATOM     12  O   UNL d   1      26.709 -16.777   0.761  0.00  0.00    -0.267 OA
ATOM     13  H   UNL d   1      29.092 -16.920   1.307  0.00  0.00     0.170 HD
BRANCH   7  14
ATOM     14  C   UNL d   1      25.763 -15.241  -4.706  0.00  0.00     0.301 C 
ATOM     15  O   UNL d   1      25.886 -15.745  -5.812  0.00  0.00    -0.259 OA
BRANCH  14  16
ATOM     16  O   UNL d   1      24.852 -14.278  -4.398  0.00  0.00    -0.312 OA
BRANCH  16  17
ATOM     17  C   UNL d   1      25.268 -12.911  -4.543  0.00  0.00     0.124 C 
ATOM     18  C   UNL d   1      25.495 -12.284  -3.174  0.00  0.00     0.040 C 
ATOM     19  C   UNL d   1      26.583 -12.900  -5.321  0.00  0.00     0.040 C 
ENDBRANCH  16  17
ENDBRANCH  14  16
ENDBRANCH   7  14
ENDBRANCH   1   2
BRANCH   1  20
ATOM     20  N   UNL d   1      31.750 -16.301   1.506  0.00  0.00    -0.058 N 
ATOM     21  H   UNL d   1      30.932 -16.671   2.024  0.00  0.00     0.280 HD
BRANCH  20  22
ATOM     22  C   UNL d   1      32.990 -17.156   1.838  0.00  0.00     0.180 C 
ATOM     23  C   UNL d   1      34.106 -16.356   2.495  0.00  0.00     0.039 C 
ATOM     24  C   UNL d   1      32.625 -18.281   2.787  0.00  0.00     0.039 C 
ENDBRANCH  20  22
BRANCH  20  25
ATOM     25  C   UNL d   1      31.942 -14.895   2.056  0.00  0.00     0.269 C 
BRANCH  25  26
ATOM     26  C   UNL d   1      30.654 -14.145   2.378  0.00  0.00     0.168 C 
BRANCH  26  27
ATOM     27  O   UNL d   1      29.500 -14.836   1.931  0.00  0.00    -0.392 OA
ATOM     28  H   UNL d   1      29.144 -15.325   2.698  0.00  0.00     0.210 HD
ENDBRANCH  26  27
BRANCH  26  29
ATOM     29  C   UNL d   1      30.730 -13.857   3.872  0.00  0.00     0.209 C 
BRANCH  29  30
ATOM     30  O   UNL d   1      29.701 -14.595   4.508  0.00  0.00    -0.349 OA
BRANCH  30  31
ATOM     31  C   UNL d   1      29.317 -14.024   5.684  0.00  0.00     0.069 C 
ATOM     32  C   UNL d   1      29.998 -14.437   6.824  0.00  0.00     0.038 C 
ATOM     33  C   UNL d   1      29.753 -13.798   8.035  0.00  0.00     0.026 C 
ATOM     34  C   UNL d   1      28.650 -12.956   8.151  0.00  0.00     0.034 C 
ATOM     35 CL   UNL d   1      28.190 -12.362   9.695  0.00  0.00    -0.084 Cl
ATOM     36  C   UNL d   1      27.889 -12.633   7.032  0.00  0.00     0.026 C 
ATOM     37  C   UNL d   1      28.274 -13.104   5.780  0.00  0.00     0.038 C 
ENDBRANCH  30  31
ENDBRANCH  29  30
ENDBRANCH  26  29
ENDBRANCH  25  26
ENDBRANCH  20  25
ENDBRANCH   1  20
TORSDOF 12
ENDMDL
MODEL 5
REMARK VINA RESULT:    -9.301      3.107      6.281
REMARK INTER + INTRA:         -16.245
REMARK INTER:                 -12.880
REMARK INTRA:                  -3.365
REMARK CONF_INDEPENDENT:        3.580
REMARK UNBOUND:                -3.365
REMARK  12 active torsions:
REMARK  status: ('A' for Active; 'I' for Inactive)
REMARK    1  A    between atoms: C_3  and  C_4 
REMARK    2  A    between atoms: C_4  and  O_6 
REMARK    3  A    between atoms: O_6  and  C_7 
REMARK    4  A    between atoms: C_13  and  C_14 
REMARK    5  A    between atoms: N_15  and  C_14 
REMARK    6  A    between atoms: N_15  and  C_28 
REMARK    7  A    between atoms: N_15  and  C_16 
REMARK    8  A    between atoms: C_16  and  C_17 
REMARK    9  A    between atoms: C_17  and  O_18 
REMARK   10  A    between atoms: C_17  and  C_19 
REMARK   11  A    between atoms: C_19  and  O_20 
REMARK   12  A    between atoms: O_20  and  C_21 
ROOT
ATOM      1  C   UNL d   1      27.831 -16.239   0.654  0.00  0.00     0.313 C 
ENDROOT
BRANCH   1   2
ATOM      2  C   UNL d   1      27.897 -14.994   1.535  0.00  0.00     0.134 C 
ATOM      3  N   UNL d   1      27.666 -13.859   0.980  0.00  0.00    -0.225 NA
ATOM      4  C   UNL d   1      27.411 -12.820   1.776  0.00  0.00     0.116 C 
ATOM      5  S   UNL d   1      26.657 -11.442   1.162  0.00  0.00    -0.063 SA
ATOM      6  C   UNL d   1      27.654 -12.772   3.113  0.00  0.00     0.075 C 
ATOM      7  C   UNL d   1      26.884 -10.606   2.644  0.00  0.00     0.089 C 
ATOM      8  C   UNL d   1      27.419 -11.448   3.622  0.00  0.00    -0.020 C 
ATOM      9  C   UNL d   1      27.782 -11.088   5.018  0.00  0.00     0.051 C 
ATOM     10  C   UNL d   1      28.161 -13.998   3.711  0.00  0.00     0.260 C 
ATOM     11  N   UNL d   1      28.147 -15.106   2.876  0.00  0.00    -0.309 N 
ATOM     12  O   UNL d   1      28.586 -14.082   4.867  0.00  0.00    -0.267 OA
ATOM     13  H   UNL d   1      28.528 -15.950   3.284  0.00  0.00     0.170 HD
BRANCH   7  14
ATOM     14  C   UNL d   1      26.517  -9.197   2.628  0.00  0.00     0.301 C 
ATOM     15  O   UNL d   1      26.607  -8.434   3.578  0.00  0.00    -0.259 OA
BRANCH  14  16
ATOM     16  O   UNL d   1      26.057  -8.843   1.397  0.00  0.00    -0.312 OA
BRANCH  16  17
ATOM     17  C   UNL d   1      26.808  -7.852   0.677  0.00  0.00     0.124 C 
ATOM     18  C   UNL d   1      28.150  -8.425   0.240  0.00  0.00     0.040 C 
ATOM     19  C   UNL d   1      26.004  -7.464  -0.564  0.00  0.00     0.040 C 
ENDBRANCH  16  17
ENDBRANCH  14  16
ENDBRANCH   7  14
ENDBRANCH   1   2
BRANCH   1  20
ATOM     20  N   UNL d   1      26.601 -16.371  -0.321  0.00  0.00    -0.058 N 
ATOM     21  H   UNL d   1      25.943 -15.601  -0.100  0.00  0.00     0.280 HD
BRANCH  20  22
ATOM     22  C   UNL d   1      27.067 -16.235  -1.785  0.00  0.00     0.180 C 
ATOM     23  C   UNL d   1      26.797 -14.857  -2.371  0.00  0.00     0.039 C 
ATOM     24  C   UNL d   1      28.559 -16.484  -1.895  0.00  0.00     0.039 C 
ENDBRANCH  20  22
BRANCH  20  25
ATOM     25  C   UNL d   1      25.768 -17.636  -0.172  0.00  0.00     0.269 C 
BRANCH  25  26
ATOM     26  C   UNL d   1      24.273 -17.406   0.026  0.00  0.00     0.168 C 
BRANCH  26  27
ATOM     27  O   UNL d   1      23.857 -16.132  -0.433  0.00  0.00    -0.392 OA
ATOM     28  H   UNL d   1      23.013 -16.261  -0.908  0.00  0.00     0.210 HD
ENDBRANCH  26  27
BRANCH  26  29
ATOM     29  C   UNL d   1      23.602 -18.609  -0.624  0.00  0.00     0.209 C 
BRANCH  29  30
ATOM     30  O   UNL d   1      22.354 -18.181  -1.142  0.00  0.00    -0.349 OA
BRANCH  30  31
ATOM     31  C   UNL d   1      21.309 -18.817  -0.543  0.00  0.00     0.069 C 
ATOM     32  C   UNL d   1      21.376 -18.950   0.839  0.00  0.00     0.038 C 
ATOM     33  C   UNL d   1      20.283 -19.466   1.529  0.00  0.00     0.026 C 
ATOM     34  C   UNL d   1      19.261 -20.090   0.819  0.00  0.00     0.034 C 
ATOM     35 CL   UNL d   1      18.038 -20.949   1.664  0.00  0.00    -0.084 Cl
ATOM     36  C   UNL d   1      19.251 -20.065  -0.572  0.00  0.00     0.026 C 
ATOM     37  C   UNL d   1      20.236 -19.355  -1.253  0.00  0.00     0.038 C 
ENDBRANCH  30  31
ENDBRANCH  29  30
ENDBRANCH  26  29
ENDBRANCH  25  26
ENDBRANCH  20  25
ENDBRANCH   1  20
TORSDOF 12
ENDMDL
MODEL 6
REMARK VINA RESULT:    -8.049      2.572      6.762
REMARK INTER + INTRA:         -17.004
REMARK INTER:                 -11.629
REMARK INTRA:                  -5.376
REMARK CONF_INDEPENDENT:        3.580
REMARK UNBOUND:                -5.376
REMARK  12 active torsions:
REMARK  status: ('A' for Active; 'I' for Inactive)
REMARK    1  A    between atoms: C_3  and  C_4 
REMARK    2  A    between atoms: C_4  and  O_6 
REMARK    3  A    between atoms: O_6  and  C_7 
REMARK    4  A    between atoms: C_13  and  C_14 
REMARK    5  A    between atoms: N_15  and  C_14 
REMARK    6  A    between atoms: N_15  and  C_28 
REMARK    7  A    between atoms: N_15  and  C_16 
REMARK    8  A    between atoms: C_16  and  C_17 
REMARK    9  A    between atoms: C_17  and  O_18 
REMARK   10  A    between atoms: C_17  and  C_19 
REMARK   11  A    between atoms: C_19  and  O_20 
REMARK   12  A    between atoms: O_20  and  C_21 
ROOT
ATOM      1  C   UNL d   1      27.065 -13.444  -2.070  0.00  0.00     0.313 C 
ENDROOT
BRANCH   1   2
ATOM      2  C   UNL d   1      27.113 -12.978  -0.617  0.00  0.00     0.134 C 
ATOM      3  N   UNL d   1      27.044 -13.876   0.298  0.00  0.00    -0.225 NA
ATOM      4  C   UNL d   1      27.397 -13.527   1.537  0.00  0.00     0.116 C 
ATOM      5  S   UNL d   1      27.780 -14.708   2.677  0.00  0.00    -0.063 SA
ATOM      6  C   UNL d   1      27.546 -12.252   1.985  0.00  0.00     0.075 C 
ATOM      7  C   UNL d   1      27.896 -13.531   3.920  0.00  0.00     0.089 C 
ATOM      8  C   UNL d   1      27.764 -12.238   3.406  0.00  0.00    -0.020 C 
ATOM      9  C   UNL d   1      27.779 -10.962   4.167  0.00  0.00     0.051 C 
ATOM     10  C   UNL d   1      27.375 -11.204   0.990  0.00  0.00     0.260 C 
ATOM     11  N   UNL d   1      27.274 -11.652  -0.321  0.00  0.00    -0.309 N 
ATOM     12  O   UNL d   1      27.313 -10.000   1.253  0.00  0.00    -0.267 OA
ATOM     13  H   UNL d   1      27.125 -10.924  -1.007  0.00  0.00     0.170 HD
BRANCH   7  14
ATOM     14  C   UNL d   1      28.079 -14.059   5.264  0.00  0.00     0.301 C 
ATOM     15  O   UNL d   1      28.525 -15.164   5.533  0.00  0.00    -0.259 OA
BRANCH  14  16
ATOM     16  O   UNL d   1      27.683 -13.144   6.190  0.00  0.00    -0.312 OA
BRANCH  16  17
ATOM     17  C   UNL d   1      28.650 -12.745   7.174  0.00  0.00     0.124 C 
ATOM     18  C   UNL d   1      28.924 -13.893   8.137  0.00  0.00     0.040 C 
ATOM     19  C   UNL d   1      29.944 -12.388   6.443  0.00  0.00     0.040 C 
ENDBRANCH  16  17
ENDBRANCH  14  16
ENDBRANCH   7  14
ENDBRANCH   1   2
BRANCH   1  20
ATOM     20  N   UNL d   1      26.797 -14.975  -2.331  0.00  0.00    -0.058 N 
ATOM     21  H   UNL d   1      26.362 -15.366  -1.475  0.00  0.00     0.280 HD
BRANCH  20  22
ATOM     22  C   UNL d   1      25.828 -15.150  -3.517  0.00  0.00     0.180 C 
ATOM     23  C   UNL d   1      24.810 -14.024  -3.626  0.00  0.00     0.039 C 
ATOM     24  C   UNL d   1      26.590 -15.194  -4.828  0.00  0.00     0.039 C 
ENDBRANCH  20  22
BRANCH  20  25
ATOM     25  C   UNL d   1      28.032 -15.835  -2.556  0.00  0.00     0.269 C 
BRANCH  25  26
ATOM     26  C   UNL d   1      28.622 -16.461  -1.296  0.00  0.00     0.168 C 
BRANCH  26  27
ATOM     27  O   UNL d   1      29.066 -15.488  -0.367  0.00  0.00    -0.392 OA
ATOM     28  H   UNL d   1      28.415 -15.470   0.362  0.00  0.00     0.210 HD
ENDBRANCH  26  27
BRANCH  26  29
ATOM     29  C   UNL d   1      27.555 -17.429  -0.801  0.00  0.00     0.209 C 
BRANCH  29  30
ATOM     30  O   UNL d   1      26.633 -16.692  -0.017  0.00  0.00    -0.349 OA
BRANCH  30  31
ATOM     31  C   UNL d   1      25.351 -17.108  -0.213  0.00  0.00     0.069 C 
ATOM     32  C   UNL d   1      25.119 -18.474  -0.093  0.00  0.00     0.038 C 
ATOM     33  C   UNL d   1      23.812 -18.951  -0.145  0.00  0.00     0.026 C 
ATOM     34  C   UNL d   1      22.796 -18.109  -0.588  0.00  0.00     0.034 C 
ATOM     35 CL   UNL d   1      21.233 -18.750  -0.899  0.00  0.00    -0.084 Cl
ATOM     36  C   UNL d   1      23.050 -16.762  -0.827  0.00  0.00     0.026 C 
ATOM     37  C   UNL d   1      24.314 -16.243  -0.560  0.00  0.00     0.038 C 
ENDBRANCH  30  31
ENDBRANCH  29  30
ENDBRANCH  26  29
ENDBRANCH  25  26
ENDBRANCH  20  25
ENDBRANCH   1  20
TORSDOF 12
ENDMDL
MODEL 7
REMARK VINA RESULT:    -7.522      1.976      3.696
REMARK INTER + INTRA:         -16.180
REMARK INTER:                 -11.102
REMARK INTRA:                  -5.078
REMARK CONF_INDEPENDENT:        3.580
REMARK UNBOUND:                -5.078
REMARK  12 active torsions:
REMARK  status: ('A' for Active; 'I' for Inactive)
REMARK    1  A    between atoms: C_3  and  C_4 
REMARK    2  A    between atoms: C_4  and  O_6 
REMARK    3  A    between atoms: O_6  and  C_7 
REMARK    4  A    between atoms: C_13  and  C_14 
REMARK    5  A    between atoms: N_15  and  C_14 
REMARK    6  A    between atoms: N_15  and  C_28 
REMARK    7  A    between atoms: N_15  and  C_16 
REMARK    8  A    between atoms: C_16  and  C_17 
REMARK    9  A    between atoms: C_17  and  O_18 
REMARK   10  A    between atoms: C_17  and  C_19 
REMARK   11  A    between atoms: C_19  and  O_20 
REMARK   12  A    between atoms: O_20  and  C_21 
ROOT
ATOM      1  C   UNL d   1      30.723 -15.139   1.665  0.00  0.00     0.313 C 
ENDROOT
BRANCH   1   2
ATOM      2  C   UNL d   1      30.423 -15.729   0.289  0.00  0.00     0.134 C 
ATOM      3  N   UNL d   1      29.795 -14.989  -0.552  0.00  0.00    -0.225 NA
ATOM      4  C   UNL d   1      29.805 -15.359  -1.833  0.00  0.00     0.116 C 
ATOM      5  S   UNL d   1      29.426 -14.250  -3.044  0.00  0.00    -0.063 SA
ATOM      6  C   UNL d   1      30.163 -16.587  -2.296  0.00  0.00     0.075 C 
ATOM      7  C   UNL d   1      29.463 -15.478  -4.242  0.00  0.00     0.089 C 
ATOM      8  C   UNL d   1      29.894 -16.694  -3.704  0.00  0.00    -0.020 C 
ATOM      9  C   UNL d   1      30.030 -17.993  -4.414  0.00  0.00     0.051 C 
ATOM     10  C   UNL d   1      30.646 -17.528  -1.296  0.00  0.00     0.260 C 
ATOM     11  N   UNL d   1      30.857 -16.985  -0.036  0.00  0.00    -0.309 N 
ATOM     12  O   UNL d   1      30.856 -18.724  -1.513  0.00  0.00    -0.267 OA
ATOM     13  H   UNL d   1      31.164 -17.648   0.665  0.00  0.00     0.170 HD
BRANCH   7  14
ATOM     14  C   UNL d   1      29.029 -15.068  -5.569  0.00  0.00     0.301 C 
ATOM     15  O   UNL d   1      29.674 -14.371  -6.338  0.00  0.00    -0.259 OA
BRANCH  14  16
ATOM     16  O   UNL d   1      27.796 -15.575  -5.840  0.00  0.00    -0.312 OA
BRANCH  16  17
ATOM     17  C   UNL d   1      26.666 -14.883  -5.285  0.00  0.00     0.124 C 
ATOM     18  C   UNL d   1      26.366 -15.404  -3.886  0.00  0.00     0.040 C 
ATOM     19  C   UNL d   1      27.020 -13.398  -5.199  0.00  0.00     0.040 C 
ENDBRANCH  16  17
ENDBRANCH  14  16
ENDBRANCH   7  14
ENDBRANCH   1   2
BRANCH   1  20
ATOM     20  N   UNL d   1      29.519 -14.503   2.458  0.00  0.00    -0.058 N 
ATOM     21  H   UNL d   1      28.675 -15.066   2.249  0.00  0.00     0.280 HD
BRANCH  20  22
ATOM     22  C   UNL d   1      29.798 -14.550   3.973  0.00  0.00     0.180 C 
ATOM     23  C   UNL d   1      30.320 -13.232   4.525  0.00  0.00     0.039 C 
ATOM     24  C   UNL d   1      28.534 -14.888   4.739  0.00  0.00     0.039 C 
ENDBRANCH  20  22
BRANCH  20  25
ATOM     25  C   UNL d   1      29.138 -13.085   2.058  0.00  0.00     0.269 C 
BRANCH  25  26
ATOM     26  C   UNL d   1      27.965 -12.980   1.089  0.00  0.00     0.168 C 
BRANCH  26  27
ATOM     27  O   UNL d   1      28.386 -12.839  -0.257  0.00  0.00    -0.392 OA
ATOM     28  H   UNL d   1      28.164 -13.673  -0.715  0.00  0.00     0.210 HD
ENDBRANCH  26  27
BRANCH  26  29
ATOM     29  C   UNL d   1      27.090 -14.187   1.399  0.00  0.00     0.209 C 
BRANCH  29  30
ATOM     30  O   UNL d   1      27.537 -15.264   0.592  0.00  0.00    -0.349 OA
BRANCH  30  31
ATOM     31  C   UNL d   1      26.505 -16.050   0.177  0.00  0.00     0.069 C 
ATOM     32  C   UNL d   1      26.578 -17.397   0.515  0.00  0.00     0.038 C 
ATOM     33  C   UNL d   1      25.497 -18.229   0.243  0.00  0.00     0.026 C 
ATOM     34  C   UNL d   1      24.485 -17.778  -0.600  0.00  0.00     0.034 C 
ATOM     35 CL   UNL d   1      23.280 -18.873  -1.147  0.00  0.00    -0.084 Cl
ATOM     36  C   UNL d   1      24.471 -16.459  -1.043  0.00  0.00     0.026 C 
ATOM     37  C   UNL d   1      25.441 -15.571  -0.586  0.00  0.00     0.038 C 
ENDBRANCH  30  31
ENDBRANCH  29  30
ENDBRANCH  26  29
ENDBRANCH  25  26
ENDBRANCH  20  25
ENDBRANCH   1  20
TORSDOF 12
ENDMDL
