MODEL 1
REMARK VINA RESULT:    -8.680      0.000      0.000
REMARK INTER + INTRA:         -11.817
REMARK INTER:                 -10.768
REMARK INTRA:                  -1.050
REMARK CONF_INDEPENDENT:        2.088
REMARK UNBOUND:                -1.050
REMARK  7 active torsions:
REMARK  status: ('A' for Active; 'I' for Inactive)
REMARK    1  A    between atoms: O_2  and  C_3 
REMARK    2  A    between atoms: C_6  and  C_7 
REMARK       I    between atoms: C_7  and  N_9 
REMARK       I    between atoms: C_10  and  N_11 
REMARK       I    between atoms: C_10  and  N_23 
REMARK    3  A    between atoms: N_11  and  C_12 
REMARK    4  A    between atoms: C_12  and  C_13 
REMARK    5  A    between atoms: C_13  and  C_14 
REMARK    6  A    between atoms: N_23  and  C_24 
REMARK    7  A    between atoms: C_32  and  O_33 
ROOT
ATOM      1  C   UNL d   1      27.376 -17.249  -0.006  0.00  0.00     0.294 C 
ATOM      2  O   UNL d   1      28.017 -18.302  -0.149  0.00  0.00    -0.265 OA
ATOM      3  N   UNL d   1      27.938 -16.036   0.332  0.00  0.00    -0.023 NA
ATOM      4  C   UNL d   1      29.237 -15.929   0.454  0.00  0.00     0.704 C 
ATOM      5  N   UNL d   1      29.786 -14.711   0.767  0.00  0.00    -0.224 N 
ATOM      6  N   UNL d   1      30.151 -16.930   0.237  0.00  0.00    -0.190 N 
ATOM      7  H   UNL d   1      30.795 -14.632   0.701  0.00  0.00     0.177 HD
ATOM      8  H   UNL d   1      29.730 -17.835   0.009  0.00  0.00     0.184 HD
ENDROOT
BRANCH   5   9
ATOM      9  C   UNL d   1      29.020 -13.498   0.888  0.00  0.00     0.142 C 
BRANCH   9  10
ATOM     10  C   UNL d   1      27.860 -13.680   1.852  0.00  0.00     0.057 C 
BRANCH  10  11
ATOM     11  C   UNL d   1      27.873 -12.804   3.067  0.00  0.00    -0.048 A 
ATOM     12  C   UNL d   1      28.297 -13.277   4.238  0.00  0.00    -0.006 A 
ATOM     13  C   UNL d   1      28.775 -14.563   4.597  0.00  0.00     0.014 A 
ATOM     14  C   UNL d   1      28.128 -12.195   5.212  0.00  0.00     0.038 A 
ATOM     15  C   UNL d   1      28.958 -14.824   5.895  0.00  0.00     0.001 A 
ATOM     16  C   UNL d   1      28.825 -13.780   6.899  0.00  0.00     0.002 A 
ATOM     17  C   UNL d   1      28.443 -12.514   6.622  0.00  0.00     0.030 A 
ATOM     18  N   UNL d   1      27.707 -11.124   4.653  0.00  0.00    -0.385 N 
ATOM     19  C   UNL d   1      27.423 -11.375   3.205  0.00  0.00     0.155 A 
ATOM     20  H   UNL d   1      27.601 -10.245   5.162  0.00  0.00     0.160 HD
ENDBRANCH  10  11
ENDBRANCH   9  10
ENDBRANCH   5   9
BRANCH   6  21
ATOM     21  C   UNL d   1      31.529 -17.018   0.499  0.00  0.00     0.049 A 
ATOM     22  C   UNL d   1      32.330 -17.823  -0.323  0.00  0.00     0.030 A 
ATOM     23  C   UNL d   1      33.708 -17.917  -0.112  0.00  0.00     0.003 A 
ATOM     24  C   UNL d   1      34.317 -17.150   0.879  0.00  0.00     0.007 A 
ATOM     25  C   UNL d   1      33.539 -16.347   1.714  0.00  0.00    -0.060 A 
ATOM     26  C   UNL d   1      34.149 -15.564   2.835  0.00  0.00     0.048 C 
ATOM     27  C   UNL d   1      32.152 -16.304   1.527  0.00  0.00     0.036 A 
ENDBRANCH   6  21
BRANCH   1  28
ATOM     28  C   UNL d   1      25.896 -17.285  -0.259  0.00  0.00     0.037 A 
ATOM     29  C   UNL d   1      25.121 -18.327   0.256  0.00  0.00     0.020 A 
ATOM     30  C   UNL d   1      23.760 -18.446  -0.083  0.00  0.00     0.040 A 
ATOM     31  C   UNL d   1      23.102 -17.490  -0.885  0.00  0.00     0.101 A 
ATOM     32  C   UNL d   1      23.869 -16.394  -1.342  0.00  0.00     0.102 A 
ATOM     33  C   UNL d   1      25.253 -16.320  -1.036  0.00  0.00     0.056 A 
BRANCH  31  34
ATOM     34  O   UNL d   1      21.732 -17.649  -0.886  0.00  0.00    -0.353 OA
ATOM     35  C   UNL d   1      21.124 -18.935  -1.026  0.00  0.00     0.210 C 
ENDBRANCH  31  34
BRANCH  32  36
ATOM     36  O   UNL d   1      23.506 -15.262  -2.035  0.00  0.00    -0.353 OA
ATOM     37  C   UNL d   1      24.529 -14.650  -2.771  0.00  0.00     0.210 C 
ENDBRANCH  32  36
ENDBRANCH   1  28
TORSDOF 7
ENDMDL
MODEL 2
REMARK VINA RESULT:    -8.614      1.267      1.540
REMARK INTER + INTRA:         -12.467
REMARK INTER:                 -10.702
REMARK INTRA:                  -1.765
REMARK CONF_INDEPENDENT:        2.088
REMARK UNBOUND:                -1.765
REMARK  7 active torsions:
REMARK  status: ('A' for Active; 'I' for Inactive)
REMARK    1  A    between atoms: O_2  and  C_3 
REMARK    2  A    between atoms: C_6  and  C_7 
REMARK       I    between atoms: C_7  and  N_9 
REMARK       I    between atoms: C_10  and  N_11 
REMARK       I    between atoms: C_10  and  N_23 
REMARK    3  A    between atoms: N_11  and  C_12 
REMARK    4  A    between atoms: C_12  and  C_13 
REMARK    5  A    between atoms: C_13  and  C_14 
REMARK    6  A    between atoms: N_23  and  C_24 
REMARK    7  A    between atoms: C_32  and  O_33 
ROOT
ATOM      1  C   UNL d   1      27.250 -17.426  -0.158  0.00  0.00     0.294 C 
ATOM      2  O   UNL d   1      27.793 -18.528   0.021  0.00  0.00    -0.265 OA
ATOM      3  N   UNL d   1      27.927 -16.227  -0.218  0.00  0.00    -0.023 NA
ATOM      4  C   UNL d   1      29.234 -16.210  -0.153  0.00  0.00     0.704 C 
ATOM      5  N   UNL d   1      29.898 -15.012  -0.239  0.00  0.00    -0.224 N 
ATOM      6  N   UNL d   1      30.050 -17.311  -0.065  0.00  0.00    -0.190 N 
ATOM      7  H   UNL d   1      30.906 -15.052  -0.340  0.00  0.00     0.177 HD
ATOM      8  H   UNL d   1      29.544 -18.198   0.003  0.00  0.00     0.184 HD
ENDROOT
BRANCH   5   9
ATOM      9  C   UNL d   1      29.244 -13.754  -0.486  0.00  0.00     0.142 C 
BRANCH   9  10
ATOM     10  C   UNL d   1      28.833 -13.088   0.815  0.00  0.00     0.057 C 
BRANCH  10  11
ATOM     11  C   UNL d   1      29.664 -13.422   2.015  0.00  0.00    -0.048 A 
ATOM     12  C   UNL d   1      29.090 -13.871   3.131  0.00  0.00    -0.006 A 
ATOM     13  C   UNL d   1      27.727 -14.109   3.439  0.00  0.00     0.014 A 
ATOM     14  C   UNL d   1      30.165 -14.045   4.113  0.00  0.00     0.038 A 
ATOM     15  C   UNL d   1      27.408 -14.383   4.708  0.00  0.00     0.001 A 
ATOM     16  C   UNL d   1      28.437 -14.587   5.714  0.00  0.00     0.002 A 
ATOM     17  C   UNL d   1      29.761 -14.447   5.478  0.00  0.00     0.030 A 
ATOM     18  N   UNL d   1      31.311 -13.795   3.602  0.00  0.00    -0.385 N 
ATOM     19  C   UNL d   1      31.152 -13.298   2.197  0.00  0.00     0.155 A 
ATOM     20  H   UNL d   1      32.182 -13.933   4.115  0.00  0.00     0.160 HD
ENDBRANCH  10  11
ENDBRANCH   9  10
ENDBRANCH   5   9
BRANCH   6  21
ATOM     21  C   UNL d   1      31.426 -17.444   0.192  0.00  0.00     0.049 A 
ATOM     22  C   UNL d   1      32.180 -18.341  -0.577  0.00  0.00     0.030 A 
ATOM     23  C   UNL d   1      33.555 -18.483  -0.371  0.00  0.00     0.003 A 
ATOM     24  C   UNL d   1      34.208 -17.677   0.559  0.00  0.00     0.007 A 
ATOM     25  C   UNL d   1      33.477 -16.783   1.341  0.00  0.00    -0.060 A 
ATOM     26  C   UNL d   1      34.134 -15.953   2.400  0.00  0.00     0.048 C 
ATOM     27  C   UNL d   1      32.091 -16.689   1.162  0.00  0.00     0.036 A 
ENDBRANCH   6  21
BRANCH   1  28
ATOM     28  C   UNL d   1      25.763 -17.399  -0.367  0.00  0.00     0.037 A 
ATOM     29  C   UNL d   1      24.963 -18.423   0.146  0.00  0.00     0.020 A 
ATOM     30  C   UNL d   1      23.589 -18.481  -0.154  0.00  0.00     0.040 A 
ATOM     31  C   UNL d   1      22.946 -17.480  -0.913  0.00  0.00     0.101 A 
ATOM     32  C   UNL d   1      23.742 -16.403  -1.366  0.00  0.00     0.102 A 
ATOM     33  C   UNL d   1      25.136 -16.391  -1.101  0.00  0.00     0.056 A 
BRANCH  31  34
ATOM     34  O   UNL d   1      21.572 -17.586  -0.876  0.00  0.00    -0.353 OA
ATOM     35  C   UNL d   1      20.914 -18.855  -0.894  0.00  0.00     0.210 C 
ENDBRANCH  31  34
BRANCH  32  36
ATOM     36  O   UNL d   1      23.403 -15.241  -2.021  0.00  0.00    -0.353 OA
ATOM     37  C   UNL d   1      24.430 -14.646  -2.766  0.00  0.00     0.210 C 
ENDBRANCH  32  36
ENDBRANCH   1  28
TORSDOF 7
ENDMDL
MODEL 3
REMARK VINA RESULT:    -8.593      3.924      7.152
REMARK INTER + INTRA:         -11.709
REMARK INTER:                 -10.681
REMARK INTRA:                  -1.027
REMARK CONF_INDEPENDENT:        2.088
REMARK UNBOUND:                -1.027
REMARK  7 active torsions:
REMARK  status: ('A' for Active; 'I' for Inactive)
REMARK    1  A    between atoms: O_2  and  C_3 
REMARK    2  A    between atoms: C_6  and  C_7 
REMARK       I    between atoms: C_7  and  N_9 
REMARK       I    between atoms: C_10  and  N_11 
REMARK       I    between atoms: C_10  and  N_23 
REMARK    3  A    between atoms: N_11  and  C_12 
REMARK    4  A    between atoms: C_12  and  C_13 
REMARK    5  A    between atoms: C_13  and  C_14 
REMARK    6  A    between atoms: N_23  and  C_24 
REMARK    7  A    between atoms: C_32  and  O_33 
ROOT
ATOM      1  C   UNL d   1      25.670 -13.068  -3.965  0.00  0.00     0.294 C 
ATOM      2  O   UNL d   1      25.000 -14.012  -4.413  0.00  0.00    -0.265 OA
ATOM      3  N   UNL d   1      26.216 -13.033  -2.699  0.00  0.00    -0.023 NA
ATOM      4  C   UNL d   1      26.102 -14.071  -1.910  0.00  0.00     0.704 C 
ATOM      5  N   UNL d   1      26.672 -14.035  -0.662  0.00  0.00    -0.224 N 
ATOM      6  N   UNL d   1      25.502 -15.264  -2.230  0.00  0.00    -0.190 N 
ATOM      7  H   UNL d   1      26.697 -14.905  -0.143  0.00  0.00     0.177 HD
ATOM      8  H   UNL d   1      25.077 -15.279  -3.161  0.00  0.00     0.184 HD
ENDROOT
BRANCH   5   9
ATOM      9  C   UNL d   1      27.476 -12.940  -0.184  0.00  0.00     0.142 C 
BRANCH   9  10
ATOM     10  C   UNL d   1      27.029 -12.497   1.198  0.00  0.00     0.057 C 
BRANCH  10  11
ATOM     11  C   UNL d   1      27.462 -13.366   2.338  0.00  0.00    -0.048 A 
ATOM     12  C   UNL d   1      27.598 -12.858   3.562  0.00  0.00    -0.006 A 
ATOM     13  C   UNL d   1      27.405 -11.538   4.042  0.00  0.00     0.014 A 
ATOM     14  C   UNL d   1      28.081 -13.947   4.416  0.00  0.00     0.038 A 
ATOM     15  C   UNL d   1      27.797 -11.259   5.289  0.00  0.00     0.001 A 
ATOM     16  C   UNL d   1      28.263 -12.307   6.183  0.00  0.00     0.002 A 
ATOM     17  C   UNL d   1      28.406 -13.600   5.817  0.00  0.00     0.030 A 
ATOM     18  N   UNL d   1      28.155 -15.050   3.771  0.00  0.00    -0.385 N 
ATOM     19  C   UNL d   1      27.828 -14.825   2.327  0.00  0.00     0.155 A 
ATOM     20  H   UNL d   1      28.402 -15.932   4.220  0.00  0.00     0.160 HD
ENDBRANCH  10  11
ENDBRANCH   9  10
ENDBRANCH   5   9
BRANCH   6  21
ATOM     21  C   UNL d   1      25.148 -16.378  -1.449  0.00  0.00     0.049 A 
ATOM     22  C   UNL d   1      26.151 -17.083  -0.771  0.00  0.00     0.030 A 
ATOM     23  C   UNL d   1      25.838 -18.179   0.037  0.00  0.00     0.003 A 
ATOM     24  C   UNL d   1      24.508 -18.542   0.236  0.00  0.00     0.007 A 
ATOM     25  C   UNL d   1      23.492 -17.860  -0.435  0.00  0.00    -0.060 A 
ATOM     26  C   UNL d   1      22.057 -18.268  -0.302  0.00  0.00     0.048 C 
ATOM     27  C   UNL d   1      23.824 -16.797  -1.284  0.00  0.00     0.036 A 
ENDBRANCH   6  21
BRANCH   1  28
ATOM     28  C   UNL d   1      25.940 -11.902  -4.873  0.00  0.00     0.037 A 
ATOM     29  C   UNL d   1      26.655 -12.088  -6.059  0.00  0.00     0.020 A 
ATOM     30  C   UNL d   1      27.030 -10.986  -6.852  0.00  0.00     0.040 A 
ATOM     31  C   UNL d   1      26.641  -9.668  -6.534  0.00  0.00     0.101 A 
ATOM     32  C   UNL d   1      25.851  -9.491  -5.375  0.00  0.00     0.102 A 
ATOM     33  C   UNL d   1      25.530 -10.606  -4.557  0.00  0.00     0.056 A 
BRANCH  31  34
ATOM     34  O   UNL d   1      26.886  -8.780  -7.559  0.00  0.00    -0.353 OA
ATOM     35  C   UNL d   1      26.755  -9.160  -8.931  0.00  0.00     0.210 C 
ENDBRANCH  31  34
BRANCH  32  36
ATOM     36  O   UNL d   1      25.233  -8.372  -4.864  0.00  0.00    -0.353 OA
ATOM     37  C   UNL d   1      23.927  -8.143  -5.318  0.00  0.00     0.210 C 
ENDBRANCH  32  36
ENDBRANCH   1  28
TORSDOF 7
ENDMDL
MODEL 4
REMARK VINA RESULT:    -8.562      2.609      6.587
REMARK INTER + INTRA:         -13.292
REMARK INTER:                 -10.650
REMARK INTRA:                  -2.642
REMARK CONF_INDEPENDENT:        2.088
REMARK UNBOUND:                -2.642
REMARK  7 active torsions:
REMARK  status: ('A' for Active; 'I' for Inactive)
REMARK    1  A    between atoms: O_2  and  C_3 
REMARK    2  A    between atoms: C_6  and  C_7 
REMARK       I    between atoms: C_7  and  N_9 
REMARK       I    between atoms: C_10  and  N_11 
REMARK       I    between atoms: C_10  and  N_23 
REMARK    3  A    between atoms: N_11  and  C_12 
REMARK    4  A    between atoms: C_12  and  C_13 
REMARK    5  A    between atoms: C_13  and  C_14 
REMARK    6  A    between atoms: N_23  and  C_24 
REMARK    7  A    between atoms: C_32  and  O_33 
ROOT
ATOM      1  C   UNL d   1      27.081 -12.851  -0.242  0.00  0.00     0.294 C 
ATOM      2  O   UNL d   1      26.351 -12.339   0.622  0.00  0.00    -0.265 OA
ATOM      3  N   UNL d   1      28.166 -13.656   0.034  0.00  0.00    -0.023 NA
ATOM      4  C   UNL d   1      28.439 -13.982   1.272  0.00  0.00     0.704 C 
ATOM      5  N   UNL d   1      29.507 -14.805   1.532  0.00  0.00    -0.224 N 
ATOM      6  N   UNL d   1      27.710 -13.625   2.379  0.00  0.00    -0.190 N 
ATOM      7  H   UNL d   1      29.595 -15.158   2.478  0.00  0.00     0.177 HD
ATOM      8  H   UNL d   1      26.919 -13.008   2.174  0.00  0.00     0.184 HD
ENDROOT
BRANCH   5   9
ATOM      9  C   UNL d   1      30.311 -15.415   0.506  0.00  0.00     0.142 C 
BRANCH   9  10
ATOM     10  C   UNL d   1      29.696 -16.721   0.033  0.00  0.00     0.057 C 
BRANCH  10  11
ATOM     11  C   UNL d   1      28.507 -16.598  -0.870  0.00  0.00    -0.048 A 
ATOM     12  C   UNL d   1      27.314 -17.045  -0.481  0.00  0.00    -0.006 A 
ATOM     13  C   UNL d   1      26.910 -17.677   0.722  0.00  0.00     0.014 A 
ATOM     14  C   UNL d   1      26.399 -16.824  -1.604  0.00  0.00     0.038 A 
ATOM     15  C   UNL d   1      25.679 -18.197   0.776  0.00  0.00     0.001 A 
ATOM     16  C   UNL d   1      24.727 -17.987  -0.303  0.00  0.00     0.002 A 
ATOM     17  C   UNL d   1      25.018 -17.334  -1.449  0.00  0.00     0.030 A 
ATOM     18  N   UNL d   1      26.980 -16.217  -2.570  0.00  0.00    -0.385 N 
ATOM     19  C   UNL d   1      28.435 -16.038  -2.264  0.00  0.00     0.155 A 
ATOM     20  H   UNL d   1      26.481 -15.914  -3.407  0.00  0.00     0.160 HD
ENDBRANCH  10  11
ENDBRANCH   9  10
ENDBRANCH   5   9
BRANCH   6  21
ATOM     21  C   UNL d   1      27.972 -13.740   3.755  0.00  0.00     0.049 A 
ATOM     22  C   UNL d   1      28.163 -15.013   4.309  0.00  0.00     0.030 A 
ATOM     23  C   UNL d   1      28.451 -15.169   5.668  0.00  0.00     0.003 A 
ATOM     24  C   UNL d   1      28.625 -14.049   6.477  0.00  0.00     0.007 A 
ATOM     25  C   UNL d   1      28.432 -12.772   5.950  0.00  0.00    -0.060 A 
ATOM     26  C   UNL d   1      28.539 -11.548   6.806  0.00  0.00     0.048 C 
ATOM     27  C   UNL d   1      28.090 -12.632   4.599  0.00  0.00     0.036 A 
ENDBRANCH   6  21
BRANCH   1  28
ATOM     28  C   UNL d   1      26.737 -12.615  -1.684  0.00  0.00     0.037 A 
ATOM     29  C   UNL d   1      27.042 -11.392  -2.288  0.00  0.00     0.020 A 
ATOM     30  C   UNL d   1      26.608 -11.108  -3.597  0.00  0.00     0.040 A 
ATOM     31  C   UNL d   1      25.921 -12.059  -4.380  0.00  0.00     0.101 A 
ATOM     32  C   UNL d   1      25.681 -13.324  -3.795  0.00  0.00     0.102 A 
ATOM     33  C   UNL d   1      26.076 -13.573  -2.455  0.00  0.00     0.056 A 
BRANCH  31  34
ATOM     34  O   UNL d   1      25.814 -11.682  -5.702  0.00  0.00    -0.353 OA
ATOM     35  C   UNL d   1      25.522 -10.334  -6.078  0.00  0.00     0.210 C 
ENDBRANCH  31  34
BRANCH  32  36
ATOM     36  O   UNL d   1      25.145 -14.477  -4.323  0.00  0.00    -0.353 OA
ATOM     37  C   UNL d   1      25.927 -15.118  -5.294  0.00  0.00     0.210 C 
ENDBRANCH  32  36
ENDBRANCH   1  28
TORSDOF 7
ENDMDL
MODEL 5
REMARK VINA RESULT:    -8.123      5.066      9.578
REMARK INTER + INTRA:         -11.983
REMARK INTER:                 -10.211
REMARK INTRA:                  -1.772
REMARK CONF_INDEPENDENT:        2.088
REMARK UNBOUND:                -1.772
REMARK  7 active torsions:
REMARK  status: ('A' for Active; 'I' for Inactive)
REMARK    1  A    between atoms: O_2  and  C_3 
REMARK    2  A    between atoms: C_6  and  C_7 
REMARK       I    between atoms: C_7  and  N_9 
REMARK       I    between atoms: C_10  and  N_11 
REMARK       I    between atoms: C_10  and  N_23 
REMARK    3  A    between atoms: N_11  and  C_12 
REMARK    4  A    between atoms: C_12  and  C_13 
REMARK    5  A    between atoms: C_13  and  C_14 
REMARK    6  A    between atoms: N_23  and  C_24 
REMARK    7  A    between atoms: C_32  and  O_33 
ROOT
ATOM      1  C   UNL d   1      26.295 -14.205  -4.322  0.00  0.00     0.294 C 
ATOM      2  O   UNL d   1      25.071 -14.406  -4.270  0.00  0.00    -0.265 OA
ATOM      3  N   UNL d   1      27.220 -14.824  -3.509  0.00  0.00    -0.023 NA
ATOM      4  C   UNL d   1      26.833 -15.741  -2.658  0.00  0.00     0.704 C 
ATOM      5  N   UNL d   1      27.767 -16.368  -1.872  0.00  0.00    -0.224 N 
ATOM      6  N   UNL d   1      25.549 -16.204  -2.502  0.00  0.00    -0.190 N 
ATOM      7  H   UNL d   1      27.454 -17.173  -1.340  0.00  0.00     0.177 HD
ATOM      8  H   UNL d   1      24.861 -15.726  -3.090  0.00  0.00     0.184 HD
ENDROOT
BRANCH   5   9
ATOM      9  C   UNL d   1      29.184 -16.141  -1.983  0.00  0.00     0.142 C 
BRANCH   9  10
ATOM     10  C   UNL d   1      29.839 -17.197  -2.857  0.00  0.00     0.057 C 
BRANCH  10  11
ATOM     11  C   UNL d   1      29.987 -16.849  -4.306  0.00  0.00    -0.048 A 
ATOM     12  C   UNL d   1      30.274 -17.794  -5.202  0.00  0.00    -0.006 A 
ATOM     13  C   UNL d   1      30.493 -19.185  -5.041  0.00  0.00     0.014 A 
ATOM     14  C   UNL d   1      30.403 -17.117  -6.496  0.00  0.00     0.038 A 
ATOM     15  C   UNL d   1      30.953 -19.873  -6.090  0.00  0.00     0.001 A 
ATOM     16  C   UNL d   1      31.078 -19.255  -7.400  0.00  0.00     0.002 A 
ATOM     17  C   UNL d   1      30.819 -17.951  -7.645  0.00  0.00     0.030 A 
ATOM     18  N   UNL d   1      30.136 -15.869  -6.400  0.00  0.00    -0.385 N 
ATOM     19  C   UNL d   1      29.890 -15.502  -4.969  0.00  0.00     0.155 A 
ATOM     20  H   UNL d   1      30.102 -15.252  -7.212  0.00  0.00     0.160 HD
ENDBRANCH  10  11
ENDBRANCH   9  10
ENDBRANCH   5   9
BRANCH   6  21
ATOM     21  C   UNL d   1      24.960 -17.030  -1.530  0.00  0.00     0.049 A 
ATOM     22  C   UNL d   1      25.684 -17.345  -0.372  0.00  0.00     0.030 A 
ATOM     23  C   UNL d   1      25.124 -18.142   0.631  0.00  0.00     0.003 A 
ATOM     24  C   UNL d   1      23.805 -18.574   0.523  0.00  0.00     0.007 A 
ATOM     25  C   UNL d   1      23.066 -18.279  -0.624  0.00  0.00    -0.060 A 
ATOM     26  C   UNL d   1      21.670 -18.788  -0.807  0.00  0.00     0.048 C 
ATOM     27  C   UNL d   1      23.658 -17.525  -1.645  0.00  0.00     0.036 A 
ENDBRANCH   6  21
BRANCH   1  28
ATOM     28  C   UNL d   1      26.809 -13.258  -5.368  0.00  0.00     0.037 A 
ATOM     29  C   UNL d   1      26.218 -12.002  -5.528  0.00  0.00     0.020 A 
ATOM     30  C   UNL d   1      26.601 -11.158  -6.589  0.00  0.00     0.040 A 
ATOM     31  C   UNL d   1      27.638 -11.501  -7.481  0.00  0.00     0.101 A 
ATOM     32  C   UNL d   1      28.288 -12.738  -7.270  0.00  0.00     0.102 A 
ATOM     33  C   UNL d   1      27.851 -13.601  -6.230  0.00  0.00     0.056 A 
BRANCH  31  34
ATOM     34  O   UNL d   1      28.026 -10.443  -8.276  0.00  0.00    -0.353 OA
ATOM     35  C   UNL d   1      27.212  -9.277  -8.427  0.00  0.00     0.210 C 
ENDBRANCH  31  34
BRANCH  32  36
ATOM     36  O   UNL d   1      29.383 -13.301  -7.884  0.00  0.00    -0.353 OA
ATOM     37  C   UNL d   1      30.629 -12.912  -7.372  0.00  0.00     0.210 C 
ENDBRANCH  32  36
ENDBRANCH   1  28
TORSDOF 7
ENDMDL
MODEL 6
REMARK VINA RESULT:    -8.002      3.285      8.392
REMARK INTER + INTRA:         -11.763
REMARK INTER:                 -10.090
REMARK INTRA:                  -1.673
REMARK CONF_INDEPENDENT:        2.088
REMARK UNBOUND:                -1.673
REMARK  7 active torsions:
REMARK  status: ('A' for Active; 'I' for Inactive)
REMARK    1  A    between atoms: O_2  and  C_3 
REMARK    2  A    between atoms: C_6  and  C_7 
REMARK       I    between atoms: C_7  and  N_9 
REMARK       I    between atoms: C_10  and  N_11 
REMARK       I    between atoms: C_10  and  N_23 
REMARK    3  A    between atoms: N_11  and  C_12 
REMARK    4  A    between atoms: C_12  and  C_13 
REMARK    5  A    between atoms: C_13  and  C_14 
REMARK    6  A    between atoms: N_23  and  C_24 
REMARK    7  A    between atoms: C_32  and  O_33 
ROOT
ATOM      1  C   UNL d   1      27.620 -13.098   2.402  0.00  0.00     0.294 C 
ATOM      2  O   UNL d   1      26.972 -12.068   2.157  0.00  0.00    -0.265 OA
ATOM      3  N   UNL d   1      28.057 -13.989   1.444  0.00  0.00    -0.023 NA
ATOM      4  C   UNL d   1      27.854 -13.735   0.176  0.00  0.00     0.704 C 
ATOM      5  N   UNL d   1      28.316 -14.617  -0.770  0.00  0.00    -0.224 N 
ATOM      6  N   UNL d   1      27.258 -12.609  -0.335  0.00  0.00    -0.190 N 
ATOM      7  H   UNL d   1      28.277 -14.314  -1.737  0.00  0.00     0.177 HD
ATOM      8  H   UNL d   1      26.914 -11.961   0.379  0.00  0.00     0.184 HD
ENDROOT
BRANCH   5   9
ATOM      9  C   UNL d   1      29.099 -15.783  -0.457  0.00  0.00     0.142 C 
BRANCH   9  10
ATOM     10  C   UNL d   1      28.459 -17.039  -1.023  0.00  0.00     0.057 C 
BRANCH  10  11
ATOM     11  C   UNL d   1      27.195 -17.489  -0.357  0.00  0.00    -0.048 A 
ATOM     12  C   UNL d   1      26.010 -17.087  -0.813  0.00  0.00    -0.006 A 
ATOM     13  C   UNL d   1      25.676 -16.236  -1.897  0.00  0.00     0.014 A 
ATOM     14  C   UNL d   1      25.001 -17.656   0.085  0.00  0.00     0.038 A 
ATOM     15  C   UNL d   1      24.404 -15.845  -2.020  0.00  0.00     0.001 A 
ATOM     16  C   UNL d   1      23.362 -16.396  -1.168  0.00  0.00     0.002 A 
ATOM     17  C   UNL d   1      23.595 -17.267  -0.161  0.00  0.00     0.030 A 
ATOM     18  N   UNL d   1      25.535 -18.409   0.971  0.00  0.00    -0.385 N 
ATOM     19  C   UNL d   1      27.027 -18.364   0.856  0.00  0.00     0.155 A 
ATOM     20  H   UNL d   1      24.981 -18.949   1.638  0.00  0.00     0.160 HD
ENDBRANCH  10  11
ENDBRANCH   9  10
ENDBRANCH   5   9
BRANCH   6  21
ATOM     21  C   UNL d   1      26.814 -12.284  -1.629  0.00  0.00     0.049 A 
ATOM     22  C   UNL d   1      27.221 -11.073  -2.206  0.00  0.00     0.030 A 
ATOM     23  C   UNL d   1      26.824 -10.725  -3.500  0.00  0.00     0.003 A 
ATOM     24  C   UNL d   1      26.072 -11.617  -4.262  0.00  0.00     0.007 A 
ATOM     25  C   UNL d   1      25.649 -12.824  -3.706  0.00  0.00    -0.060 A 
ATOM     26  C   UNL d   1      24.780 -13.775  -4.470  0.00  0.00     0.048 C 
ATOM     27  C   UNL d   1      26.009 -13.137  -2.389  0.00  0.00     0.036 A 
ENDBRANCH   6  21
BRANCH   1  28
ATOM     28  C   UNL d   1      27.992 -13.373   3.831  0.00  0.00     0.037 A 
ATOM     29  C   UNL d   1      28.489 -14.626   4.199  0.00  0.00     0.020 A 
ATOM     30  C   UNL d   1      28.716 -14.940   5.552  0.00  0.00     0.040 A 
ATOM     31  C   UNL d   1      28.530 -13.994   6.581  0.00  0.00     0.101 A 
ATOM     32  C   UNL d   1      28.102 -12.702   6.200  0.00  0.00     0.102 A 
ATOM     33  C   UNL d   1      27.825 -12.420   4.837  0.00  0.00     0.056 A 
BRANCH  31  34
ATOM     34  O   UNL d   1      29.047 -14.414   7.789  0.00  0.00    -0.353 OA
ATOM     35  C   UNL d   1      30.374 -14.075   8.198  0.00  0.00     0.210 C 
ENDBRANCH  31  34
BRANCH  32  36
ATOM     36  O   UNL d   1      27.937 -11.550   6.935  0.00  0.00    -0.353 OA
ATOM     37  C   UNL d   1      28.922 -11.304   7.901  0.00  0.00     0.210 C 
ENDBRANCH  32  36
ENDBRANCH   1  28
TORSDOF 7
ENDMDL
MODEL 7
REMARK VINA RESULT:    -7.386      4.140      8.239
REMARK INTER + INTRA:         -11.786
REMARK INTER:                  -9.474
REMARK INTRA:                  -2.312
REMARK CONF_INDEPENDENT:        2.088
REMARK UNBOUND:                -2.312
REMARK  7 active torsions:
REMARK  status: ('A' for Active; 'I' for Inactive)
REMARK    1  A    between atoms: O_2  and  C_3 
REMARK    2  A    between atoms: C_6  and  C_7 
REMARK       I    between atoms: C_7  and  N_9 
REMARK       I    between atoms: C_10  and  N_11 
REMARK       I    between atoms: C_10  and  N_23 
REMARK    3  A    between atoms: N_11  and  C_12 
REMARK    4  A    between atoms: C_12  and  C_13 
REMARK    5  A    between atoms: C_13  and  C_14 
REMARK    6  A    between atoms: N_23  and  C_24 
REMARK    7  A    between atoms: C_32  and  O_33 
ROOT
ATOM      1  C   UNL d   1      26.047 -13.847  -4.240  0.00  0.00     0.294 C 
ATOM      2  O   UNL d   1      25.460 -14.860  -4.651  0.00  0.00    -0.265 OA
ATOM      3  N   UNL d   1      26.336 -13.599  -2.915  0.00  0.00    -0.023 NA
ATOM      4  C   UNL d   1      26.052 -14.496  -2.005  0.00  0.00     0.704 C 
ATOM      5  N   UNL d   1      26.368 -14.248  -0.692  0.00  0.00    -0.224 N 
ATOM      6  N   UNL d   1      25.503 -15.733  -2.238  0.00  0.00    -0.190 N 
ATOM      7  H   UNL d   1      26.275 -15.022  -0.044  0.00  0.00     0.177 HD
ATOM      8  H   UNL d   1      25.267 -15.904  -3.219  0.00  0.00     0.184 HD
ENDROOT
BRANCH   5   9
ATOM      9  C   UNL d   1      27.084 -13.080  -0.252  0.00  0.00     0.142 C 
BRANCH   9  10
ATOM     10  C   UNL d   1      28.584 -13.279  -0.379  0.00  0.00     0.057 C 
BRANCH  10  11
ATOM     11  C   UNL d   1      29.052 -14.698  -0.484  0.00  0.00    -0.048 A 
ATOM     12  C   UNL d   1      29.366 -15.220  -1.670  0.00  0.00    -0.006 A 
ATOM     13  C   UNL d   1      29.335 -14.652  -2.968  0.00  0.00     0.014 A 
ATOM     14  C   UNL d   1      29.725 -16.621  -1.428  0.00  0.00     0.038 A 
ATOM     15  C   UNL d   1      29.523 -15.463  -4.013  0.00  0.00     0.001 A 
ATOM     16  C   UNL d   1      29.903 -16.854  -3.827  0.00  0.00     0.002 A 
ATOM     17  C   UNL d   1      30.021 -17.447  -2.618  0.00  0.00     0.030 A 
ATOM     18  N   UNL d   1      29.705 -16.900  -0.179  0.00  0.00    -0.385 N 
ATOM     19  C   UNL d   1      29.210 -15.724   0.605  0.00  0.00     0.155 A 
ATOM     20  H   UNL d   1      29.999 -17.807   0.185  0.00  0.00     0.160 HD
ENDBRANCH  10  11
ENDBRANCH   9  10
ENDBRANCH   5   9
BRANCH   6  21
ATOM     21  C   UNL d   1      24.982 -16.709  -1.371  0.00  0.00     0.049 A 
ATOM     22  C   UNL d   1      25.808 -17.247  -0.375  0.00  0.00     0.030 A 
ATOM     23  C   UNL d   1      25.321 -18.200   0.524  0.00  0.00     0.003 A 
ATOM     24  C   UNL d   1      23.980 -18.575   0.486  0.00  0.00     0.007 A 
ATOM     25  C   UNL d   1      23.140 -18.057  -0.501  0.00  0.00    -0.060 A 
ATOM     26  C   UNL d   1      21.712 -18.491  -0.618  0.00  0.00     0.048 C 
ATOM     27  C   UNL d   1      23.655 -17.144  -1.430  0.00  0.00     0.036 A 
ENDBRANCH   6  21
BRANCH   1  28
ATOM     28  C   UNL d   1      26.511 -12.842  -5.255  0.00  0.00     0.037 A 
ATOM     29  C   UNL d   1      25.879 -11.600  -5.354  0.00  0.00     0.020 A 
ATOM     30  C   UNL d   1      26.215 -10.703  -6.386  0.00  0.00     0.040 A 
ATOM     31  C   UNL d   1      27.245 -10.976  -7.309  0.00  0.00     0.101 A 
ATOM     32  C   UNL d   1      27.937 -12.199  -7.160  0.00  0.00     0.102 A 
ATOM     33  C   UNL d   1      27.547 -13.117  -6.149  0.00  0.00     0.056 A 
BRANCH  31  34
ATOM     34  O   UNL d   1      27.585  -9.876  -8.067  0.00  0.00    -0.353 OA
ATOM     35  C   UNL d   1      27.667  -9.940  -9.493  0.00  0.00     0.210 C 
ENDBRANCH  31  34
BRANCH  32  36
ATOM     36  O   UNL d   1      29.039 -12.702  -7.815  0.00  0.00    -0.353 OA
ATOM     37  C   UNL d   1      29.631 -13.827  -7.227  0.00  0.00     0.210 C 
ENDBRANCH  32  36
ENDBRANCH   1  28
TORSDOF 7
ENDMDL
MODEL 8
REMARK VINA RESULT:    -7.287      3.732      6.415
REMARK INTER + INTRA:         -11.796
REMARK INTER:                  -9.375
REMARK INTRA:                  -2.421
REMARK CONF_INDEPENDENT:        2.088
REMARK UNBOUND:                -2.421
REMARK  7 active torsions:
REMARK  status: ('A' for Active; 'I' for Inactive)
REMARK    1  A    between atoms: O_2  and  C_3 
REMARK    2  A    between atoms: C_6  and  C_7 
REMARK       I    between atoms: C_7  and  N_9 
REMARK       I    between atoms: C_10  and  N_11 
REMARK       I    between atoms: C_10  and  N_23 
REMARK    3  A    between atoms: N_11  and  C_12 
REMARK    4  A    between atoms: C_12  and  C_13 
REMARK    5  A    between atoms: C_13  and  C_14 
REMARK    6  A    between atoms: N_23  and  C_24 
REMARK    7  A    between atoms: C_32  and  O_33 
ROOT
ATOM      1  C   UNL d   1      29.829 -17.103  -3.426  0.00  0.00     0.294 C 
ATOM      2  O   UNL d   1      30.340 -18.170  -3.801  0.00  0.00    -0.265 OA
ATOM      3  N   UNL d   1      29.729 -16.710  -2.108  0.00  0.00    -0.023 NA
ATOM      4  C   UNL d   1      30.256 -17.448  -1.164  0.00  0.00     0.704 C 
ATOM      5  N   UNL d   1      30.172 -17.033   0.141  0.00  0.00    -0.224 N 
ATOM      6  N   UNL d   1      30.963 -18.610  -1.351  0.00  0.00    -0.190 N 
ATOM      7  H   UNL d   1      30.720 -17.546   0.822  0.00  0.00     0.177 HD
ATOM      8  H   UNL d   1      31.015 -18.912  -2.327  0.00  0.00     0.184 HD
ENDROOT
BRANCH   5   9
ATOM      9  C   UNL d   1      29.607 -15.771   0.542  0.00  0.00     0.142 C 
BRANCH   9  10
ATOM     10  C   UNL d   1      28.132 -15.916   0.878  0.00  0.00     0.057 C 
BRANCH  10  11
ATOM     11  C   UNL d   1      27.182 -15.806  -0.275  0.00  0.00    -0.048 A 
ATOM     12  C   UNL d   1      26.147 -16.638  -0.379  0.00  0.00    -0.006 A 
ATOM     13  C   UNL d   1      25.732 -17.707   0.454  0.00  0.00     0.014 A 
ATOM     14  C   UNL d   1      25.462 -16.298  -1.630  0.00  0.00     0.038 A 
ATOM     15  C   UNL d   1      24.755 -18.505   0.012  0.00  0.00     0.001 A 
ATOM     16  C   UNL d   1      24.030 -18.200  -1.211  0.00  0.00     0.002 A 
ATOM     17  C   UNL d   1      24.323 -17.158  -2.020  0.00  0.00     0.030 A 
ATOM     18  N   UNL d   1      26.000 -15.285  -2.198  0.00  0.00    -0.385 N 
ATOM     19  C   UNL d   1      27.221 -14.859  -1.443  0.00  0.00     0.155 A 
ATOM     20  H   UNL d   1      25.613 -14.860  -3.041  0.00  0.00     0.160 HD
ENDBRANCH  10  11
ENDBRANCH   9  10
ENDBRANCH   5   9
BRANCH   6  21
ATOM     21  C   UNL d   1      31.421 -19.587  -0.450  0.00  0.00     0.049 A 
ATOM     22  C   UNL d   1      32.446 -19.261   0.448  0.00  0.00     0.030 A 
ATOM     23  C   UNL d   1      32.912 -20.195   1.377  0.00  0.00     0.003 A 
ATOM     24  C   UNL d   1      32.308 -21.447   1.469  0.00  0.00     0.007 A 
ATOM     25  C   UNL d   1      31.290 -21.797   0.582  0.00  0.00    -0.060 A 
ATOM     26  C   UNL d   1      30.667 -23.159   0.604  0.00  0.00     0.048 C 
ATOM     27  C   UNL d   1      30.870 -20.870  -0.381  0.00  0.00     0.036 A 
ENDBRANCH   6  21
BRANCH   1  28
ATOM     28  C   UNL d   1      29.322 -16.157  -4.477  0.00  0.00     0.037 A 
ATOM     29  C   UNL d   1      30.137 -15.803  -5.554  0.00  0.00     0.020 A 
ATOM     30  C   UNL d   1      29.726 -14.818  -6.473  0.00  0.00     0.040 A 
ATOM     31  C   UNL d   1      28.458 -14.206  -6.396  0.00  0.00     0.101 A 
ATOM     32  C   UNL d   1      27.603 -14.622  -5.350  0.00  0.00     0.102 A 
ATOM     33  C   UNL d   1      28.056 -15.575  -4.401  0.00  0.00     0.056 A 
BRANCH  31  34
ATOM     34  O   UNL d   1      28.155 -13.470  -7.522  0.00  0.00    -0.353 OA
ATOM     35  C   UNL d   1      29.132 -12.656  -8.175  0.00  0.00     0.210 C 
ENDBRANCH  31  34
BRANCH  32  36
ATOM     36  O   UNL d   1      26.293 -14.305  -5.073  0.00  0.00    -0.353 OA
ATOM     37  C   UNL d   1      26.070 -12.995  -4.628  0.00  0.00     0.210 C 
ENDBRANCH  32  36
ENDBRANCH   1  28
TORSDOF 7
ENDMDL
MODEL 9
REMARK VINA RESULT:    -6.984      3.991      8.764
REMARK INTER + INTRA:         -11.767
REMARK INTER:                  -9.072
REMARK INTRA:                  -2.695
REMARK CONF_INDEPENDENT:        2.088
REMARK UNBOUND:                -2.695
REMARK  7 active torsions:
REMARK  status: ('A' for Active; 'I' for Inactive)
REMARK    1  A    between atoms: O_2  and  C_3 
REMARK    2  A    between atoms: C_6  and  C_7 
REMARK       I    between atoms: C_7  and  N_9 
REMARK       I    between atoms: C_10  and  N_11 
REMARK       I    between atoms: C_10  and  N_23 
REMARK    3  A    between atoms: N_11  and  C_12 
REMARK    4  A    between atoms: C_12  and  C_13 
REMARK    5  A    between atoms: C_13  and  C_14 
REMARK    6  A    between atoms: N_23  and  C_24 
REMARK    7  A    between atoms: C_32  and  O_33 
ROOT
ATOM      1  C   UNL d   1      27.030 -12.007  -0.859  0.00  0.00     0.294 C 
ATOM      2  O   UNL d   1      27.427 -10.836  -0.966  0.00  0.00    -0.265 OA
ATOM      3  N   UNL d   1      26.240 -12.649  -1.789  0.00  0.00    -0.023 NA
ATOM      4  C   UNL d   1      25.921 -12.043  -2.904  0.00  0.00     0.704 C 
ATOM      5  N   UNL d   1      25.155 -12.702  -3.834  0.00  0.00    -0.224 N 
ATOM      6  N   UNL d   1      26.334 -10.791  -3.287  0.00  0.00    -0.190 N 
ATOM      7  H   UNL d   1      25.058 -12.264  -4.743  0.00  0.00     0.177 HD
ATOM      8  H   UNL d   1      26.900 -10.308  -2.585  0.00  0.00     0.184 HD
ENDROOT
BRANCH   5   9
ATOM      9  C   UNL d   1      24.743 -14.075  -3.698  0.00  0.00     0.142 C 
BRANCH   9  10
ATOM     10  C   UNL d   1      25.882 -15.022  -4.033  0.00  0.00     0.057 C 
BRANCH  10  11
ATOM     11  C   UNL d   1      26.641 -15.575  -2.866  0.00  0.00    -0.048 A 
ATOM     12  C   UNL d   1      26.038 -16.369  -1.982  0.00  0.00    -0.006 A 
ATOM     13  C   UNL d   1      24.699 -16.831  -1.916  0.00  0.00     0.014 A 
ATOM     14  C   UNL d   1      27.034 -16.683  -0.954  0.00  0.00     0.038 A 
ATOM     15  C   UNL d   1      24.309 -17.471  -0.809  0.00  0.00     0.001 A 
ATOM     16  C   UNL d   1      25.263 -17.825   0.230  0.00  0.00     0.002 A 
ATOM     17  C   UNL d   1      26.569 -17.481   0.202  0.00  0.00     0.030 A 
ATOM     18  N   UNL d   1      28.175 -16.178  -1.238  0.00  0.00    -0.385 N 
ATOM     19  C   UNL d   1      28.075 -15.342  -2.477  0.00  0.00     0.155 A 
ATOM     20  H   UNL d   1      29.008 -16.353  -0.675  0.00  0.00     0.160 HD
ENDBRANCH  10  11
ENDBRANCH   9  10
ENDBRANCH   5   9
BRANCH   6  21
ATOM     21  C   UNL d   1      25.937  -9.952  -4.343  0.00  0.00     0.049 A 
ATOM     22  C   UNL d   1      26.437 -10.192  -5.630  0.00  0.00     0.030 A 
ATOM     23  C   UNL d   1      26.047  -9.398  -6.712  0.00  0.00     0.003 A 
ATOM     24  C   UNL d   1      25.095  -8.397  -6.534  0.00  0.00     0.007 A 
ATOM     25  C   UNL d   1      24.589  -8.135  -5.261  0.00  0.00    -0.060 A 
ATOM     26  C   UNL d   1      23.619  -7.019  -5.020  0.00  0.00     0.048 C 
ATOM     27  C   UNL d   1      25.029  -8.903  -4.176  0.00  0.00     0.036 A 
ENDBRANCH   6  21
BRANCH   1  28
ATOM     28  C   UNL d   1      27.473 -12.794   0.342  0.00  0.00     0.037 A 
ATOM     29  C   UNL d   1      26.877 -12.571   1.586  0.00  0.00     0.020 A 
ATOM     30  C   UNL d   1      27.372 -13.203   2.743  0.00  0.00     0.040 A 
ATOM     31  C   UNL d   1      28.427 -14.138   2.692  0.00  0.00     0.101 A 
ATOM     32  C   UNL d   1      28.977 -14.421   1.421  0.00  0.00     0.102 A 
ATOM     33  C   UNL d   1      28.504 -13.732   0.273  0.00  0.00     0.056 A 
BRANCH  31  34
ATOM     34  O   UNL d   1      28.586 -14.825   3.877  0.00  0.00    -0.353 OA
ATOM     35  C   UNL d   1      29.733 -14.635   4.709  0.00  0.00     0.210 C 
ENDBRANCH  31  34
BRANCH  32  36
ATOM     36  O   UNL d   1      29.920 -15.343   1.029  0.00  0.00    -0.353 OA
ATOM     37  C   UNL d   1      31.232 -15.081   1.446  0.00  0.00     0.210 C 
ENDBRANCH  32  36
ENDBRANCH   1  28
TORSDOF 7
ENDMDL
