MODEL 1
REMARK VINA RESULT:   -10.597      0.000      0.000
REMARK INTER + INTRA:         -15.395
REMARK INTER:                 -13.282
REMARK INTRA:                  -2.113
REMARK CONF_INDEPENDENT:        2.685
REMARK UNBOUND:                -2.113
REMARK  9 active torsions:
REMARK  status: ('A' for Active; 'I' for Inactive)
REMARK    1  A    between atoms: O_2  and  C_3 
REMARK    2  A    between atoms: C_6  and  C_7 
REMARK    3  A    between atoms: N_9  and  C_10 
REMARK    4  A    between atoms: C_10  and  C_11 
REMARK    5  A    between atoms: C_11  and  C_12 
REMARK       I    between atoms: C_12  and  N_14 
REMARK    6  A    between atoms: N_14  and  C_15 
REMARK    7  A    between atoms: C_18  and  C_19 
REMARK    8  A    between atoms: C_19  and  C_20 
REMARK    9  A    between atoms: C_20  and  C_21 
ROOT
ATOM      1  C   UNL d   1      27.244 -13.133  -0.017  0.00  0.00     0.223 C 
ATOM      2  O   UNL d   1      26.405 -12.621   0.730  0.00  0.00    -0.273 OA
ATOM      3  N   UNL d   1      28.436 -13.713   0.404  0.00  0.00    -0.327 N 
ATOM      4  H   UNL d   1      29.147 -13.942  -0.286  0.00  0.00     0.169 HD
ENDROOT
BRANCH   3   5
ATOM      5  C   UNL d   1      28.742 -13.892   1.763  0.00  0.00     0.034 A 
ATOM      6  C   UNL d   1      27.748 -14.110   2.716  0.00  0.00     0.030 A 
ATOM      7  C   UNL d   1      28.095 -14.237   4.077  0.00  0.00     0.009 A 
ATOM      8  C   UNL d   1      29.442 -14.193   4.488  0.00  0.00    -0.058 A 
ATOM      9  C   UNL d   1      30.406 -13.930   3.510  0.00  0.00     0.009 A 
ATOM     10  C   UNL d   1      30.064 -13.798   2.174  0.00  0.00     0.030 A 
BRANCH   8  11
ATOM     11  C   UNL d   1      29.846 -14.468   5.930  0.00  0.00     0.042 C 
BRANCH  11  12
ATOM     12  C   UNL d   1      30.433 -13.204   6.658  0.00  0.00     0.062 C 
BRANCH  12  13
ATOM     13  C   UNL d   1      30.108 -13.082   8.135  0.00  0.00     0.321 C 
ATOM     14  N   UNL d   1      30.136 -14.438   8.764  0.00  0.00     0.129 N 
ATOM     15  C   UNL d   1      29.654 -14.178   9.886  0.00  0.00     0.264 C 
ATOM     16  H   UNL d   1      29.559 -15.055   8.130  0.00  0.00     0.320 HD
ATOM     17  C   UNL d   1      30.206 -13.282  11.009  0.00  0.00     0.024 C 
ATOM     18  C   UNL d   1      28.316 -13.557   9.653  0.00  0.00     0.053 C 
ATOM     19  C   UNL d   1      29.426 -13.197  12.098  0.00  0.00    -0.001 C 
ATOM     20  C   UNL d   1      28.155 -13.876  12.064  0.00  0.00     0.002 C 
ATOM     21  C   UNL d   1      27.493 -13.962  10.874  0.00  0.00     0.028 C 
ATOM     22  N   UNL d   1      28.651 -12.674   8.730  0.00  0.00    -0.361 N 
ATOM     23  H   UNL d   1      28.510 -11.653   8.829  0.00  0.00     0.161 HD
ENDBRANCH  12  13
ENDBRANCH  11  12
ENDBRANCH   8  11
ENDBRANCH   3   5
BRANCH   1  24
ATOM     24  C   UNL d   1      27.065 -13.157  -1.498  0.00  0.00     0.125 C 
BRANCH  24  25
ATOM     25  C   UNL d   1      27.516 -14.475  -2.128  0.00  0.00     0.163 C 
BRANCH  25  26
ATOM     26  N   UNL d   1      27.244 -15.685  -1.326  0.00  0.00    -0.238 N 
ATOM     27  N   UNL d   1      25.933 -16.126  -1.377  0.00  0.00    -0.174 NA
ATOM     28  C   UNL d   1      25.546 -17.096  -0.603  0.00  0.00     0.065 C 
ATOM     29  C   UNL d   1      26.437 -17.750   0.411  0.00  0.00     0.071 C 
ATOM     30  C   UNL d   1      27.890 -17.621   0.048  0.00  0.00     0.111 C 
ATOM     31  C   UNL d   1      28.255 -16.360  -0.655  0.00  0.00     0.240 C 
ATOM     32  O   UNL d   1      29.445 -16.037  -0.644  0.00  0.00    -0.272 OA
BRANCH  28  33
ATOM     33  C   UNL d   1      24.137 -17.579  -0.692  0.00  0.00    -0.010 A 
ATOM     34  C   UNL d   1      23.129 -16.637  -0.903  0.00  0.00     0.016 A 
ATOM     35  C   UNL d   1      21.789 -17.034  -0.893  0.00  0.00     0.037 A 
ATOM     36  C   UNL d   1      21.440 -18.377  -0.732  0.00  0.00     0.068 A 
ATOM     37  C   UNL d   1      22.448 -19.324  -0.544  0.00  0.00     0.037 A 
ATOM     38  C   UNL d   1      23.799 -18.929  -0.527  0.00  0.00     0.016 A 
BRANCH  36  39
ATOM     39  O   UNL d   1      20.110 -18.648  -0.892  0.00  0.00    -0.356 OA
ATOM     40  C   UNL d   1      19.447 -19.335   0.161  0.00  0.00     0.210 C 
ENDBRANCH  36  39
ENDBRANCH  28  33
ENDBRANCH  25  26
ENDBRANCH  24  25
ENDBRANCH   1  24
TORSDOF 9
ENDMDL
MODEL 2
REMARK VINA RESULT:   -10.376      6.871     10.462
REMARK INTER + INTRA:         -14.670
REMARK INTER:                 -13.061
REMARK INTRA:                  -1.609
REMARK CONF_INDEPENDENT:        2.685
REMARK UNBOUND:                -1.609
REMARK  9 active torsions:
REMARK  status: ('A' for Active; 'I' for Inactive)
REMARK    1  A    between atoms: O_2  and  C_3 
REMARK    2  A    between atoms: C_6  and  C_7 
REMARK    3  A    between atoms: N_9  and  C_10 
REMARK    4  A    between atoms: C_10  and  C_11 
REMARK    5  A    between atoms: C_11  and  C_12 
REMARK       I    between atoms: C_12  and  N_14 
REMARK    6  A    between atoms: N_14  and  C_15 
REMARK    7  A    between atoms: C_18  and  C_19 
REMARK    8  A    between atoms: C_19  and  C_20 
REMARK    9  A    between atoms: C_20  and  C_21 
ROOT
ATOM      1  C   UNL d   1      26.873 -15.193  -4.070  0.00  0.00     0.223 C 
ATOM      2  O   UNL d   1      26.335 -15.530  -5.128  0.00  0.00    -0.273 OA
ATOM      3  N   UNL d   1      28.206 -15.421  -3.747  0.00  0.00    -0.327 N 
ATOM      4  H   UNL d   1      28.516 -15.277  -2.790  0.00  0.00     0.169 HD
ENDROOT
BRANCH   3   5
ATOM      5  C   UNL d   1      29.120 -15.950  -4.674  0.00  0.00     0.034 A 
ATOM      6  C   UNL d   1      30.042 -16.933  -4.317  0.00  0.00     0.030 A 
ATOM      7  C   UNL d   1      30.973 -17.402  -5.266  0.00  0.00     0.009 A 
ATOM      8  C   UNL d   1      30.959 -16.924  -6.591  0.00  0.00    -0.058 A 
ATOM      9  C   UNL d   1      30.049 -15.908  -6.900  0.00  0.00     0.009 A 
ATOM     10  C   UNL d   1      29.139 -15.442  -5.965  0.00  0.00     0.030 A 
BRANCH   8  11
ATOM     11  C   UNL d   1      31.861 -17.518  -7.663  0.00  0.00     0.042 C 
BRANCH  11  12
ATOM     12  C   UNL d   1      31.392 -18.939  -8.148  0.00  0.00     0.062 C 
BRANCH  12  13
ATOM     13  C   UNL d   1      31.151 -19.963  -7.056  0.00  0.00     0.321 C 
ATOM     14  N   UNL d   1      32.237 -19.866  -6.033  0.00  0.00     0.129 N 
ATOM     15  C   UNL d   1      32.001 -20.885  -5.352  0.00  0.00     0.264 C 
ATOM     16  H   UNL d   1      33.140 -19.859  -6.582  0.00  0.00     0.320 HD
ATOM     17  C   UNL d   1      30.770 -21.230  -4.494  0.00  0.00     0.024 C 
ATOM     18  C   UNL d   1      32.037 -22.051  -6.285  0.00  0.00     0.053 C 
ATOM     19  C   UNL d   1      30.819 -22.430  -3.895  0.00  0.00    -0.001 C 
ATOM     20  C   UNL d   1      31.954 -23.272  -4.177  0.00  0.00     0.002 C 
ATOM     21  C   UNL d   1      32.517 -23.213  -5.418  0.00  0.00     0.028 C 
ATOM     22  N   UNL d   1      31.277 -21.572  -7.252  0.00  0.00    -0.361 N 
ATOM     23  H   UNL d   1      30.405 -22.024  -7.579  0.00  0.00     0.161 HD
ENDBRANCH  12  13
ENDBRANCH  11  12
ENDBRANCH   8  11
ENDBRANCH   3   5
BRANCH   1  24
ATOM     24  C   UNL d   1      26.111 -14.507  -2.985  0.00  0.00     0.125 C 
BRANCH  24  25
ATOM     25  C   UNL d   1      24.779 -15.191  -2.673  0.00  0.00     0.163 C 
BRANCH  25  26
ATOM     26  N   UNL d   1      24.848 -16.290  -1.690  0.00  0.00    -0.238 N 
ATOM     27  N   UNL d   1      23.644 -16.931  -1.460  0.00  0.00    -0.174 NA
ATOM     28  C   UNL d   1      23.554 -17.820  -0.514  0.00  0.00     0.065 C 
ATOM     29  C   UNL d   1      24.687 -18.164   0.406  0.00  0.00     0.071 C 
ATOM     30  C   UNL d   1      26.024 -17.869  -0.215  0.00  0.00     0.111 C 
ATOM     31  C   UNL d   1      26.051 -16.690  -1.123  0.00  0.00     0.240 C 
ATOM     32  O   UNL d   1      27.153 -16.189  -1.358  0.00  0.00    -0.272 OA
BRANCH  28  33
ATOM     33  C   UNL d   1      22.256 -18.523  -0.299  0.00  0.00    -0.010 A 
ATOM     34  C   UNL d   1      21.543 -18.950  -1.420  0.00  0.00     0.016 A 
ATOM     35  C   UNL d   1      20.277 -19.523  -1.267  0.00  0.00     0.037 A 
ATOM     36  C   UNL d   1      19.733 -19.730   0.003  0.00  0.00     0.068 A 
ATOM     37  C   UNL d   1      20.455 -19.324   1.126  0.00  0.00     0.037 A 
ATOM     38  C   UNL d   1      21.719 -18.724   0.980  0.00  0.00     0.016 A 
BRANCH  36  39
ATOM     39  O   UNL d   1      18.561 -20.432   0.017  0.00  0.00    -0.356 OA
ATOM     40  C   UNL d   1      18.402 -21.430   1.017  0.00  0.00     0.210 C 
ENDBRANCH  36  39
ENDBRANCH  28  33
ENDBRANCH  25  26
ENDBRANCH  24  25
ENDBRANCH   1  24
TORSDOF 9
ENDMDL
MODEL 3
REMARK VINA RESULT:   -10.314      1.499      1.988
REMARK INTER + INTRA:         -15.183
REMARK INTER:                 -12.999
REMARK INTRA:                  -2.184
REMARK CONF_INDEPENDENT:        2.685
REMARK UNBOUND:                -2.184
REMARK  9 active torsions:
REMARK  status: ('A' for Active; 'I' for Inactive)
REMARK    1  A    between atoms: O_2  and  C_3 
REMARK    2  A    between atoms: C_6  and  C_7 
REMARK    3  A    between atoms: N_9  and  C_10 
REMARK    4  A    between atoms: C_10  and  C_11 
REMARK    5  A    between atoms: C_11  and  C_12 
REMARK       I    between atoms: C_12  and  N_14 
REMARK    6  A    between atoms: N_14  and  C_15 
REMARK    7  A    between atoms: C_18  and  C_19 
REMARK    8  A    between atoms: C_19  and  C_20 
REMARK    9  A    between atoms: C_20  and  C_21 
ROOT
ATOM      1  C   UNL d   1      27.862 -13.212  -0.947  0.00  0.00     0.223 C 
ATOM      2  O   UNL d   1      28.830 -12.478  -0.731  0.00  0.00    -0.273 OA
ATOM      3  N   UNL d   1      27.178 -13.933   0.027  0.00  0.00    -0.327 N 
ATOM      4  H   UNL d   1      26.515 -14.648  -0.261  0.00  0.00     0.169 HD
ENDROOT
BRANCH   3   5
ATOM      5  C   UNL d   1      27.450 -13.785   1.396  0.00  0.00     0.034 A 
ATOM      6  C   UNL d   1      27.103 -12.629   2.094  0.00  0.00     0.030 A 
ATOM      7  C   UNL d   1      27.439 -12.503   3.458  0.00  0.00     0.009 A 
ATOM      8  C   UNL d   1      28.083 -13.551   4.145  0.00  0.00    -0.058 A 
ATOM      9  C   UNL d   1      28.453 -14.676   3.402  0.00  0.00     0.009 A 
ATOM     10  C   UNL d   1      28.130 -14.797   2.061  0.00  0.00     0.030 A 
BRANCH   8  11
ATOM     11  C   UNL d   1      28.326 -13.490   5.646  0.00  0.00     0.042 C 
BRANCH  11  12
ATOM     12  C   UNL d   1      29.839 -13.669   6.034  0.00  0.00     0.062 C 
BRANCH  12  13
ATOM     13  C   UNL d   1      30.159 -13.562   7.513  0.00  0.00     0.321 C 
ATOM     14  N   UNL d   1      31.491 -12.907   7.688  0.00  0.00     0.129 N 
ATOM     15  C   UNL d   1      31.677 -13.091   8.909  0.00  0.00     0.264 C 
ATOM     16  H   UNL d   1      32.142 -13.413   7.027  0.00  0.00     0.320 HD
ATOM     17  C   UNL d   1      30.885 -12.555  10.115  0.00  0.00     0.024 C 
ATOM     18  C   UNL d   1      31.599 -14.564   9.145  0.00  0.00     0.053 C 
ATOM     19  C   UNL d   1      31.338 -12.958  11.311  0.00  0.00    -0.001 C 
ATOM     20  C   UNL d   1      32.440 -13.888  11.330  0.00  0.00     0.002 C 
ATOM     21  C   UNL d   1      32.534 -14.807  10.327  0.00  0.00     0.028 C 
ATOM     22  N   UNL d   1      30.487 -14.825   8.482  0.00  0.00    -0.361 N 
ATOM     23  H   UNL d   1      29.648 -15.256   8.909  0.00  0.00     0.161 HD
ENDBRANCH  12  13
ENDBRANCH  11  12
ENDBRANCH   8  11
ENDBRANCH   3   5
BRANCH   1  24
ATOM     24  C   UNL d   1      27.328 -13.422  -2.324  0.00  0.00     0.125 C 
BRANCH  24  25
ATOM     25  C   UNL d   1      27.545 -14.847  -2.832  0.00  0.00     0.163 C 
BRANCH  25  26
ATOM     26  N   UNL d   1      27.287 -15.916  -1.847  0.00  0.00    -0.238 N 
ATOM     27  N   UNL d   1      25.960 -16.292  -1.740  0.00  0.00    -0.174 NA
ATOM     28  C   UNL d   1      25.594 -17.122  -0.808  0.00  0.00     0.065 C 
ATOM     29  C   UNL d   1      26.535 -17.672   0.223  0.00  0.00     0.071 C 
ATOM     30  C   UNL d   1      27.959 -17.671  -0.258  0.00  0.00     0.111 C 
ATOM     31  C   UNL d   1      28.319 -16.542  -1.160  0.00  0.00     0.240 C 
ATOM     32  O   UNL d   1      29.519 -16.283  -1.281  0.00  0.00    -0.272 OA
BRANCH  28  33
ATOM     33  C   UNL d   1      24.165 -17.540  -0.726  0.00  0.00    -0.010 A 
ATOM     34  C   UNL d   1      23.883 -18.889  -0.507  0.00  0.00     0.016 A 
ATOM     35  C   UNL d   1      22.559 -19.338  -0.523  0.00  0.00     0.037 A 
ATOM     36  C   UNL d   1      21.500 -18.443  -0.697  0.00  0.00     0.068 A 
ATOM     37  C   UNL d   1      21.780 -17.090  -0.894  0.00  0.00     0.037 A 
ATOM     38  C   UNL d   1      23.111 -16.633  -0.905  0.00  0.00     0.016 A 
BRANCH  36  39
ATOM     39  O   UNL d   1      20.257 -18.988  -0.543  0.00  0.00    -0.356 OA
ATOM     40  C   UNL d   1      19.893 -19.442   0.754  0.00  0.00     0.210 C 
ENDBRANCH  36  39
ENDBRANCH  28  33
ENDBRANCH  25  26
ENDBRANCH  24  25
ENDBRANCH   1  24
TORSDOF 9
ENDMDL
MODEL 4
REMARK VINA RESULT:   -10.016      0.866      1.336
REMARK INTER + INTRA:         -14.936
REMARK INTER:                 -12.701
REMARK INTRA:                  -2.235
REMARK CONF_INDEPENDENT:        2.685
REMARK UNBOUND:                -2.235
REMARK  9 active torsions:
REMARK  status: ('A' for Active; 'I' for Inactive)
REMARK    1  A    between atoms: O_2  and  C_3 
REMARK    2  A    between atoms: C_6  and  C_7 
REMARK    3  A    between atoms: N_9  and  C_10 
REMARK    4  A    between atoms: C_10  and  C_11 
REMARK    5  A    between atoms: C_11  and  C_12 
REMARK       I    between atoms: C_12  and  N_14 
REMARK    6  A    between atoms: N_14  and  C_15 
REMARK    7  A    between atoms: C_18  and  C_19 
REMARK    8  A    between atoms: C_19  and  C_20 
REMARK    9  A    between atoms: C_20  and  C_21 
ROOT
ATOM      1  C   UNL d   1      27.681 -12.901  -0.984  0.00  0.00     0.223 C 
ATOM      2  O   UNL d   1      26.669 -12.346  -0.546  0.00  0.00    -0.273 OA
ATOM      3  N   UNL d   1      28.702 -13.428  -0.199  0.00  0.00    -0.327 N 
ATOM      4  H   UNL d   1      29.576 -13.699  -0.642  0.00  0.00     0.169 HD
ENDROOT
BRANCH   3   5
ATOM      5  C   UNL d   1      28.610 -13.496   1.200  0.00  0.00     0.034 A 
ATOM      6  C   UNL d   1      28.995 -12.431   2.014  0.00  0.00     0.030 A 
ATOM      7  C   UNL d   1      28.932 -12.559   3.417  0.00  0.00     0.009 A 
ATOM      8  C   UNL d   1      28.441 -13.737   4.015  0.00  0.00    -0.058 A 
ATOM      9  C   UNL d   1      28.106 -14.798   3.168  0.00  0.00     0.009 A 
ATOM     10  C   UNL d   1      28.175 -14.674   1.790  0.00  0.00     0.030 A 
BRANCH   8  11
ATOM     11  C   UNL d   1      28.235 -13.841   5.519  0.00  0.00     0.042 C 
BRANCH  11  12
ATOM     12  C   UNL d   1      29.582 -13.953   6.321  0.00  0.00     0.062 C 
BRANCH  12  13
ATOM     13  C   UNL d   1      29.570 -13.363   7.719  0.00  0.00     0.321 C 
ATOM     14  N   UNL d   1      29.791 -14.451   8.720  0.00  0.00     0.129 N 
ATOM     15  C   UNL d   1      29.545 -13.839   9.779  0.00  0.00     0.264 C 
ATOM     16  H   UNL d   1      29.121 -15.222   8.450  0.00  0.00     0.320 HD
ATOM     17  C   UNL d   1      30.280 -12.648  10.420  0.00  0.00     0.024 C 
ATOM     18  C   UNL d   1      28.161 -13.290   9.655  0.00  0.00     0.053 C 
ATOM     19  C   UNL d   1      29.744 -12.204  11.567  0.00  0.00    -0.001 C 
ATOM     20  C   UNL d   1      28.526 -12.828  12.020  0.00  0.00     0.002 C 
ATOM     21  C   UNL d   1      27.633 -13.269  11.088  0.00  0.00     0.028 C 
ATOM     22  N   UNL d   1      28.255 -12.752   8.453  0.00  0.00    -0.361 N 
ATOM     23  H   UNL d   1      28.092 -11.749   8.255  0.00  0.00     0.161 HD
ENDBRANCH  12  13
ENDBRANCH  11  12
ENDBRANCH   8  11
ENDBRANCH   3   5
BRANCH   1  24
ATOM     24  C   UNL d   1      27.926 -13.044  -2.449  0.00  0.00     0.125 C 
BRANCH  24  25
ATOM     25  C   UNL d   1      27.417 -14.373  -3.007  0.00  0.00     0.163 C 
BRANCH  25  26
ATOM     26  N   UNL d   1      27.254 -15.455  -2.016  0.00  0.00    -0.238 N 
ATOM     27  N   UNL d   1      25.953 -15.901  -1.861  0.00  0.00    -0.174 NA
ATOM     28  C   UNL d   1      25.668 -16.750  -0.918  0.00  0.00     0.065 C 
ATOM     29  C   UNL d   1      26.674 -17.249   0.076  0.00  0.00     0.071 C 
ATOM     30  C   UNL d   1      28.077 -17.171  -0.458  0.00  0.00     0.111 C 
ATOM     31  C   UNL d   1      28.343 -16.025  -1.369  0.00  0.00     0.240 C 
ATOM     32  O   UNL d   1      29.521 -15.702  -1.535  0.00  0.00    -0.272 OA
BRANCH  28  33
ATOM     33  C   UNL d   1      24.267 -17.243  -0.783  0.00  0.00    -0.010 A 
ATOM     34  C   UNL d   1      24.067 -18.599  -0.520  0.00  0.00     0.016 A 
ATOM     35  C   UNL d   1      22.771 -19.121  -0.485  0.00  0.00     0.037 A 
ATOM     36  C   UNL d   1      21.659 -18.291  -0.654  0.00  0.00     0.068 A 
ATOM     37  C   UNL d   1      21.857 -16.931  -0.896  0.00  0.00     0.037 A 
ATOM     38  C   UNL d   1      23.160 -16.402  -0.957  0.00  0.00     0.016 A 
BRANCH  36  39
ATOM     39  O   UNL d   1      20.453 -18.900  -0.449  0.00  0.00    -0.356 OA
ATOM     40  C   UNL d   1      20.422 -20.028   0.414  0.00  0.00     0.210 C 
ENDBRANCH  36  39
ENDBRANCH  28  33
ENDBRANCH  25  26
ENDBRANCH  24  25
ENDBRANCH   1  24
TORSDOF 9
ENDMDL
MODEL 5
REMARK VINA RESULT:    -9.934      1.223      1.618
REMARK INTER + INTRA:         -14.941
REMARK INTER:                 -12.618
REMARK INTRA:                  -2.323
REMARK CONF_INDEPENDENT:        2.685
REMARK UNBOUND:                -2.323
REMARK  9 active torsions:
REMARK  status: ('A' for Active; 'I' for Inactive)
REMARK    1  A    between atoms: O_2  and  C_3 
REMARK    2  A    between atoms: C_6  and  C_7 
REMARK    3  A    between atoms: N_9  and  C_10 
REMARK    4  A    between atoms: C_10  and  C_11 
REMARK    5  A    between atoms: C_11  and  C_12 
REMARK       I    between atoms: C_12  and  N_14 
REMARK    6  A    between atoms: N_14  and  C_15 
REMARK    7  A    between atoms: C_18  and  C_19 
REMARK    8  A    between atoms: C_19  and  C_20 
REMARK    9  A    between atoms: C_20  and  C_21 
ROOT
ATOM      1  C   UNL d   1      28.292 -13.359  -1.498  0.00  0.00     0.223 C 
ATOM      2  O   UNL d   1      29.355 -12.841  -1.142  0.00  0.00    -0.273 OA
ATOM      3  N   UNL d   1      27.324 -13.860  -0.634  0.00  0.00    -0.327 N 
ATOM      4  H   UNL d   1      26.570 -14.430  -1.012  0.00  0.00     0.169 HD
ENDROOT
BRANCH   3   5
ATOM      5  C   UNL d   1      27.409 -13.702   0.758  0.00  0.00     0.034 A 
ATOM      6  C   UNL d   1      27.988 -14.672   1.574  0.00  0.00     0.030 A 
ATOM      7  C   UNL d   1      28.010 -14.494   2.973  0.00  0.00     0.009 A 
ATOM      8  C   UNL d   1      27.492 -13.323   3.562  0.00  0.00    -0.058 A 
ATOM      9  C   UNL d   1      26.881 -12.393   2.716  0.00  0.00     0.009 A 
ATOM     10  C   UNL d   1      26.853 -12.571   1.342  0.00  0.00     0.030 A 
BRANCH   8  11
ATOM     11  C   UNL d   1      27.633 -13.051   5.052  0.00  0.00     0.042 C 
BRANCH  11  12
ATOM     12  C   UNL d   1      28.873 -13.769   5.697  0.00  0.00     0.062 C 
BRANCH  12  13
ATOM     13  C   UNL d   1      29.272 -13.287   7.079  0.00  0.00     0.321 C 
ATOM     14  N   UNL d   1      29.732 -14.450   7.898  0.00  0.00     0.129 N 
ATOM     15  C   UNL d   1      29.812 -13.917   9.025  0.00  0.00     0.264 C 
ATOM     16  H   UNL d   1      28.990 -15.192   7.775  0.00  0.00     0.320 HD
ATOM     17  C   UNL d   1      30.733 -12.785   9.513  0.00  0.00     0.024 C 
ATOM     18  C   UNL d   1      28.466 -13.348   9.335  0.00  0.00     0.053 C 
ATOM     19  C   UNL d   1      30.554 -12.425  10.793  0.00  0.00    -0.001 C 
ATOM     20  C   UNL d   1      29.494 -13.070  11.527  0.00  0.00     0.002 C 
ATOM     21  C   UNL d   1      28.362 -13.430  10.856  0.00  0.00     0.028 C 
ATOM     22  N   UNL d   1      28.235 -12.721   8.196  0.00  0.00    -0.361 N 
ATOM     23  H   UNL d   1      28.053 -11.705   8.123  0.00  0.00     0.161 HD
ENDBRANCH  12  13
ENDBRANCH  11  12
ENDBRANCH   8  11
ENDBRANCH   3   5
BRANCH   1  24
ATOM     24  C   UNL d   1      27.942 -13.523  -2.939  0.00  0.00     0.125 C 
BRANCH  24  25
ATOM     25  C   UNL d   1      27.840 -14.988  -3.361  0.00  0.00     0.163 C 
BRANCH  25  26
ATOM     26  N   UNL d   1      27.599 -15.947  -2.264  0.00  0.00    -0.238 N 
ATOM     27  N   UNL d   1      26.273 -16.305  -2.095  0.00  0.00    -0.174 NA
ATOM     28  C   UNL d   1      25.923 -17.032  -1.075  0.00  0.00     0.065 C 
ATOM     29  C   UNL d   1      26.881 -17.472  -0.008  0.00  0.00     0.071 C 
ATOM     30  C   UNL d   1      28.296 -17.525  -0.510  0.00  0.00     0.111 C 
ATOM     31  C   UNL d   1      28.642 -16.499  -1.532  0.00  0.00     0.240 C 
ATOM     32  O   UNL d   1      29.839 -16.257  -1.701  0.00  0.00    -0.272 OA
BRANCH  28  33
ATOM     33  C   UNL d   1      24.495 -17.435  -0.924  0.00  0.00    -0.010 A 
ATOM     34  C   UNL d   1      23.512 -16.464  -1.123  0.00  0.00     0.016 A 
ATOM     35  C   UNL d   1      22.168 -16.774  -0.895  0.00  0.00     0.037 A 
ATOM     36  C   UNL d   1      21.782 -18.064  -0.524  0.00  0.00     0.068 A 
ATOM     37  C   UNL d   1      22.763 -19.042  -0.346  0.00  0.00     0.037 A 
ATOM     38  C   UNL d   1      24.120 -18.731  -0.550  0.00  0.00     0.016 A 
BRANCH  36  39
ATOM     39  O   UNL d   1      20.432 -18.269  -0.479  0.00  0.00    -0.356 OA
ATOM     40  C   UNL d   1      19.900 -19.325  -1.267  0.00  0.00     0.210 C 
ENDBRANCH  36  39
ENDBRANCH  28  33
ENDBRANCH  25  26
ENDBRANCH  24  25
ENDBRANCH   1  24
TORSDOF 9
ENDMDL
MODEL 6
REMARK VINA RESULT:    -9.920      6.396     10.228
REMARK INTER + INTRA:         -14.959
REMARK INTER:                 -12.604
REMARK INTRA:                  -2.355
REMARK CONF_INDEPENDENT:        2.685
REMARK UNBOUND:                -2.355
REMARK  9 active torsions:
REMARK  status: ('A' for Active; 'I' for Inactive)
REMARK    1  A    between atoms: O_2  and  C_3 
REMARK    2  A    between atoms: C_6  and  C_7 
REMARK    3  A    between atoms: N_9  and  C_10 
REMARK    4  A    between atoms: C_10  and  C_11 
REMARK    5  A    between atoms: C_11  and  C_12 
REMARK       I    between atoms: C_12  and  N_14 
REMARK    6  A    between atoms: N_14  and  C_15 
REMARK    7  A    between atoms: C_18  and  C_19 
REMARK    8  A    between atoms: C_19  and  C_20 
REMARK    9  A    between atoms: C_20  and  C_21 
ROOT
ATOM      1  C   UNL d   1      26.629 -14.728  -4.756  0.00  0.00     0.223 C 
ATOM      2  O   UNL d   1      26.131 -15.577  -5.500  0.00  0.00    -0.273 OA
ATOM      3  N   UNL d   1      27.977 -14.657  -4.419  0.00  0.00    -0.327 N 
ATOM      4  H   UNL d   1      28.267 -14.043  -3.662  0.00  0.00     0.169 HD
ENDROOT
BRANCH   3   5
ATOM      5  C   UNL d   1      28.941 -15.487  -5.013  0.00  0.00     0.034 A 
ATOM      6  C   UNL d   1      29.551 -16.525  -4.310  0.00  0.00     0.030 A 
ATOM      7  C   UNL d   1      30.549 -17.304  -4.931  0.00  0.00     0.009 A 
ATOM      8  C   UNL d   1      30.911 -17.080  -6.274  0.00  0.00    -0.058 A 
ATOM      9  C   UNL d   1      30.309 -16.004  -6.933  0.00  0.00     0.009 A 
ATOM     10  C   UNL d   1      29.334 -15.234  -6.320  0.00  0.00     0.030 A 
BRANCH   8  11
ATOM     11  C   UNL d   1      31.882 -17.998  -7.001  0.00  0.00     0.042 C 
BRANCH  11  12
ATOM     12  C   UNL d   1      31.203 -19.306  -7.549  0.00  0.00     0.062 C 
BRANCH  12  13
ATOM     13  C   UNL d   1      30.991 -20.415  -6.536  0.00  0.00     0.321 C 
ATOM     14  N   UNL d   1      31.790 -20.124  -5.306  0.00  0.00     0.129 N 
ATOM     15  C   UNL d   1      31.666 -21.205  -4.694  0.00  0.00     0.264 C 
ATOM     16  H   UNL d   1      32.758 -19.881  -5.651  0.00  0.00     0.320 HD
ATOM     17  C   UNL d   1      30.403 -21.869  -4.118  0.00  0.00     0.024 C 
ATOM     18  C   UNL d   1      32.168 -22.281  -5.601  0.00  0.00     0.053 C 
ATOM     19  C   UNL d   1      30.609 -23.055  -3.525  0.00  0.00    -0.001 C 
ATOM     20  C   UNL d   1      31.944 -23.597  -3.562  0.00  0.00     0.002 C 
ATOM     21  C   UNL d   1      32.720 -23.345  -4.656  0.00  0.00     0.028 C 
ATOM     22  N   UNL d   1      31.531 -21.939  -6.706  0.00  0.00    -0.361 N 
ATOM     23  H   UNL d   1      30.878 -22.562  -7.212  0.00  0.00     0.161 HD
ENDBRANCH  12  13
ENDBRANCH  11  12
ENDBRANCH   8  11
ENDBRANCH   3   5
BRANCH   1  24
ATOM     24  C   UNL d   1      25.800 -13.672  -4.105  0.00  0.00     0.125 C 
BRANCH  24  25
ATOM     25  C   UNL d   1      26.135 -13.484  -2.625  0.00  0.00     0.163 C 
BRANCH  25  26
ATOM     26  N   UNL d   1      26.307 -14.730  -1.853  0.00  0.00    -0.238 N 
ATOM     27  N   UNL d   1      25.151 -15.476  -1.700  0.00  0.00    -0.174 NA
ATOM     28  C   UNL d   1      25.151 -16.519  -0.923  0.00  0.00     0.065 C 
ATOM     29  C   UNL d   1      26.340 -16.945  -0.114  0.00  0.00     0.071 C 
ATOM     30  C   UNL d   1      27.630 -16.464  -0.715  0.00  0.00     0.111 C 
ATOM     31  C   UNL d   1      27.553 -15.146  -1.403  0.00  0.00     0.240 C 
ATOM     32  O   UNL d   1      28.615 -14.544  -1.581  0.00  0.00    -0.272 OA
BRANCH  28  33
ATOM     33  C   UNL d   1      23.905 -17.328  -0.793  0.00  0.00    -0.010 A 
ATOM     34  C   UNL d   1      24.030 -18.697  -0.549  0.00  0.00     0.016 A 
ATOM     35  C   UNL d   1      22.893 -19.508  -0.520  0.00  0.00     0.037 A 
ATOM     36  C   UNL d   1      21.617 -18.960  -0.674  0.00  0.00     0.068 A 
ATOM     37  C   UNL d   1      21.489 -17.588  -0.895  0.00  0.00     0.037 A 
ATOM     38  C   UNL d   1      22.631 -16.768  -0.951  0.00  0.00     0.016 A 
BRANCH  36  39
ATOM     39  O   UNL d   1      20.588 -19.837  -0.475  0.00  0.00    -0.356 OA
ATOM     40  C   UNL d   1      20.213 -20.121   0.866  0.00  0.00     0.210 C 
ENDBRANCH  36  39
ENDBRANCH  28  33
ENDBRANCH  25  26
ENDBRANCH  24  25
ENDBRANCH   1  24
TORSDOF 9
ENDMDL
MODEL 7
REMARK VINA RESULT:    -9.816      6.498      9.891
REMARK INTER + INTRA:         -14.806
REMARK INTER:                 -12.500
REMARK INTRA:                  -2.305
REMARK CONF_INDEPENDENT:        2.685
REMARK UNBOUND:                -2.305
REMARK  9 active torsions:
REMARK  status: ('A' for Active; 'I' for Inactive)
REMARK    1  A    between atoms: O_2  and  C_3 
REMARK    2  A    between atoms: C_6  and  C_7 
REMARK    3  A    between atoms: N_9  and  C_10 
REMARK    4  A    between atoms: C_10  and  C_11 
REMARK    5  A    between atoms: C_11  and  C_12 
REMARK       I    between atoms: C_12  and  N_14 
REMARK    6  A    between atoms: N_14  and  C_15 
REMARK    7  A    between atoms: C_18  and  C_19 
REMARK    8  A    between atoms: C_19  and  C_20 
REMARK    9  A    between atoms: C_20  and  C_21 
ROOT
ATOM      1  C   UNL d   1      27.098 -14.739  -4.959  0.00  0.00     0.223 C 
ATOM      2  O   UNL d   1      26.464 -15.568  -5.617  0.00  0.00    -0.273 OA
ATOM      3  N   UNL d   1      28.457 -14.820  -4.673  0.00  0.00    -0.327 N 
ATOM      4  H   UNL d   1      28.855 -14.195  -3.976  0.00  0.00     0.169 HD
ENDROOT
BRANCH   3   5
ATOM      5  C   UNL d   1      29.281 -15.810  -5.232  0.00  0.00     0.034 A 
ATOM      6  C   UNL d   1      29.685 -15.762  -6.566  0.00  0.00     0.030 A 
ATOM      7  C   UNL d   1      30.473 -16.803  -7.100  0.00  0.00     0.009 A 
ATOM      8  C   UNL d   1      30.901 -17.875  -6.292  0.00  0.00    -0.058 A 
ATOM      9  C   UNL d   1      30.441 -17.911  -4.972  0.00  0.00     0.009 A 
ATOM     10  C   UNL d   1      29.660 -16.892  -4.450  0.00  0.00     0.030 A 
BRANCH   8  11
ATOM     11  C   UNL d   1      31.865 -18.930  -6.812  0.00  0.00     0.042 C 
BRANCH  11  12
ATOM     12  C   UNL d   1      31.292 -20.392  -6.717  0.00  0.00     0.062 C 
BRANCH  12  13
ATOM     13  C   UNL d   1      31.443 -21.074  -5.370  0.00  0.00     0.321 C 
ATOM     14  N   UNL d   1      31.622 -22.544  -5.575  0.00  0.00     0.129 N 
ATOM     15  C   UNL d   1      31.519 -22.951  -4.399  0.00  0.00     0.264 C 
ATOM     16  H   UNL d   1      30.859 -22.830  -6.246  0.00  0.00     0.320 HD
ATOM     17  C   UNL d   1      32.418 -22.676  -3.181  0.00  0.00     0.024 C 
ATOM     18  C   UNL d   1      30.194 -22.485  -3.891  0.00  0.00     0.053 C 
ATOM     19  C   UNL d   1      32.016 -23.257  -2.040  0.00  0.00    -0.001 C 
ATOM     20  C   UNL d   1      30.776 -23.992  -2.066  0.00  0.00     0.002 C 
ATOM     21  C   UNL d   1      29.777 -23.556  -2.887  0.00  0.00     0.028 C 
ATOM     22  N   UNL d   1      30.255 -21.222  -4.271  0.00  0.00    -0.361 N 
ATOM     23  H   UNL d   1      30.182 -20.420  -3.621  0.00  0.00     0.161 HD
ENDBRANCH  12  13
ENDBRANCH  11  12
ENDBRANCH   8  11
ENDBRANCH   3   5
BRANCH   1  24
ATOM     24  C   UNL d   1      26.439 -13.539  -4.365  0.00  0.00     0.125 C 
BRANCH  24  25
ATOM     25  C   UNL d   1      26.718 -13.389  -2.869  0.00  0.00     0.163 C 
BRANCH  25  26
ATOM     26  N   UNL d   1      26.814 -14.655  -2.115  0.00  0.00    -0.238 N 
ATOM     27  N   UNL d   1      25.610 -15.311  -1.937  0.00  0.00    -0.174 NA
ATOM     28  C   UNL d   1      25.551 -16.360  -1.170  0.00  0.00     0.065 C 
ATOM     29  C   UNL d   1      26.725 -16.886  -0.399  0.00  0.00     0.071 C 
ATOM     30  C   UNL d   1      28.032 -16.498  -1.032  0.00  0.00     0.111 C 
ATOM     31  C   UNL d   1      28.037 -15.170  -1.705  0.00  0.00     0.240 C 
ATOM     32  O   UNL d   1      29.136 -14.649  -1.907  0.00  0.00    -0.272 OA
BRANCH  28  33
ATOM     33  C   UNL d   1      24.250 -17.074  -1.013  0.00  0.00    -0.010 A 
ATOM     34  C   UNL d   1      23.073 -16.334  -1.132  0.00  0.00     0.016 A 
ATOM     35  C   UNL d   1      21.838 -16.942  -0.894  0.00  0.00     0.037 A 
ATOM     36  C   UNL d   1      21.755 -18.304  -0.591  0.00  0.00     0.068 A 
ATOM     37  C   UNL d   1      22.930 -19.050  -0.493  0.00  0.00     0.037 A 
ATOM     38  C   UNL d   1      24.180 -18.439  -0.708  0.00  0.00     0.016 A 
BRANCH  36  39
ATOM     39  O   UNL d   1      20.484 -18.802  -0.530  0.00  0.00    -0.356 OA
ATOM     40  C   UNL d   1      20.287 -20.015   0.183  0.00  0.00     0.210 C 
ENDBRANCH  36  39
ENDBRANCH  28  33
ENDBRANCH  25  26
ENDBRANCH  24  25
ENDBRANCH   1  24
TORSDOF 9
ENDMDL
MODEL 8
REMARK VINA RESULT:    -9.335      3.620      5.161
REMARK INTER + INTRA:         -14.901
REMARK INTER:                 -12.020
REMARK INTRA:                  -2.881
REMARK CONF_INDEPENDENT:        2.685
REMARK UNBOUND:                -2.881
REMARK  9 active torsions:
REMARK  status: ('A' for Active; 'I' for Inactive)
REMARK    1  A    between atoms: O_2  and  C_3 
REMARK    2  A    between atoms: C_6  and  C_7 
REMARK    3  A    between atoms: N_9  and  C_10 
REMARK    4  A    between atoms: C_10  and  C_11 
REMARK    5  A    between atoms: C_11  and  C_12 
REMARK       I    between atoms: C_12  and  N_14 
REMARK    6  A    between atoms: N_14  and  C_15 
REMARK    7  A    between atoms: C_18  and  C_19 
REMARK    8  A    between atoms: C_19  and  C_20 
REMARK    9  A    between atoms: C_20  and  C_21 
ROOT
ATOM      1  C   UNL d   1      26.404 -12.511  -3.197  0.00  0.00     0.223 C 
ATOM      2  O   UNL d   1      25.497 -11.793  -2.768  0.00  0.00    -0.273 OA
ATOM      3  N   UNL d   1      27.430 -13.044  -2.423  0.00  0.00    -0.327 N 
ATOM      4  H   UNL d   1      28.230 -13.469  -2.886  0.00  0.00     0.169 HD
ENDROOT
BRANCH   3   5
ATOM      5  C   UNL d   1      27.455 -12.919  -1.025  0.00  0.00     0.034 A 
ATOM      6  C   UNL d   1      26.656 -13.712  -0.202  0.00  0.00     0.030 A 
ATOM      7  C   UNL d   1      26.676 -13.520   1.195  0.00  0.00     0.009 A 
ATOM      8  C   UNL d   1      27.529 -12.565   1.782  0.00  0.00    -0.058 A 
ATOM      9  C   UNL d   1      28.282 -11.759   0.923  0.00  0.00     0.009 A 
ATOM     10  C   UNL d   1      28.257 -11.943  -0.450  0.00  0.00     0.030 A 
BRANCH   8  11
ATOM     11  C   UNL d   1      27.668 -12.441   3.292  0.00  0.00     0.042 C 
BRANCH  11  12
ATOM     12  C   UNL d   1      28.720 -13.439   3.900  0.00  0.00     0.062 C 
BRANCH  12  13
ATOM     13  C   UNL d   1      29.957 -13.689   3.058  0.00  0.00     0.321 C 
ATOM     14  N   UNL d   1      29.665 -14.754   2.050  0.00  0.00     0.129 N 
ATOM     15  C   UNL d   1      30.813 -14.969   1.608  0.00  0.00     0.264 C 
ATOM     16  H   UNL d   1      29.210 -15.538   2.593  0.00  0.00     0.320 HD
ATOM     17  C   UNL d   1      31.759 -14.034   0.834  0.00  0.00     0.024 C 
ATOM     18  C   UNL d   1      31.667 -15.343   2.775  0.00  0.00     0.053 C 
ATOM     19  C   UNL d   1      32.946 -14.571   0.515  0.00  0.00    -0.001 C 
ATOM     20  C   UNL d   1      33.225 -15.905   0.987  0.00  0.00     0.002 C 
ATOM     21  C   UNL d   1      32.712 -16.290   2.190  0.00  0.00     0.028 C 
ATOM     22  N   UNL d   1      31.326 -14.374   3.605  0.00  0.00    -0.361 N 
ATOM     23  H   UNL d   1      31.997 -13.701   4.015  0.00  0.00     0.161 HD
ENDBRANCH  12  13
ENDBRANCH  11  12
ENDBRANCH   8  11
ENDBRANCH   3   5
BRANCH   1  24
ATOM     24  C   UNL d   1      26.505 -12.871  -4.642  0.00  0.00     0.125 C 
BRANCH  24  25
ATOM     25  C   UNL d   1      26.314 -14.366  -4.895  0.00  0.00     0.163 C 
BRANCH  25  26
ATOM     26  N   UNL d   1      26.637 -15.247  -3.755  0.00  0.00    -0.238 N 
ATOM     27  N   UNL d   1      25.534 -15.762  -3.097  0.00  0.00    -0.174 NA
ATOM     28  C   UNL d   1      25.693 -16.436  -1.996  0.00  0.00     0.065 C 
ATOM     29  C   UNL d   1      27.027 -16.648  -1.343  0.00  0.00     0.071 C 
ATOM     30  C   UNL d   1      28.156 -16.556  -2.331  0.00  0.00     0.111 C 
ATOM     31  C   UNL d   1      27.946 -15.588  -3.442  0.00  0.00     0.240 C 
ATOM     32  O   UNL d   1      28.949 -15.205  -4.049  0.00  0.00    -0.272 OA
BRANCH  28  33
ATOM     33  C   UNL d   1      24.497 -17.010  -1.315  0.00  0.00    -0.010 A 
ATOM     34  C   UNL d   1      24.598 -18.292  -0.773  0.00  0.00     0.016 A 
ATOM     35  C   UNL d   1      23.473 -18.906  -0.215  0.00  0.00     0.037 A 
ATOM     36  C   UNL d   1      22.252 -18.231  -0.139  0.00  0.00     0.068 A 
ATOM     37  C   UNL d   1      22.155 -16.941  -0.661  0.00  0.00     0.037 A 
ATOM     38  C   UNL d   1      23.277 -16.325  -1.247  0.00  0.00     0.016 A 
BRANCH  36  39
ATOM     39  O   UNL d   1      21.278 -18.886   0.561  0.00  0.00    -0.356 OA
ATOM     40  C   UNL d   1      20.138 -19.336  -0.160  0.00  0.00     0.210 C 
ENDBRANCH  36  39
ENDBRANCH  28  33
ENDBRANCH  25  26
ENDBRANCH  24  25
ENDBRANCH   1  24
TORSDOF 9
ENDMDL
