MODEL 1
REMARK VINA RESULT:    -9.780      0.000      0.000
REMARK INTER + INTRA:         -14.027
REMARK INTER:                 -12.763
REMARK INTRA:                  -1.264
REMARK CONF_INDEPENDENT:        2.983
REMARK UNBOUND:                -1.264
REMARK  10 active torsions:
REMARK  status: ('A' for Active; 'I' for Inactive)
REMARK    1  A    between atoms: C_2  and  C_3 
REMARK    2  A    between atoms: C_3  and  C_4 
REMARK    3  A    between atoms: C_4  and  S_5 
REMARK    4  A    between atoms: S_5  and  C_6 
REMARK    5  A    between atoms: C_9  and  C_10 
REMARK       I    between atoms: C_10  and  N_12 
REMARK    6  A    between atoms: N_12  and  C_13 
REMARK    7  A    between atoms: C_13  and  C_14 
REMARK    8  A    between atoms: C_14  and  C_15 
REMARK    9  A    between atoms: C_14  and  N_23 
REMARK   10  A    between atoms: C_18  and  O_19 
ROOT
ATOM      1  C   UNL d   1      29.991 -14.919   0.748  0.00  0.00     0.161 C 
ENDROOT
BRANCH   1   2
ATOM      2  N   UNL d   1      28.732 -15.678   0.646  0.00  0.00    -0.354 N 
ATOM      3  C   UNL d   1      27.909 -15.692  -0.462  0.00  0.00     0.256 C 
ATOM      4  O   UNL d   1      28.173 -15.011  -1.453  0.00  0.00    -0.268 OA
ATOM      5  H   UNL d   1      28.519 -16.340   1.387  0.00  0.00     0.162 HD
BRANCH   3   6
ATOM      6  C   UNL d   1      26.673 -16.534  -0.431  0.00  0.00     0.090 A 
ATOM      7  C   UNL d   1      26.597 -17.620   0.420  0.00  0.00     0.139 A 
ATOM      8  N   UNL d   1      25.543 -18.479   0.481  0.00  0.00    -0.234 NA
ATOM      9  C   UNL d   1      24.511 -18.247  -0.344  0.00  0.00     0.189 A 
ATOM     10  N   UNL d   1      24.463 -17.215  -1.192  0.00  0.00    -0.210 NA
ATOM     11  C   UNL d   1      25.537 -16.393  -1.206  0.00  0.00     0.146 A 
ATOM     12 CL   UNL d   1      25.288 -15.117  -2.344  0.00  0.00    -0.061 Cl
BRANCH   9  13
ATOM     13  S   UNL d   1      23.041 -19.225  -0.175  0.00  0.00    -0.090 SA
BRANCH  13  14
ATOM     14  C   UNL d   1      21.771 -18.117  -0.891  0.00  0.00     0.082 C 
BRANCH  14  15
ATOM     15  C   UNL d   1      20.496 -18.931  -1.163  0.00  0.00     0.010 C 
BRANCH  15  16
ATOM     16  C   UNL d   1      20.320 -20.081  -0.167  0.00  0.00    -0.004 C 
ATOM     17  C   UNL d   1      19.618 -19.610   1.099  0.00  0.00     0.005 C 
ENDBRANCH  15  16
ENDBRANCH  14  15
ENDBRANCH  13  14
ENDBRANCH   9  13
ENDBRANCH   3   6
ENDBRANCH   1   2
BRANCH   1  18
ATOM     18  C   UNL d   1      29.976 -13.908   1.953  0.00  0.00     0.238 C 
BRANCH  18  19
ATOM     19  C   UNL d   1      29.015 -12.768   1.647  0.00  0.00    -0.026 A 
ATOM     20  C   UNL d   1      29.257 -11.475   2.129  0.00  0.00     0.012 A 
ATOM     21  C   UNL d   1      28.208 -10.553   2.169  0.00  0.00     0.037 A 
ATOM     22  C   UNL d   1      26.950 -10.876   1.646  0.00  0.00     0.068 A 
ATOM     23  C   UNL d   1      26.732 -12.143   1.117  0.00  0.00     0.037 A 
ATOM     24  C   UNL d   1      27.760 -13.070   1.090  0.00  0.00     0.012 A 
BRANCH  22  25
ATOM     25  O   UNL d   1      26.004  -9.892   1.697  0.00  0.00    -0.356 OA
ATOM     26  C   UNL d   1      26.443  -8.637   2.219  0.00  0.00     0.210 C 
ENDBRANCH  22  25
ENDBRANCH  18  19
BRANCH  18  27
ATOM     27  N   UNL d   1      29.619 -14.586   3.342  0.00  0.00    -0.061 N 
ATOM     28  C   UNL d   1      30.424 -13.981   4.492  0.00  0.00     0.236 C 
ATOM     29  C   UNL d   1      30.010 -14.593   5.832  0.00  0.00     0.028 C 
ATOM     30  C   UNL d   1      28.522 -14.390   6.073  0.00  0.00     0.003 C 
ATOM     31  C   UNL d   1      27.779 -15.164   5.009  0.00  0.00     0.028 C 
ATOM     32  C   UNL d   1      28.102 -14.569   3.656  0.00  0.00     0.236 C 
ATOM     33  H   UNL d   1      29.884 -15.575   3.262  0.00  0.00     0.280 HD
ENDBRANCH  18  27
ENDBRANCH   1  18
TORSDOF 10
ENDMDL
MODEL 2
REMARK VINA RESULT:    -9.615      2.403      3.883
REMARK INTER + INTRA:         -13.962
REMARK INTER:                 -12.598
REMARK INTRA:                  -1.364
REMARK CONF_INDEPENDENT:        2.983
REMARK UNBOUND:                -1.364
REMARK  10 active torsions:
REMARK  status: ('A' for Active; 'I' for Inactive)
REMARK    1  A    between atoms: C_2  and  C_3 
REMARK    2  A    between atoms: C_3  and  C_4 
REMARK    3  A    between atoms: C_4  and  S_5 
REMARK    4  A    between atoms: S_5  and  C_6 
REMARK    5  A    between atoms: C_9  and  C_10 
REMARK       I    between atoms: C_10  and  N_12 
REMARK    6  A    between atoms: N_12  and  C_13 
REMARK    7  A    between atoms: C_13  and  C_14 
REMARK    8  A    between atoms: C_14  and  C_15 
REMARK    9  A    between atoms: C_14  and  N_23 
REMARK   10  A    between atoms: C_18  and  O_19 
ROOT
ATOM      1  C   UNL d   1      28.225 -14.119   0.012  0.00  0.00     0.161 C 
ENDROOT
BRANCH   1   2
ATOM      2  N   UNL d   1      27.152 -15.127   0.093  0.00  0.00    -0.354 N 
ATOM      3  C   UNL d   1      26.218 -15.360  -0.894  0.00  0.00     0.256 C 
ATOM      4  O   UNL d   1      26.203 -14.685  -1.924  0.00  0.00    -0.268 OA
ATOM      5  H   UNL d   1      27.180 -15.784   0.868  0.00  0.00     0.162 HD
BRANCH   3   6
ATOM      6  C   UNL d   1      25.201 -16.438  -0.684  0.00  0.00     0.090 A 
ATOM      7  C   UNL d   1      23.900 -16.254  -1.111  0.00  0.00     0.139 A 
ATOM      8  N   UNL d   1      22.892 -17.148  -0.916  0.00  0.00    -0.234 NA
ATOM      9  C   UNL d   1      23.191 -18.281  -0.264  0.00  0.00     0.189 A 
ATOM     10  N   UNL d   1      24.418 -18.577   0.174  0.00  0.00    -0.210 NA
ATOM     11  C   UNL d   1      25.380 -17.654  -0.052  0.00  0.00     0.146 A 
ATOM     12 CL   UNL d   1      26.893 -18.216   0.566  0.00  0.00    -0.061 Cl
BRANCH   9  13
ATOM     13  S   UNL d   1      21.960 -19.552  -0.145  0.00  0.00    -0.090 SA
BRANCH  13  14
ATOM     14  C   UNL d   1      20.590 -18.839  -1.129  0.00  0.00     0.082 C 
BRANCH  14  15
ATOM     15  C   UNL d   1      19.258 -19.404  -0.612  0.00  0.00     0.010 C 
BRANCH  15  16
ATOM     16  C   UNL d   1      19.457 -20.646   0.263  0.00  0.00    -0.004 C 
ATOM     17  C   UNL d   1      18.129 -21.144   0.819  0.00  0.00     0.005 C 
ENDBRANCH  15  16
ENDBRANCH  14  15
ENDBRANCH  13  14
ENDBRANCH   9  13
ENDBRANCH   3   6
ENDBRANCH   1   2
BRANCH   1  18
ATOM     18  C   UNL d   1      29.457 -14.494   0.916  0.00  0.00     0.238 C 
BRANCH  18  19
ATOM     19  C   UNL d   1      29.087 -14.312   2.381  0.00  0.00    -0.026 A 
ATOM     20  C   UNL d   1      27.783 -14.559   2.828  0.00  0.00     0.012 A 
ATOM     21  C   UNL d   1      27.371 -14.035   4.056  0.00  0.00     0.037 A 
ATOM     22  C   UNL d   1      28.271 -13.352   4.881  0.00  0.00     0.068 A 
ATOM     23  C   UNL d   1      29.580 -13.158   4.456  0.00  0.00     0.037 A 
ATOM     24  C   UNL d   1      29.993 -13.658   3.233  0.00  0.00     0.012 A 
BRANCH  22  25
ATOM     25  O   UNL d   1      27.780 -12.913   6.079  0.00  0.00    -0.356 OA
ATOM     26  C   UNL d   1      28.684 -12.147   6.875  0.00  0.00     0.210 C 
ENDBRANCH  22  25
ENDBRANCH  18  19
BRANCH  18  27
ATOM     27  N   UNL d   1      30.010 -15.958   0.654  0.00  0.00    -0.061 N 
ATOM     28  C   UNL d   1      29.635 -16.465  -0.739  0.00  0.00     0.236 C 
ATOM     29  C   UNL d   1      30.242 -17.845  -1.001  0.00  0.00     0.028 C 
ATOM     30  C   UNL d   1      31.756 -17.797  -0.853  0.00  0.00     0.003 C 
ATOM     31  C   UNL d   1      32.061 -17.470   0.590  0.00  0.00     0.028 C 
ATOM     32  C   UNL d   1      31.534 -16.086   0.900  0.00  0.00     0.236 C 
ATOM     33  H   UNL d   1      29.556 -16.571   1.341  0.00  0.00     0.280 HD
ENDBRANCH  18  27
ENDBRANCH   1  18
TORSDOF 10
ENDMDL
MODEL 3
REMARK VINA RESULT:    -9.578      3.892      8.677
REMARK INTER + INTRA:         -13.633
REMARK INTER:                 -12.561
REMARK INTRA:                  -1.072
REMARK CONF_INDEPENDENT:        2.983
REMARK UNBOUND:                -1.072
REMARK  10 active torsions:
REMARK  status: ('A' for Active; 'I' for Inactive)
REMARK    1  A    between atoms: C_2  and  C_3 
REMARK    2  A    between atoms: C_3  and  C_4 
REMARK    3  A    between atoms: C_4  and  S_5 
REMARK    4  A    between atoms: S_5  and  C_6 
REMARK    5  A    between atoms: C_9  and  C_10 
REMARK       I    between atoms: C_10  and  N_12 
REMARK    6  A    between atoms: N_12  and  C_13 
REMARK    7  A    between atoms: C_13  and  C_14 
REMARK    8  A    between atoms: C_14  and  C_15 
REMARK    9  A    between atoms: C_14  and  N_23 
REMARK   10  A    between atoms: C_18  and  O_19 
ROOT
ATOM      1  C   UNL d   1      27.692 -15.013   0.940  0.00  0.00     0.161 C 
ENDROOT
BRANCH   1   2
ATOM      2  N   UNL d   1      28.098 -14.656   2.312  0.00  0.00    -0.354 N 
ATOM      3  C   UNL d   1      27.509 -13.668   3.074  0.00  0.00     0.256 C 
ATOM      4  O   UNL d   1      26.600 -12.974   2.617  0.00  0.00    -0.268 OA
ATOM      5  H   UNL d   1      28.767 -15.262   2.778  0.00  0.00     0.162 HD
BRANCH   3   6
ATOM      6  C   UNL d   1      28.011 -13.435   4.464  0.00  0.00     0.090 A 
ATOM      7  C   UNL d   1      28.386 -14.505   5.252  0.00  0.00     0.139 A 
ATOM      8  N   UNL d   1      28.799 -14.402   6.545  0.00  0.00    -0.234 NA
ATOM      9  C   UNL d   1      28.844 -13.174   7.082  0.00  0.00     0.189 A 
ATOM     10  N   UNL d   1      28.529 -12.064   6.408  0.00  0.00    -0.210 NA
ATOM     11  C   UNL d   1      28.129 -12.227   5.126  0.00  0.00     0.146 A 
ATOM     12 CL   UNL d   1      27.782 -10.690   4.417  0.00  0.00    -0.061 Cl
BRANCH   9  13
ATOM     13  S   UNL d   1      29.548 -12.968   8.697  0.00  0.00    -0.090 SA
BRANCH  13  14
ATOM     14  C   UNL d   1      29.215 -14.599   9.459  0.00  0.00     0.082 C 
BRANCH  14  15
ATOM     15  C   UNL d   1      28.070 -14.451  10.473  0.00  0.00     0.010 C 
BRANCH  15  16
ATOM     16  C   UNL d   1      27.825 -12.989  10.860  0.00  0.00    -0.004 C 
ATOM     17  C   UNL d   1      28.531 -12.640  12.164  0.00  0.00     0.005 C 
ENDBRANCH  15  16
ENDBRANCH  14  15
ENDBRANCH  13  14
ENDBRANCH   9  13
ENDBRANCH   3   6
ENDBRANCH   1   2
BRANCH   1  18
ATOM     18  C   UNL d   1      27.761 -16.564   0.689  0.00  0.00     0.238 C 
BRANCH  18  19
ATOM     19  C   UNL d   1      26.510 -17.015  -0.051  0.00  0.00    -0.026 A 
ATOM     20  C   UNL d   1      25.784 -16.120  -0.847  0.00  0.00     0.012 A 
ATOM     21  C   UNL d   1      24.467 -16.430  -1.198  0.00  0.00     0.037 A 
ATOM     22  C   UNL d   1      23.903 -17.661  -0.844  0.00  0.00     0.068 A 
ATOM     23  C   UNL d   1      24.649 -18.570  -0.101  0.00  0.00     0.037 A 
ATOM     24  C   UNL d   1      25.948 -18.263   0.267  0.00  0.00     0.012 A 
BRANCH  22  25
ATOM     25  O   UNL d   1      22.624 -17.884  -1.269  0.00  0.00    -0.356 OA
ATOM     26  C   UNL d   1      21.927 -18.941  -0.607  0.00  0.00     0.210 C 
ENDBRANCH  22  25
ENDBRANCH  18  19
BRANCH  18  27
ATOM     27  N   UNL d   1      29.067 -17.020  -0.088  0.00  0.00    -0.061 N 
ATOM     28  C   UNL d   1      28.838 -17.077  -1.599  0.00  0.00     0.236 C 
ATOM     29  C   UNL d   1      30.129 -17.443  -2.335  0.00  0.00     0.028 C 
ATOM     30  C   UNL d   1      31.229 -16.442  -2.010  0.00  0.00     0.003 C 
ATOM     31  C   UNL d   1      31.535 -16.566  -0.536  0.00  0.00     0.028 C 
ATOM     32  C   UNL d   1      30.310 -16.161   0.254  0.00  0.00     0.236 C 
ATOM     33  H   UNL d   1      29.280 -17.973   0.231  0.00  0.00     0.280 HD
ENDBRANCH  18  27
ENDBRANCH   1  18
TORSDOF 10
ENDMDL
MODEL 4
REMARK VINA RESULT:    -9.549      1.909      3.577
REMARK INTER + INTRA:         -13.779
REMARK INTER:                 -12.532
REMARK INTRA:                  -1.247
REMARK CONF_INDEPENDENT:        2.983
REMARK UNBOUND:                -1.247
REMARK  10 active torsions:
REMARK  status: ('A' for Active; 'I' for Inactive)
REMARK    1  A    between atoms: C_2  and  C_3 
REMARK    2  A    between atoms: C_3  and  C_4 
REMARK    3  A    between atoms: C_4  and  S_5 
REMARK    4  A    between atoms: S_5  and  C_6 
REMARK    5  A    between atoms: C_9  and  C_10 
REMARK       I    between atoms: C_10  and  N_12 
REMARK    6  A    between atoms: N_12  and  C_13 
REMARK    7  A    between atoms: C_13  and  C_14 
REMARK    8  A    between atoms: C_14  and  C_15 
REMARK    9  A    between atoms: C_14  and  N_23 
REMARK   10  A    between atoms: C_18  and  O_19 
ROOT
ATOM      1  C   UNL d   1      28.818 -13.400   0.856  0.00  0.00     0.161 C 
ENDROOT
BRANCH   1   2
ATOM      2  N   UNL d   1      27.768 -14.417   0.665  0.00  0.00    -0.354 N 
ATOM      3  C   UNL d   1      27.453 -15.004  -0.544  0.00  0.00     0.256 C 
ATOM      4  O   UNL d   1      28.029 -14.668  -1.579  0.00  0.00    -0.268 OA
ATOM      5  H   UNL d   1      27.335 -14.811   1.496  0.00  0.00     0.162 HD
BRANCH   3   6
ATOM      6  C   UNL d   1      26.379 -16.045  -0.581  0.00  0.00     0.090 A 
ATOM      7  C   UNL d   1      26.421 -17.113   0.293  0.00  0.00     0.139 A 
ATOM      8  N   UNL d   1      25.525 -18.139   0.300  0.00  0.00    -0.234 NA
ATOM      9  C   UNL d   1      24.537 -18.100  -0.607  0.00  0.00     0.189 A 
ATOM     10  N   UNL d   1      24.383 -17.105  -1.485  0.00  0.00    -0.210 NA
ATOM     11  C   UNL d   1      25.300 -16.112  -1.443  0.00  0.00     0.146 A 
ATOM     12 CL   UNL d   1      24.929 -14.916  -2.633  0.00  0.00    -0.061 Cl
BRANCH   9  13
ATOM     13  S   UNL d   1      23.245 -19.312  -0.520  0.00  0.00    -0.090 SA
BRANCH  13  14
ATOM     14  C   UNL d   1      21.757 -18.295  -0.837  0.00  0.00     0.082 C 
BRANCH  14  15
ATOM     15  C   UNL d   1      20.528 -19.215  -0.895  0.00  0.00     0.010 C 
BRANCH  15  16
ATOM     16  C   UNL d   1      20.298 -19.958   0.425  0.00  0.00    -0.004 C 
ATOM     17  C   UNL d   1      18.861 -20.450   0.536  0.00  0.00     0.005 C 
ENDBRANCH  15  16
ENDBRANCH  14  15
ENDBRANCH  13  14
ENDBRANCH   9  13
ENDBRANCH   3   6
ENDBRANCH   1   2
BRANCH   1  18
ATOM     18  C   UNL d   1      29.868 -13.833   1.945  0.00  0.00     0.238 C 
BRANCH  18  19
ATOM     19  C   UNL d   1      29.196 -13.873   3.310  0.00  0.00    -0.026 A 
ATOM     20  C   UNL d   1      28.125 -13.021   3.610  0.00  0.00     0.012 A 
ATOM     21  C   UNL d   1      27.780 -12.801   4.945  0.00  0.00     0.037 A 
ATOM     22  C   UNL d   1      28.426 -13.494   5.975  0.00  0.00     0.068 A 
ATOM     23  C   UNL d   1      29.451 -14.382   5.667  0.00  0.00     0.037 A 
ATOM     24  C   UNL d   1      29.813 -14.592   4.348  0.00  0.00     0.012 A 
BRANCH  22  25
ATOM     25  O   UNL d   1      27.987 -13.238   7.244  0.00  0.00    -0.356 OA
ATOM     26  C   UNL d   1      28.996 -12.863   8.183  0.00  0.00     0.210 C 
ENDBRANCH  22  25
ENDBRANCH  18  19
BRANCH  18  27
ATOM     27  N   UNL d   1      30.576 -15.216   1.626  0.00  0.00    -0.061 N 
ATOM     28  C   UNL d   1      30.554 -15.533   0.130  0.00  0.00     0.236 C 
ATOM     29  C   UNL d   1      31.308 -16.830  -0.166  0.00  0.00     0.028 C 
ATOM     30  C   UNL d   1      32.744 -16.736   0.327  0.00  0.00     0.003 C 
ATOM     31  C   UNL d   1      32.701 -16.608   1.832  0.00  0.00     0.028 C 
ATOM     32  C   UNL d   1      32.014 -15.309   2.192  0.00  0.00     0.236 C 
ATOM     33  H   UNL d   1      30.030 -15.942   2.105  0.00  0.00     0.280 HD
ENDBRANCH  18  27
ENDBRANCH   1  18
TORSDOF 10
ENDMDL
MODEL 5
REMARK VINA RESULT:    -8.926      3.693      8.235
REMARK INTER + INTRA:         -13.401
REMARK INTER:                 -11.909
REMARK INTRA:                  -1.492
REMARK CONF_INDEPENDENT:        2.983
REMARK UNBOUND:                -1.492
REMARK  10 active torsions:
REMARK  status: ('A' for Active; 'I' for Inactive)
REMARK    1  A    between atoms: C_2  and  C_3 
REMARK    2  A    between atoms: C_3  and  C_4 
REMARK    3  A    between atoms: C_4  and  S_5 
REMARK    4  A    between atoms: S_5  and  C_6 
REMARK    5  A    between atoms: C_9  and  C_10 
REMARK       I    between atoms: C_10  and  N_12 
REMARK    6  A    between atoms: N_12  and  C_13 
REMARK    7  A    between atoms: C_13  and  C_14 
REMARK    8  A    between atoms: C_14  and  C_15 
REMARK    9  A    between atoms: C_14  and  N_23 
REMARK   10  A    between atoms: C_18  and  O_19 
ROOT
ATOM      1  C   UNL d   1      28.498 -15.470  -0.273  0.00  0.00     0.161 C 
ENDROOT
BRANCH   1   2
ATOM      2  N   UNL d   1      28.570 -15.009   1.126  0.00  0.00    -0.354 N 
ATOM      3  C   UNL d   1      27.659 -14.160   1.721  0.00  0.00     0.256 C 
ATOM      4  O   UNL d   1      26.720 -13.690   1.080  0.00  0.00    -0.268 OA
ATOM      5  H   UNL d   1      29.258 -15.447   1.732  0.00  0.00     0.162 HD
BRANCH   3   6
ATOM      6  C   UNL d   1      27.846 -13.800   3.161  0.00  0.00     0.090 A 
ATOM      7  C   UNL d   1      28.153 -14.780   4.085  0.00  0.00     0.139 A 
ATOM      8  N   UNL d   1      28.285 -14.563   5.423  0.00  0.00    -0.234 NA
ATOM      9  C   UNL d   1      28.105 -13.309   5.865  0.00  0.00     0.189 A 
ATOM     10  N   UNL d   1      27.829 -12.278   5.061  0.00  0.00    -0.210 NA
ATOM     11  C   UNL d   1      27.713 -12.552   3.742  0.00  0.00     0.146 A 
ATOM     12 CL   UNL d   1      27.373 -11.102   2.866  0.00  0.00    -0.061 Cl
BRANCH   9  13
ATOM     13  S   UNL d   1      28.445 -12.942   7.566  0.00  0.00    -0.090 SA
BRANCH  13  14
ATOM     14  C   UNL d   1      29.838 -14.076   7.922  0.00  0.00     0.082 C 
BRANCH  14  15
ATOM     15  C   UNL d   1      29.905 -14.323   9.437  0.00  0.00     0.010 C 
BRANCH  15  16
ATOM     16  C   UNL d   1      28.573 -14.826  10.001  0.00  0.00    -0.004 C 
ATOM     17  C   UNL d   1      27.850 -13.727  10.768  0.00  0.00     0.005 C 
ENDBRANCH  15  16
ENDBRANCH  14  15
ENDBRANCH  13  14
ENDBRANCH   9  13
ENDBRANCH   3   6
ENDBRANCH   1   2
BRANCH   1  18
ATOM     18  C   UNL d   1      27.104 -15.153  -0.928  0.00  0.00     0.238 C 
BRANCH  18  19
ATOM     19  C   UNL d   1      27.186 -15.381  -2.431  0.00  0.00    -0.026 A 
ATOM     20  C   UNL d   1      28.291 -16.027  -3.001  0.00  0.00     0.012 A 
ATOM     21  C   UNL d   1      28.531 -15.890  -4.370  0.00  0.00     0.037 A 
ATOM     22  C   UNL d   1      27.631 -15.199  -5.189  0.00  0.00     0.068 A 
ATOM     23  C   UNL d   1      26.506 -14.607  -4.626  0.00  0.00     0.037 A 
ATOM     24  C   UNL d   1      26.269 -14.721  -3.267  0.00  0.00     0.012 A 
BRANCH  22  25
ATOM     25  O   UNL d   1      27.936 -15.156  -6.521  0.00  0.00    -0.356 OA
ATOM     26  C   UNL d   1      29.167 -14.512  -6.853  0.00  0.00     0.210 C 
ENDBRANCH  22  25
ENDBRANCH  18  19
BRANCH  18  27
ATOM     27  N   UNL d   1      25.907 -15.983  -0.299  0.00  0.00    -0.061 N 
ATOM     28  C   UNL d   1      24.666 -15.954  -1.192  0.00  0.00     0.236 C 
ATOM     29  C   UNL d   1      23.550 -16.823  -0.607  0.00  0.00     0.028 C 
ATOM     30  C   UNL d   1      24.030 -18.255  -0.425  0.00  0.00     0.003 C 
ATOM     31  C   UNL d   1      25.134 -18.237   0.606  0.00  0.00     0.028 C 
ATOM     32  C   UNL d   1      26.298 -17.437   0.062  0.00  0.00     0.236 C 
ATOM     33  H   UNL d   1      25.664 -15.522   0.586  0.00  0.00     0.280 HD
ENDBRANCH  18  27
ENDBRANCH   1  18
TORSDOF 10
ENDMDL
MODEL 6
REMARK VINA RESULT:    -8.920      3.588      4.868
REMARK INTER + INTRA:         -13.574
REMARK INTER:                 -11.903
REMARK INTRA:                  -1.671
REMARK CONF_INDEPENDENT:        2.983
REMARK UNBOUND:                -1.671
REMARK  10 active torsions:
REMARK  status: ('A' for Active; 'I' for Inactive)
REMARK    1  A    between atoms: C_2  and  C_3 
REMARK    2  A    between atoms: C_3  and  C_4 
REMARK    3  A    between atoms: C_4  and  S_5 
REMARK    4  A    between atoms: S_5  and  C_6 
REMARK    5  A    between atoms: C_9  and  C_10 
REMARK       I    between atoms: C_10  and  N_12 
REMARK    6  A    between atoms: N_12  and  C_13 
REMARK    7  A    between atoms: C_13  and  C_14 
REMARK    8  A    between atoms: C_14  and  C_15 
REMARK    9  A    between atoms: C_14  and  N_23 
REMARK   10  A    between atoms: C_18  and  O_19 
ROOT
ATOM      1  C   UNL d   1      28.304 -15.628   0.809  0.00  0.00     0.161 C 
ENDROOT
BRANCH   1   2
ATOM      2  N   UNL d   1      26.943 -16.034   0.413  0.00  0.00    -0.354 N 
ATOM      3  C   UNL d   1      26.555 -17.332   0.150  0.00  0.00     0.256 C 
ATOM      4  O   UNL d   1      27.367 -18.256   0.194  0.00  0.00    -0.268 OA
ATOM      5  H   UNL d   1      26.208 -15.333   0.465  0.00  0.00     0.162 HD
BRANCH   3   6
ATOM      6  C   UNL d   1      25.129 -17.597  -0.215  0.00  0.00     0.090 A 
ATOM      7  C   UNL d   1      24.377 -18.483   0.532  0.00  0.00     0.139 A 
ATOM      8  N   UNL d   1      23.092 -18.834   0.248  0.00  0.00    -0.234 NA
ATOM      9  C   UNL d   1      22.526 -18.276  -0.832  0.00  0.00     0.189 A 
ATOM     10  N   UNL d   1      23.147 -17.388  -1.614  0.00  0.00    -0.210 NA
ATOM     11  C   UNL d   1      24.420 -17.074  -1.281  0.00  0.00     0.146 A 
ATOM     12 CL   UNL d   1      25.049 -15.908  -2.389  0.00  0.00    -0.061 Cl
BRANCH   9  13
ATOM     13  S   UNL d   1      20.802 -18.559  -1.139  0.00  0.00    -0.090 SA
BRANCH  13  14
ATOM     14  C   UNL d   1      20.490 -20.070  -0.155  0.00  0.00     0.082 C 
BRANCH  14  15
ATOM     15  C   UNL d   1      18.981 -20.193   0.106  0.00  0.00     0.010 C 
BRANCH  15  16
ATOM     16  C   UNL d   1      18.659 -20.322   1.598  0.00  0.00    -0.004 C 
ATOM     17  C   UNL d   1      19.904 -20.107   2.449  0.00  0.00     0.005 C 
ENDBRANCH  15  16
ENDBRANCH  14  15
ENDBRANCH  13  14
ENDBRANCH   9  13
ENDBRANCH   3   6
ENDBRANCH   1   2
BRANCH   1  18
ATOM     18  C   UNL d   1      29.409 -16.460   0.059  0.00  0.00     0.238 C 
BRANCH  18  19
ATOM     19  C   UNL d   1      29.413 -16.087  -1.416  0.00  0.00    -0.026 A 
ATOM     20  C   UNL d   1      28.692 -14.978  -1.879  0.00  0.00     0.012 A 
ATOM     21  C   UNL d   1      28.396 -14.875  -3.240  0.00  0.00     0.037 A 
ATOM     22  C   UNL d   1      28.892 -15.812  -4.154  0.00  0.00     0.068 A 
ATOM     23  C   UNL d   1      29.655 -16.880  -3.695  0.00  0.00     0.037 A 
ATOM     24  C   UNL d   1      29.937 -17.001  -2.345  0.00  0.00     0.012 A 
BRANCH  22  25
ATOM     25  O   UNL d   1      28.580 -15.600  -5.467  0.00  0.00    -0.356 OA
ATOM     26  C   UNL d   1      27.560 -14.630  -5.711  0.00  0.00     0.210 C 
ENDBRANCH  22  25
ENDBRANCH  18  19
BRANCH  18  27
ATOM     27  N   UNL d   1      30.858 -16.293   0.684  0.00  0.00    -0.061 N 
ATOM     28  C   UNL d   1      31.791 -17.430   0.266  0.00  0.00     0.236 C 
ATOM     29  C   UNL d   1      33.203 -17.209   0.815  0.00  0.00     0.028 C 
ATOM     30  C   UNL d   1      33.757 -15.876   0.337  0.00  0.00     0.003 C 
ATOM     31  C   UNL d   1      32.898 -14.786   0.934  0.00  0.00     0.028 C 
ATOM     32  C   UNL d   1      31.495 -14.913   0.385  0.00  0.00     0.236 C 
ATOM     33  H   UNL d   1      30.745 -16.342   1.704  0.00  0.00     0.280 HD
ENDBRANCH  18  27
ENDBRANCH   1  18
TORSDOF 10
ENDMDL
MODEL 7
REMARK VINA RESULT:    -8.549      1.072      1.534
REMARK INTER + INTRA:         -13.794
REMARK INTER:                 -11.532
REMARK INTRA:                  -2.262
REMARK CONF_INDEPENDENT:        2.983
REMARK UNBOUND:                -2.262
REMARK  10 active torsions:
REMARK  status: ('A' for Active; 'I' for Inactive)
REMARK    1  A    between atoms: C_2  and  C_3 
REMARK    2  A    between atoms: C_3  and  C_4 
REMARK    3  A    between atoms: C_4  and  S_5 
REMARK    4  A    between atoms: S_5  and  C_6 
REMARK    5  A    between atoms: C_9  and  C_10 
REMARK       I    between atoms: C_10  and  N_12 
REMARK    6  A    between atoms: N_12  and  C_13 
REMARK    7  A    between atoms: C_13  and  C_14 
REMARK    8  A    between atoms: C_14  and  C_15 
REMARK    9  A    between atoms: C_14  and  N_23 
REMARK   10  A    between atoms: C_18  and  O_19 
ROOT
ATOM      1  C   UNL d   1      29.173 -13.052   0.444  0.00  0.00     0.161 C 
ENDROOT
BRANCH   1   2
ATOM      2  N   UNL d   1      28.100 -14.036   0.214  0.00  0.00    -0.354 N 
ATOM      3  C   UNL d   1      28.257 -15.405   0.304  0.00  0.00     0.256 C 
ATOM      4  O   UNL d   1      29.356 -15.901   0.551  0.00  0.00    -0.268 OA
ATOM      5  H   UNL d   1      27.152 -13.685   0.114  0.00  0.00     0.162 HD
BRANCH   3   6
ATOM      6  C   UNL d   1      27.068 -16.282   0.070  0.00  0.00     0.090 A 
ATOM      7  C   UNL d   1      26.915 -17.447   0.796  0.00  0.00     0.139 A 
ATOM      8  N   UNL d   1      25.902 -18.339   0.618  0.00  0.00    -0.234 NA
ATOM      9  C   UNL d   1      24.994 -18.058  -0.329  0.00  0.00     0.189 A 
ATOM     10  N   UNL d   1      25.027 -16.951  -1.075  0.00  0.00    -0.210 NA
ATOM     11  C   UNL d   1      26.053 -16.100  -0.851  0.00  0.00     0.146 A 
ATOM     12 CL   UNL d   1      25.919 -14.726  -1.891  0.00  0.00    -0.061 Cl
BRANCH   9  13
ATOM     13  S   UNL d   1      23.560 -19.092  -0.475  0.00  0.00    -0.090 SA
BRANCH  13  14
ATOM     14  C   UNL d   1      22.220 -17.853  -0.623  0.00  0.00     0.082 C 
BRANCH  14  15
ATOM     15  C   UNL d   1      20.896 -18.582  -0.896  0.00  0.00     0.010 C 
BRANCH  15  16
ATOM     16  C   UNL d   1      20.382 -19.331   0.337  0.00  0.00    -0.004 C 
ATOM     17  C   UNL d   1      19.345 -20.378  -0.048  0.00  0.00     0.005 C 
ENDBRANCH  15  16
ENDBRANCH  14  15
ENDBRANCH  13  14
ENDBRANCH   9  13
ENDBRANCH   3   6
ENDBRANCH   1   2
BRANCH   1  18
ATOM     18  C   UNL d   1      29.319 -12.682   1.967  0.00  0.00     0.238 C 
BRANCH  18  19
ATOM     19  C   UNL d   1      28.295 -11.618   2.331  0.00  0.00    -0.026 A 
ATOM     20  C   UNL d   1      27.065 -11.545   1.663  0.00  0.00     0.012 A 
ATOM     21  C   UNL d   1      26.318 -10.367   1.735  0.00  0.00     0.037 A 
ATOM     22  C   UNL d   1      26.735  -9.301   2.541  0.00  0.00     0.068 A 
ATOM     23  C   UNL d   1      27.929  -9.402   3.247  0.00  0.00     0.037 A 
ATOM     24  C   UNL d   1      28.686 -10.558   3.167  0.00  0.00     0.012 A 
BRANCH  22  25
ATOM     25  O   UNL d   1      25.913  -8.210   2.574  0.00  0.00    -0.356 OA
ATOM     26  C   UNL d   1      26.560  -6.944   2.443  0.00  0.00     0.210 C 
ENDBRANCH  22  25
ENDBRANCH  18  19
BRANCH  18  27
ATOM     27  N   UNL d   1      29.199 -13.933   2.935  0.00  0.00    -0.061 N 
ATOM     28  C   UNL d   1      30.396 -14.035   3.881  0.00  0.00     0.236 C 
ATOM     29  C   UNL d   1      30.224 -15.201   4.858  0.00  0.00     0.028 C 
ATOM     30  C   UNL d   1      28.939 -15.041   5.656  0.00  0.00     0.003 C 
ATOM     31  C   UNL d   1      27.786 -15.132   4.684  0.00  0.00     0.028 C 
ATOM     32  C   UNL d   1      27.865 -13.969   3.721  0.00  0.00     0.236 C 
ATOM     33  H   UNL d   1      29.203 -14.768   2.337  0.00  0.00     0.280 HD
ENDBRANCH  18  27
ENDBRANCH   1  18
TORSDOF 10
ENDMDL
MODEL 8
REMARK VINA RESULT:    -8.172      2.126      3.241
REMARK INTER + INTRA:         -13.347
REMARK INTER:                 -11.155
REMARK INTRA:                  -2.192
REMARK CONF_INDEPENDENT:        2.983
REMARK UNBOUND:                -2.192
REMARK  10 active torsions:
REMARK  status: ('A' for Active; 'I' for Inactive)
REMARK    1  A    between atoms: C_2  and  C_3 
REMARK    2  A    between atoms: C_3  and  C_4 
REMARK    3  A    between atoms: C_4  and  S_5 
REMARK    4  A    between atoms: S_5  and  C_6 
REMARK    5  A    between atoms: C_9  and  C_10 
REMARK       I    between atoms: C_10  and  N_12 
REMARK    6  A    between atoms: N_12  and  C_13 
REMARK    7  A    between atoms: C_13  and  C_14 
REMARK    8  A    between atoms: C_14  and  C_15 
REMARK    9  A    between atoms: C_14  and  N_23 
REMARK   10  A    between atoms: C_18  and  O_19 
ROOT
ATOM      1  C   UNL d   1      30.070 -15.669  -1.618  0.00  0.00     0.161 C 
ENDROOT
BRANCH   1   2
ATOM      2  N   UNL d   1      28.618 -15.908  -1.524  0.00  0.00    -0.354 N 
ATOM      3  C   UNL d   1      28.039 -16.987  -0.887  0.00  0.00     0.256 C 
ATOM      4  O   UNL d   1      28.732 -17.867  -0.377  0.00  0.00    -0.268 OA
ATOM      5  H   UNL d   1      27.997 -15.164  -1.830  0.00  0.00     0.162 HD
BRANCH   3   6
ATOM      6  C   UNL d   1      26.547 -17.084  -0.848  0.00  0.00     0.090 A 
ATOM      7  C   UNL d   1      25.926 -17.790   0.164  0.00  0.00     0.139 A 
ATOM      8  N   UNL d   1      24.582 -17.984   0.256  0.00  0.00    -0.234 NA
ATOM      9  C   UNL d   1      23.815 -17.448  -0.705  0.00  0.00     0.189 A 
ATOM     10  N   UNL d   1      24.302 -16.726  -1.718  0.00  0.00    -0.210 NA
ATOM     11  C   UNL d   1      25.643 -16.562  -1.755  0.00  0.00     0.146 A 
ATOM     12 CL   UNL d   1      26.082 -15.594  -3.117  0.00  0.00    -0.061 Cl
BRANCH   9  13
ATOM     13  S   UNL d   1      22.051 -17.516  -0.532  0.00  0.00    -0.090 SA
BRANCH  13  14
ATOM     14  C   UNL d   1      21.768 -19.309  -0.296  0.00  0.00     0.082 C 
BRANCH  14  15
ATOM     15  C   UNL d   1      20.325 -19.644  -0.704  0.00  0.00     0.010 C 
BRANCH  15  16
ATOM     16  C   UNL d   1      19.644 -20.587   0.293  0.00  0.00    -0.004 C 
ATOM     17  C   UNL d   1      19.704 -20.028   1.708  0.00  0.00     0.005 C 
ENDBRANCH  15  16
ENDBRANCH  14  15
ENDBRANCH  13  14
ENDBRANCH   9  13
ENDBRANCH   3   6
ENDBRANCH   1   2
BRANCH   1  18
ATOM     18  C   UNL d   1      30.707 -15.341  -0.218  0.00  0.00     0.238 C 
BRANCH  18  19
ATOM     19  C   UNL d   1      29.729 -14.512   0.603  0.00  0.00    -0.026 A 
ATOM     20  C   UNL d   1      28.722 -15.128   1.358  0.00  0.00     0.012 A 
ATOM     21  C   UNL d   1      27.628 -14.371   1.783  0.00  0.00     0.037 A 
ATOM     22  C   UNL d   1      27.575 -12.992   1.547  0.00  0.00     0.068 A 
ATOM     23  C   UNL d   1      28.606 -12.376   0.846  0.00  0.00     0.037 A 
ATOM     24  C   UNL d   1      29.686 -13.122   0.404  0.00  0.00     0.012 A 
BRANCH  22  25
ATOM     25  O   UNL d   1      26.482 -12.336   2.039  0.00  0.00    -0.356 OA
ATOM     26  C   UNL d   1      26.640 -10.930   2.231  0.00  0.00     0.210 C 
ENDBRANCH  22  25
ENDBRANCH  18  19
BRANCH  18  27
ATOM     27  N   UNL d   1      31.164 -16.630   0.586  0.00  0.00    -0.061 N 
ATOM     28  C   UNL d   1      31.768 -17.689  -0.337  0.00  0.00     0.236 C 
ATOM     29  C   UNL d   1      32.273 -18.891   0.465  0.00  0.00     0.028 C 
ATOM     30  C   UNL d   1      33.301 -18.448   1.496  0.00  0.00     0.003 C 
ATOM     31  C   UNL d   1      32.596 -17.548   2.484  0.00  0.00     0.028 C 
ATOM     32  C   UNL d   1      32.120 -16.308   1.761  0.00  0.00     0.236 C 
ATOM     33  H   UNL d   1      30.316 -17.030   1.006  0.00  0.00     0.280 HD
ENDBRANCH  18  27
ENDBRANCH   1  18
TORSDOF 10
ENDMDL
MODEL 9
REMARK VINA RESULT:    -8.006      4.036      6.785
REMARK INTER + INTRA:         -13.261
REMARK INTER:                 -10.989
REMARK INTRA:                  -2.272
REMARK CONF_INDEPENDENT:        2.983
REMARK UNBOUND:                -2.272
REMARK  10 active torsions:
REMARK  status: ('A' for Active; 'I' for Inactive)
REMARK    1  A    between atoms: C_2  and  C_3 
REMARK    2  A    between atoms: C_3  and  C_4 
REMARK    3  A    between atoms: C_4  and  S_5 
REMARK    4  A    between atoms: S_5  and  C_6 
REMARK    5  A    between atoms: C_9  and  C_10 
REMARK       I    between atoms: C_10  and  N_12 
REMARK    6  A    between atoms: N_12  and  C_13 
REMARK    7  A    between atoms: C_13  and  C_14 
REMARK    8  A    between atoms: C_14  and  C_15 
REMARK    9  A    between atoms: C_14  and  N_23 
REMARK   10  A    between atoms: C_18  and  O_19 
ROOT
ATOM      1  C   UNL d   1      28.926 -15.081  -1.429  0.00  0.00     0.161 C 
ENDROOT
BRANCH   1   2
ATOM      2  N   UNL d   1      27.776 -15.974  -1.197  0.00  0.00    -0.354 N 
ATOM      3  C   UNL d   1      26.496 -15.548  -0.909  0.00  0.00     0.256 C 
ATOM      4  O   UNL d   1      26.240 -14.350  -0.787  0.00  0.00    -0.268 OA
ATOM      5  H   UNL d   1      27.902 -16.964  -1.390  0.00  0.00     0.162 HD
BRANCH   3   6
ATOM      6  C   UNL d   1      25.421 -16.572  -0.725  0.00  0.00     0.090 A 
ATOM      7  C   UNL d   1      24.147 -16.332  -1.202  0.00  0.00     0.139 A 
ATOM      8  N   UNL d   1      23.089 -17.172  -1.034  0.00  0.00    -0.234 NA
ATOM      9  C   UNL d   1      23.309 -18.311  -0.359  0.00  0.00     0.189 A 
ATOM     10  N   UNL d   1      24.503 -18.660   0.127  0.00  0.00    -0.210 NA
ATOM     11  C   UNL d   1      25.517 -17.788  -0.074  0.00  0.00     0.146 A 
ATOM     12 CL   UNL d   1      26.977 -18.414   0.606  0.00  0.00    -0.061 Cl
BRANCH   9  13
ATOM     13  S   UNL d   1      22.013 -19.519  -0.272  0.00  0.00    -0.090 SA
BRANCH  13  14
ATOM     14  C   UNL d   1      20.578 -18.574  -0.903  0.00  0.00     0.082 C 
BRANCH  14  15
ATOM     15  C   UNL d   1      19.287 -19.315  -0.520  0.00  0.00     0.010 C 
BRANCH  15  16
ATOM     16  C   UNL d   1      19.103 -19.412   0.998  0.00  0.00    -0.004 C 
ATOM     17  C   UNL d   1      19.377 -20.825   1.496  0.00  0.00     0.005 C 
ENDBRANCH  15  16
ENDBRANCH  14  15
ENDBRANCH  13  14
ENDBRANCH   9  13
ENDBRANCH   3   6
ENDBRANCH   1   2
BRANCH   1  18
ATOM     18  C   UNL d   1      28.857 -14.383  -2.837  0.00  0.00     0.238 C 
BRANCH  18  19
ATOM     19  C   UNL d   1      29.099 -15.417  -3.928  0.00  0.00    -0.026 A 
ATOM     20  C   UNL d   1      29.481 -16.726  -3.606  0.00  0.00     0.012 A 
ATOM     21  C   UNL d   1      30.058 -17.531  -4.592  0.00  0.00     0.037 A 
ATOM     22  C   UNL d   1      30.168 -17.079  -5.912  0.00  0.00     0.068 A 
ATOM     23  C   UNL d   1      29.734 -15.799  -6.237  0.00  0.00     0.037 A 
ATOM     24  C   UNL d   1      29.178 -14.987  -5.264  0.00  0.00     0.012 A 
BRANCH  22  25
ATOM     25  O   UNL d   1      30.709 -17.958  -6.808  0.00  0.00    -0.356 OA
ATOM     26  C   UNL d   1      31.006 -19.258  -6.297  0.00  0.00     0.210 C 
ENDBRANCH  22  25
ENDBRANCH  18  19
BRANCH  18  27
ATOM     27  N   UNL d   1      27.497 -13.606  -3.091  0.00  0.00    -0.061 N 
ATOM     28  C   UNL d   1      27.734 -12.258  -3.775  0.00  0.00     0.236 C 
ATOM     29  C   UNL d   1      26.407 -11.560  -4.081  0.00  0.00     0.028 C 
ATOM     30  C   UNL d   1      25.530 -12.443  -4.956  0.00  0.00     0.003 C 
ATOM     31  C   UNL d   1      25.182 -13.675  -4.154  0.00  0.00     0.028 C 
ATOM     32  C   UNL d   1      26.451 -14.445  -3.865  0.00  0.00     0.236 C 
ATOM     33  H   UNL d   1      27.089 -13.419  -2.168  0.00  0.00     0.280 HD
ENDBRANCH  18  27
ENDBRANCH   1  18
TORSDOF 10
ENDMDL
