MODEL 1
REMARK VINA RESULT:    -9.492      0.000      0.000
REMARK INTER + INTRA:         -13.202
REMARK INTER:                 -11.580
REMARK INTRA:                  -1.622
REMARK CONF_INDEPENDENT:        2.088
REMARK UNBOUND:                -1.622
REMARK  7 active torsions:
REMARK  status: ('A' for Active; 'I' for Inactive)
REMARK       I    between atoms: C_2  and  N_4 
REMARK    1  A    between atoms: N_4  and  C_5 
REMARK    2  A    between atoms: C_11  and  N_12 
REMARK    3  A    between atoms: N_12  and  C_13 
REMARK    4  A    between atoms: C_13  and  C_14 
REMARK    5  A    between atoms: C_18  and  C_19 
REMARK       I    between atoms: C_19  and  N_21 
REMARK    6  A    between atoms: N_21  and  C_22 
REMARK    7  A    between atoms: C_22  and  C_23 
ROOT
ATOM      1  C   UNL d   1      26.098 -16.539  -1.111  0.00  0.00    -0.040 A 
ATOM      2  C   UNL d   1      26.737 -17.063   0.010  0.00  0.00     0.009 A 
ATOM      3  C   UNL d   1      26.138 -18.102   0.706  0.00  0.00     0.002 A 
ATOM      4  C   UNL d   1      24.878 -18.572   0.313  0.00  0.00     0.017 A 
ATOM      5  C   UNL d   1      24.234 -18.064  -0.828  0.00  0.00     0.032 A 
ATOM      6  C   UNL d   1      24.861 -17.048  -1.538  0.00  0.00     0.026 A 
ENDROOT
BRANCH   1   7
ATOM      7  C   UNL d   1      26.771 -15.504  -1.942  0.00  0.00     0.158 C 
BRANCH   7   8
ATOM      8  N   UNL d   1      28.129 -15.834  -2.263  0.00  0.00    -0.384 N 
ATOM      9  H   UNL d   1      28.726 -16.164  -1.512  0.00  0.00     0.160 HD
BRANCH   8  10
ATOM     10  C   UNL d   1      28.605 -15.846  -3.570  0.00  0.00     0.057 A 
ATOM     11  C   UNL d   1      29.648 -16.756  -3.857  0.00  0.00     0.055 A 
ATOM     12  C   UNL d   1      30.199 -16.849  -5.136  0.00  0.00     0.036 A 
ATOM     13  C   UNL d   1      29.736 -16.035  -6.159  0.00  0.00     0.026 A 
ATOM     14 CL   UNL d   1      31.460 -17.973  -5.462  0.00  0.00    -0.084 Cl
ATOM     15  C   UNL d   1      28.692 -15.150  -5.912  0.00  0.00     0.033 A 
ATOM     16  C   UNL d   1      28.112 -15.048  -4.643  0.00  0.00     0.061 A 
BRANCH  16  17
ATOM     17  N   UNL d   1      27.065 -14.097  -4.508  0.00  0.00    -0.326 N 
ATOM     18  C   UNL d   1      25.727 -14.423  -4.648  0.00  0.00     0.218 C 
ATOM     19  C   UNL d   1      24.781 -13.316  -4.243  0.00  0.00     0.117 C 
ATOM     20  O   UNL d   1      25.298 -15.516  -5.012  0.00  0.00    -0.274 OA
ATOM     21  H   UNL d   1      27.270 -13.215  -4.079  0.00  0.00     0.169 HD
ENDBRANCH  16  17
ENDBRANCH   8  10
ENDBRANCH   7   8
ENDBRANCH   1   7
BRANCH   5  22
ATOM     22  C   UNL d   1      22.926 -18.642  -1.262  0.00  0.00     0.252 C 
ATOM     23  O   UNL d   1      22.874 -19.310  -2.297  0.00  0.00    -0.268 OA
ATOM     24  N   UNL d   1      21.806 -18.401  -0.488  0.00  0.00    -0.351 N 
ATOM     25  H   UNL d   1      21.827 -17.839   0.348  0.00  0.00     0.163 HD
BRANCH  24  26
ATOM     26  C   UNL d   1      20.516 -18.913  -0.890  0.00  0.00     0.187 C 
BRANCH  26  27
ATOM     27  C   UNL d   1      19.846 -19.605   0.243  0.00  0.00     0.070 A 
ATOM     28  C   UNL d   1      18.805 -20.509   0.256  0.00  0.00     0.036 A 
ATOM     29  C   UNL d   1      18.560 -20.833   1.607  0.00  0.00     0.027 A 
ATOM     30  C   UNL d   1      19.454 -20.093   2.345  0.00  0.00     0.142 A 
ATOM     31  O   UNL d   1      20.250 -19.347   1.525  0.00  0.00    -0.325 OA
ENDBRANCH  26  27
ENDBRANCH  24  26
ENDBRANCH   5  22
TORSDOF 7
ENDMDL
MODEL 2
REMARK VINA RESULT:    -8.770      3.421      4.804
REMARK INTER + INTRA:         -12.864
REMARK INTER:                 -10.858
REMARK INTRA:                  -2.005
REMARK CONF_INDEPENDENT:        2.088
REMARK UNBOUND:                -2.005
REMARK  7 active torsions:
REMARK  status: ('A' for Active; 'I' for Inactive)
REMARK       I    between atoms: C_2  and  N_4 
REMARK    1  A    between atoms: N_4  and  C_5 
REMARK    2  A    between atoms: C_11  and  N_12 
REMARK    3  A    between atoms: N_12  and  C_13 
REMARK    4  A    between atoms: C_13  and  C_14 
REMARK    5  A    between atoms: C_18  and  C_19 
REMARK       I    between atoms: C_19  and  N_21 
REMARK    6  A    between atoms: N_21  and  C_22 
REMARK    7  A    between atoms: C_22  and  C_23 
ROOT
ATOM      1  C   UNL d   1      25.528 -16.098  -0.876  0.00  0.00    -0.040 A 
ATOM      2  C   UNL d   1      26.391 -16.747   0.004  0.00  0.00     0.009 A 
ATOM      3  C   UNL d   1      26.049 -18.001   0.485  0.00  0.00     0.002 A 
ATOM      4  C   UNL d   1      24.821 -18.575   0.131  0.00  0.00     0.017 A 
ATOM      5  C   UNL d   1      23.951 -17.938  -0.771  0.00  0.00     0.032 A 
ATOM      6  C   UNL d   1      24.322 -16.698  -1.274  0.00  0.00     0.026 A 
ENDROOT
BRANCH   1   7
ATOM      7  C   UNL d   1      25.923 -14.804  -1.496  0.00  0.00     0.158 C 
BRANCH   7   8
ATOM      8  N   UNL d   1      27.277 -14.432  -1.211  0.00  0.00    -0.384 N 
ATOM      9  H   UNL d   1      27.943 -14.446  -1.977  0.00  0.00     0.160 HD
BRANCH   8  10
ATOM     10  C   UNL d   1      27.670 -13.932   0.026  0.00  0.00     0.057 A 
ATOM     11  C   UNL d   1      27.038 -12.745   0.460  0.00  0.00     0.055 A 
ATOM     12  C   UNL d   1      27.359 -12.159   1.686  0.00  0.00     0.036 A 
ATOM     13  C   UNL d   1      28.322 -12.730   2.505  0.00  0.00     0.026 A 
ATOM     14 CL   UNL d   1      26.566 -10.719   2.197  0.00  0.00    -0.084 Cl
ATOM     15  C   UNL d   1      28.939 -13.912   2.116  0.00  0.00     0.033 A 
ATOM     16  C   UNL d   1      28.626 -14.528   0.899  0.00  0.00     0.061 A 
BRANCH  16  17
ATOM     17  N   UNL d   1      29.335 -15.723   0.602  0.00  0.00    -0.326 N 
ATOM     18  C   UNL d   1      29.981 -15.937  -0.604  0.00  0.00     0.218 C 
ATOM     19  C   UNL d   1      30.855 -17.171  -0.619  0.00  0.00     0.117 C 
ATOM     20  O   UNL d   1      29.924 -15.194  -1.580  0.00  0.00    -0.274 OA
ATOM     21  H   UNL d   1      29.573 -16.340   1.355  0.00  0.00     0.169 HD
ENDBRANCH  16  17
ENDBRANCH   8  10
ENDBRANCH   7   8
ENDBRANCH   1   7
BRANCH   5  22
ATOM     22  C   UNL d   1      22.685 -18.615  -1.185  0.00  0.00     0.252 C 
ATOM     23  O   UNL d   1      22.681 -19.325  -2.194  0.00  0.00    -0.268 OA
ATOM     24  N   UNL d   1      21.548 -18.415  -0.426  0.00  0.00    -0.351 N 
ATOM     25  H   UNL d   1      21.529 -17.820   0.387  0.00  0.00     0.163 HD
BRANCH  24  26
ATOM     26  C   UNL d   1      20.295 -19.023  -0.811  0.00  0.00     0.187 C 
BRANCH  26  27
ATOM     27  C   UNL d   1      19.660 -19.705   0.348  0.00  0.00     0.070 A 
ATOM     28  C   UNL d   1      19.916 -19.609   1.700  0.00  0.00     0.036 A 
ATOM     29  C   UNL d   1      19.026 -20.489   2.350  0.00  0.00     0.027 A 
ATOM     30  C   UNL d   1      18.288 -21.088   1.355  0.00  0.00     0.142 A 
ATOM     31  O   UNL d   1      18.659 -20.612   0.131  0.00  0.00    -0.325 OA
ENDBRANCH  26  27
ENDBRANCH  24  26
ENDBRANCH   5  22
TORSDOF 7
ENDMDL
MODEL 3
REMARK VINA RESULT:    -8.559      2.803      3.832
REMARK INTER + INTRA:         -12.720
REMARK INTER:                 -10.647
REMARK INTRA:                  -2.074
REMARK CONF_INDEPENDENT:        2.088
REMARK UNBOUND:                -2.074
REMARK  7 active torsions:
REMARK  status: ('A' for Active; 'I' for Inactive)
REMARK       I    between atoms: C_2  and  N_4 
REMARK    1  A    between atoms: N_4  and  C_5 
REMARK    2  A    between atoms: C_11  and  N_12 
REMARK    3  A    between atoms: N_12  and  C_13 
REMARK    4  A    between atoms: C_13  and  C_14 
REMARK    5  A    between atoms: C_18  and  C_19 
REMARK       I    between atoms: C_19  and  N_21 
REMARK    6  A    between atoms: N_21  and  C_22 
REMARK    7  A    between atoms: C_22  and  C_23 
ROOT
ATOM      1  C   UNL d   1      25.226 -14.402  -2.800  0.00  0.00    -0.040 A 
ATOM      2  C   UNL d   1      26.191 -13.684  -2.097  0.00  0.00     0.009 A 
ATOM      3  C   UNL d   1      26.712 -14.216  -0.928  0.00  0.00     0.002 A 
ATOM      4  C   UNL d   1      26.225 -15.434  -0.436  0.00  0.00     0.017 A 
ATOM      5  C   UNL d   1      25.266 -16.176  -1.147  0.00  0.00     0.032 A 
ATOM      6  C   UNL d   1      24.778 -15.650  -2.336  0.00  0.00     0.026 A 
ENDROOT
BRANCH   1   7
ATOM      7  C   UNL d   1      24.735 -13.910  -4.115  0.00  0.00     0.158 C 
BRANCH   7   8
ATOM      8  N   UNL d   1      25.180 -12.582  -4.422  0.00  0.00    -0.384 N 
ATOM      9  H   UNL d   1      24.781 -11.815  -3.892  0.00  0.00     0.160 HD
BRANCH   8  10
ATOM     10  C   UNL d   1      26.219 -12.330  -5.312  0.00  0.00     0.057 A 
ATOM     11  C   UNL d   1      27.169 -13.362  -5.487  0.00  0.00     0.055 A 
ATOM     12  C   UNL d   1      28.251 -13.212  -6.356  0.00  0.00     0.036 A 
ATOM     13  C   UNL d   1      28.423 -12.031  -7.063  0.00  0.00     0.026 A 
ATOM     14 CL   UNL d   1      29.388 -14.488  -6.560  0.00  0.00    -0.084 Cl
ATOM     15  C   UNL d   1      27.490 -11.010  -6.932  0.00  0.00     0.033 A 
ATOM     16  C   UNL d   1      26.388 -11.140  -6.079  0.00  0.00     0.061 A 
BRANCH  16  17
ATOM     17  N   UNL d   1      25.511 -10.024  -6.014  0.00  0.00    -0.326 N 
ATOM     18  C   UNL d   1      25.173  -9.398  -4.826  0.00  0.00     0.218 C 
ATOM     19  C   UNL d   1      24.414  -8.104  -5.011  0.00  0.00     0.117 C 
ATOM     20  O   UNL d   1      25.484  -9.791  -3.704  0.00  0.00    -0.274 OA
ATOM     21  H   UNL d   1      25.304  -9.526  -6.859  0.00  0.00     0.169 HD
ENDBRANCH  16  17
ENDBRANCH   8  10
ENDBRANCH   7   8
ENDBRANCH   1   7
BRANCH   5  22
ATOM     22  C   UNL d   1      24.826 -17.508  -0.631  0.00  0.00     0.252 C 
ATOM     23  O   UNL d   1      25.588 -18.159   0.089  0.00  0.00    -0.268 OA
ATOM     24  N   UNL d   1      23.576 -17.976  -0.986  0.00  0.00    -0.351 N 
ATOM     25  H   UNL d   1      22.951 -17.468  -1.592  0.00  0.00     0.163 HD
BRANCH  24  26
ATOM     26  C   UNL d   1      23.126 -19.273  -0.537  0.00  0.00     0.187 C 
BRANCH  26  27
ATOM     27  C   UNL d   1      21.641 -19.324  -0.471  0.00  0.00     0.070 A 
ATOM     28  C   UNL d   1      20.790 -19.399   0.611  0.00  0.00     0.036 A 
ATOM     29  C   UNL d   1      19.476 -19.434   0.099  0.00  0.00     0.027 A 
ATOM     30  C   UNL d   1      19.600 -19.398  -1.270  0.00  0.00     0.142 A 
ATOM     31  O   UNL d   1      20.914 -19.322  -1.631  0.00  0.00    -0.325 OA
ENDBRANCH  26  27
ENDBRANCH  24  26
ENDBRANCH   5  22
TORSDOF 7
ENDMDL
MODEL 4
REMARK VINA RESULT:    -8.448      2.065      3.095
REMARK INTER + INTRA:         -13.017
REMARK INTER:                 -10.536
REMARK INTRA:                  -2.481
REMARK CONF_INDEPENDENT:        2.088
REMARK UNBOUND:                -2.481
REMARK  7 active torsions:
REMARK  status: ('A' for Active; 'I' for Inactive)
REMARK       I    between atoms: C_2  and  N_4 
REMARK    1  A    between atoms: N_4  and  C_5 
REMARK    2  A    between atoms: C_11  and  N_12 
REMARK    3  A    between atoms: N_12  and  C_13 
REMARK    4  A    between atoms: C_13  and  C_14 
REMARK    5  A    between atoms: C_18  and  C_19 
REMARK       I    between atoms: C_19  and  N_21 
REMARK    6  A    between atoms: N_21  and  C_22 
REMARK    7  A    between atoms: C_22  and  C_23 
ROOT
ATOM      1  C   UNL d   1      25.665 -16.364  -1.138  0.00  0.00    -0.040 A 
ATOM      2  C   UNL d   1      26.380 -16.880  -0.060  0.00  0.00     0.009 A 
ATOM      3  C   UNL d   1      25.889 -17.990   0.609  0.00  0.00     0.002 A 
ATOM      4  C   UNL d   1      24.657 -18.543   0.235  0.00  0.00     0.017 A 
ATOM      5  C   UNL d   1      23.936 -18.043  -0.864  0.00  0.00     0.032 A 
ATOM      6  C   UNL d   1      24.458 -16.953  -1.548  0.00  0.00     0.026 A 
ENDROOT
BRANCH   1   7
ATOM      7  C   UNL d   1      26.226 -15.246  -1.945  0.00  0.00     0.158 C 
BRANCH   7   8
ATOM      8  N   UNL d   1      27.541 -14.856  -1.529  0.00  0.00    -0.384 N 
ATOM      9  H   UNL d   1      27.629 -14.022  -0.958  0.00  0.00     0.160 HD
BRANCH   8  10
ATOM     10  C   UNL d   1      28.664 -15.643  -1.764  0.00  0.00     0.057 A 
ATOM     11  C   UNL d   1      28.899 -16.030  -3.103  0.00  0.00     0.055 A 
ATOM     12  C   UNL d   1      29.996 -16.821  -3.447  0.00  0.00     0.036 A 
ATOM     13  C   UNL d   1      30.881 -17.255  -2.471  0.00  0.00     0.026 A 
ATOM     14 CL   UNL d   1      30.266 -17.269  -5.087  0.00  0.00    -0.084 Cl
ATOM     15  C   UNL d   1      30.690 -16.866  -1.150  0.00  0.00     0.033 A 
ATOM     16  C   UNL d   1      29.606 -16.062  -0.780  0.00  0.00     0.061 A 
BRANCH  16  17
ATOM     17  N   UNL d   1      29.506 -15.744   0.601  0.00  0.00    -0.326 N 
ATOM     18  C   UNL d   1      29.159 -14.486   1.063  0.00  0.00     0.218 C 
ATOM     19  C   UNL d   1      28.892 -14.432   2.550  0.00  0.00     0.117 C 
ATOM     20  O   UNL d   1      29.014 -13.488   0.360  0.00  0.00    -0.274 OA
ATOM     21  H   UNL d   1      29.461 -16.494   1.264  0.00  0.00     0.169 HD
ENDBRANCH  16  17
ENDBRANCH   8  10
ENDBRANCH   7   8
ENDBRANCH   1   7
BRANCH   5  22
ATOM     22  C   UNL d   1      22.664 -18.707  -1.281  0.00  0.00     0.252 C 
ATOM     23  O   UNL d   1      22.627 -19.327  -2.347  0.00  0.00    -0.268 OA
ATOM     24  N   UNL d   1      21.559 -18.595  -0.459  0.00  0.00    -0.351 N 
ATOM     25  H   UNL d   1      21.566 -18.074   0.403  0.00  0.00     0.163 HD
BRANCH  24  26
ATOM     26  C   UNL d   1      20.300 -19.192  -0.842  0.00  0.00     0.187 C 
BRANCH  26  27
ATOM     27  C   UNL d   1      19.668 -19.881   0.314  0.00  0.00     0.070 A 
ATOM     28  C   UNL d   1      18.588 -20.736   0.372  0.00  0.00     0.036 A 
ATOM     29  C   UNL d   1      18.410 -21.082   1.728  0.00  0.00     0.027 A 
ATOM     30  C   UNL d   1      19.382 -20.403   2.425  0.00  0.00     0.142 A 
ATOM     31  O   UNL d   1      20.161 -19.674   1.574  0.00  0.00    -0.325 OA
ENDBRANCH  26  27
ENDBRANCH  24  26
ENDBRANCH   5  22
TORSDOF 7
ENDMDL
MODEL 5
REMARK VINA RESULT:    -8.375      2.139      3.017
REMARK INTER + INTRA:         -12.698
REMARK INTER:                 -10.464
REMARK INTRA:                  -2.235
REMARK CONF_INDEPENDENT:        2.088
REMARK UNBOUND:                -2.235
REMARK  7 active torsions:
REMARK  status: ('A' for Active; 'I' for Inactive)
REMARK       I    between atoms: C_2  and  N_4 
REMARK    1  A    between atoms: N_4  and  C_5 
REMARK    2  A    between atoms: C_11  and  N_12 
REMARK    3  A    between atoms: N_12  and  C_13 
REMARK    4  A    between atoms: C_13  and  C_14 
REMARK    5  A    between atoms: C_18  and  C_19 
REMARK       I    between atoms: C_19  and  N_21 
REMARK    6  A    between atoms: N_21  and  C_22 
REMARK    7  A    between atoms: C_22  and  C_23 
ROOT
ATOM      1  C   UNL d   1      25.541 -16.246  -1.017  0.00  0.00    -0.040 A 
ATOM      2  C   UNL d   1      26.320 -16.818  -0.014  0.00  0.00     0.009 A 
ATOM      3  C   UNL d   1      25.903 -18.000   0.575  0.00  0.00     0.002 A 
ATOM      4  C   UNL d   1      24.682 -18.575   0.201  0.00  0.00     0.017 A 
ATOM      5  C   UNL d   1      23.897 -18.018  -0.823  0.00  0.00     0.032 A 
ATOM      6  C   UNL d   1      24.344 -16.852  -1.431  0.00  0.00     0.026 A 
ENDROOT
BRANCH   1   7
ATOM      7  C   UNL d   1      26.022 -15.041  -1.746  0.00  0.00     0.158 C 
BRANCH   7   8
ATOM      8  N   UNL d   1      27.205 -15.283  -2.518  0.00  0.00    -0.384 N 
ATOM      9  H   UNL d   1      27.853 -15.989  -2.183  0.00  0.00     0.160 HD
BRANCH   8  10
ATOM     10  C   UNL d   1      27.423 -14.691  -3.758  0.00  0.00     0.057 A 
ATOM     11  C   UNL d   1      26.684 -13.520  -4.040  0.00  0.00     0.055 A 
ATOM     12  C   UNL d   1      26.826 -12.848  -5.256  0.00  0.00     0.036 A 
ATOM     13  C   UNL d   1      27.697 -13.327  -6.223  0.00  0.00     0.026 A 
ATOM     14 CL   UNL d   1      25.923 -11.417  -5.570  0.00  0.00    -0.084 Cl
ATOM     15  C   UNL d   1      28.457 -14.461  -5.961  0.00  0.00     0.033 A 
ATOM     16  C   UNL d   1      28.344 -15.145  -4.746  0.00  0.00     0.061 A 
BRANCH  16  17
ATOM     17  N   UNL d   1      29.159 -16.300  -4.600  0.00  0.00    -0.326 N 
ATOM     18  C   UNL d   1      29.856 -16.590  -3.439  0.00  0.00     0.218 C 
ATOM     19  C   UNL d   1      30.471 -17.971  -3.424  0.00  0.00     0.117 C 
ATOM     20  O   UNL d   1      29.948 -15.849  -2.464  0.00  0.00    -0.274 OA
ATOM     21  H   UNL d   1      29.058 -17.046  -5.262  0.00  0.00     0.169 HD
ENDBRANCH  16  17
ENDBRANCH   8  10
ENDBRANCH   7   8
ENDBRANCH   1   7
BRANCH   5  22
ATOM     22  C   UNL d   1      22.637 -18.701  -1.249  0.00  0.00     0.252 C 
ATOM     23  O   UNL d   1      22.619 -19.328  -2.310  0.00  0.00    -0.268 OA
ATOM     24  N   UNL d   1      21.523 -18.599  -0.438  0.00  0.00    -0.351 N 
ATOM     25  H   UNL d   1      21.514 -18.072   0.421  0.00  0.00     0.163 HD
BRANCH  24  26
ATOM     26  C   UNL d   1      20.276 -19.215  -0.829  0.00  0.00     0.187 C 
BRANCH  26  27
ATOM     27  C   UNL d   1      19.645 -19.910   0.324  0.00  0.00     0.070 A 
ATOM     28  C   UNL d   1      18.605 -20.815   0.371  0.00  0.00     0.036 A 
ATOM     29  C   UNL d   1      18.406 -21.142   1.729  0.00  0.00     0.027 A 
ATOM     30  C   UNL d   1      19.326 -20.404   2.437  0.00  0.00     0.142 A 
ATOM     31  O   UNL d   1      20.093 -19.656   1.593  0.00  0.00    -0.325 OA
ENDBRANCH  26  27
ENDBRANCH  24  26
ENDBRANCH   5  22
TORSDOF 7
ENDMDL
MODEL 6
REMARK VINA RESULT:    -7.738      2.893      4.131
REMARK INTER + INTRA:         -12.595
REMARK INTER:                  -9.826
REMARK INTRA:                  -2.769
REMARK CONF_INDEPENDENT:        2.088
REMARK UNBOUND:                -2.769
REMARK  7 active torsions:
REMARK  status: ('A' for Active; 'I' for Inactive)
REMARK       I    between atoms: C_2  and  N_4 
REMARK    1  A    between atoms: N_4  and  C_5 
REMARK    2  A    between atoms: C_11  and  N_12 
REMARK    3  A    between atoms: N_12  and  C_13 
REMARK    4  A    between atoms: C_13  and  C_14 
REMARK    5  A    between atoms: C_18  and  C_19 
REMARK       I    between atoms: C_19  and  N_21 
REMARK    6  A    between atoms: N_21  and  C_22 
REMARK    7  A    between atoms: C_22  and  C_23 
ROOT
ATOM      1  C   UNL d   1      25.230 -14.361  -2.593  0.00  0.00    -0.040 A 
ATOM      2  C   UNL d   1      26.283 -13.747  -1.921  0.00  0.00     0.009 A 
ATOM      3  C   UNL d   1      26.876 -14.400  -0.851  0.00  0.00     0.002 A 
ATOM      4  C   UNL d   1      26.375 -15.637  -0.423  0.00  0.00     0.017 A 
ATOM      5  C   UNL d   1      25.325 -16.275  -1.106  0.00  0.00     0.032 A 
ATOM      6  C   UNL d   1      24.764 -15.626  -2.198  0.00  0.00     0.026 A 
ENDROOT
BRANCH   1   7
ATOM      7  C   UNL d   1      24.652 -13.735  -3.814  0.00  0.00     0.158 C 
BRANCH   7   8
ATOM      8  N   UNL d   1      25.571 -13.691  -4.913  0.00  0.00    -0.384 N 
ATOM      9  H   UNL d   1      25.494 -14.410  -5.624  0.00  0.00     0.160 HD
BRANCH   8  10
ATOM     10  C   UNL d   1      26.458 -12.636  -5.103  0.00  0.00     0.057 A 
ATOM     11  C   UNL d   1      25.899 -11.399  -5.497  0.00  0.00     0.055 A 
ATOM     12  C   UNL d   1      26.700 -10.277  -5.715  0.00  0.00     0.036 A 
ATOM     13  C   UNL d   1      28.076 -10.357  -5.557  0.00  0.00     0.026 A 
ATOM     14 CL   UNL d   1      25.993  -8.780  -6.184  0.00  0.00    -0.084 Cl
ATOM     15  C   UNL d   1      28.650 -11.553  -5.142  0.00  0.00     0.033 A 
ATOM     16  C   UNL d   1      27.869 -12.689  -4.903  0.00  0.00     0.061 A 
BRANCH  16  17
ATOM     17  N   UNL d   1      28.569 -13.857  -4.501  0.00  0.00    -0.326 N 
ATOM     18  C   UNL d   1      28.299 -15.114  -5.015  0.00  0.00     0.218 C 
ATOM     19  C   UNL d   1      29.308 -16.168  -4.618  0.00  0.00     0.117 C 
ATOM     20  O   UNL d   1      27.370 -15.386  -5.772  0.00  0.00    -0.274 OA
ATOM     21  H   UNL d   1      29.433 -13.752  -4.002  0.00  0.00     0.169 HD
ENDBRANCH  16  17
ENDBRANCH   8  10
ENDBRANCH   7   8
ENDBRANCH   1   7
BRANCH   5  22
ATOM     22  C   UNL d   1      24.868 -17.628  -0.667  0.00  0.00     0.252 C 
ATOM     23  O   UNL d   1      25.705 -18.506  -0.444  0.00  0.00    -0.268 OA
ATOM     24  N   UNL d   1      23.512 -17.858  -0.533  0.00  0.00    -0.351 N 
ATOM     25  H   UNL d   1      22.814 -17.159  -0.734  0.00  0.00     0.163 HD
BRANCH  24  26
ATOM     26  C   UNL d   1      23.026 -19.162  -0.145  0.00  0.00     0.187 C 
BRANCH  26  27
ATOM     27  C   UNL d   1      21.545 -19.231  -0.263  0.00  0.00     0.070 A 
ATOM     28  C   UNL d   1      20.651 -20.183   0.179  0.00  0.00     0.036 A 
ATOM     29  C   UNL d   1      19.366 -19.754  -0.217  0.00  0.00     0.027 A 
ATOM     30  C   UNL d   1      19.551 -18.572  -0.895  0.00  0.00     0.142 A 
ATOM     31  O   UNL d   1      20.874 -18.237  -0.923  0.00  0.00    -0.325 OA
ENDBRANCH  26  27
ENDBRANCH  24  26
ENDBRANCH   5  22
TORSDOF 7
ENDMDL
MODEL 7
REMARK VINA RESULT:    -7.214      4.251      8.142
REMARK INTER + INTRA:         -12.534
REMARK INTER:                  -9.302
REMARK INTRA:                  -3.232
REMARK CONF_INDEPENDENT:        2.088
REMARK UNBOUND:                -3.232
REMARK  7 active torsions:
REMARK  status: ('A' for Active; 'I' for Inactive)
REMARK       I    between atoms: C_2  and  N_4 
REMARK    1  A    between atoms: N_4  and  C_5 
REMARK    2  A    between atoms: C_11  and  N_12 
REMARK    3  A    between atoms: N_12  and  C_13 
REMARK    4  A    between atoms: C_13  and  C_14 
REMARK    5  A    between atoms: C_18  and  C_19 
REMARK       I    between atoms: C_19  and  N_21 
REMARK    6  A    between atoms: N_21  and  C_22 
REMARK    7  A    between atoms: C_22  and  C_23 
ROOT
ATOM      1  C   UNL d   1      26.919 -14.154  -2.194  0.00  0.00    -0.040 A 
ATOM      2  C   UNL d   1      25.573 -14.037  -2.529  0.00  0.00     0.009 A 
ATOM      3  C   UNL d   1      25.155 -14.417  -3.795  0.00  0.00     0.002 A 
ATOM      4  C   UNL d   1      26.093 -14.857  -4.738  0.00  0.00     0.017 A 
ATOM      5  C   UNL d   1      27.451 -14.997  -4.405  0.00  0.00     0.032 A 
ATOM      6  C   UNL d   1      27.851 -14.647  -3.122  0.00  0.00     0.026 A 
ENDROOT
BRANCH   1   7
ATOM      7  C   UNL d   1      27.375 -13.862  -0.808  0.00  0.00     0.158 C 
BRANCH   7   8
ATOM      8  N   UNL d   1      26.629 -14.568   0.192  0.00  0.00    -0.384 N 
ATOM      9  H   UNL d   1      26.284 -14.040   0.986  0.00  0.00     0.160 HD
BRANCH   8  10
ATOM     10  C   UNL d   1      26.253 -15.899   0.042  0.00  0.00     0.057 A 
ATOM     11  C   UNL d   1      24.875 -16.153  -0.145  0.00  0.00     0.055 A 
ATOM     12  C   UNL d   1      24.392 -17.453  -0.304  0.00  0.00     0.036 A 
ATOM     13  C   UNL d   1      25.262 -18.533  -0.272  0.00  0.00     0.026 A 
ATOM     14 CL   UNL d   1      22.710 -17.733  -0.542  0.00  0.00    -0.084 Cl
ATOM     15  C   UNL d   1      26.625 -18.311  -0.118  0.00  0.00     0.033 A 
ATOM     16  C   UNL d   1      27.138 -17.017   0.030  0.00  0.00     0.061 A 
BRANCH  16  17
ATOM     17  N   UNL d   1      28.545 -16.917   0.198  0.00  0.00    -0.326 N 
ATOM     18  C   UNL d   1      29.432 -16.896  -0.865  0.00  0.00     0.218 C 
ATOM     19  C   UNL d   1      30.852 -16.558  -0.470  0.00  0.00     0.117 C 
ATOM     20  O   UNL d   1      29.131 -17.075  -2.043  0.00  0.00    -0.274 OA
ATOM     21  H   UNL d   1      28.903 -16.626   1.088  0.00  0.00     0.169 HD
ENDBRANCH  16  17
ENDBRANCH   8  10
ENDBRANCH   7   8
ENDBRANCH   1   7
BRANCH   5  22
ATOM     22  C   UNL d   1      28.411 -15.542  -5.413  0.00  0.00     0.252 C 
ATOM     23  O   UNL d   1      28.307 -15.200  -6.593  0.00  0.00    -0.268 OA
ATOM     24  N   UNL d   1      29.385 -16.426  -4.989  0.00  0.00    -0.351 N 
ATOM     25  H   UNL d   1      29.469 -16.734  -4.033  0.00  0.00     0.163 HD
BRANCH  24  26
ATOM     26  C   UNL d   1      30.310 -17.003  -5.937  0.00  0.00     0.187 C 
BRANCH  26  27
ATOM     27  C   UNL d   1      30.564 -18.435  -5.623  0.00  0.00     0.070 A 
ATOM     28  C   UNL d   1      30.819 -19.506  -6.452  0.00  0.00     0.036 A 
ATOM     29  C   UNL d   1      30.970 -20.639  -5.625  0.00  0.00     0.027 A 
ATOM     30  C   UNL d   1      30.780 -20.198  -4.336  0.00  0.00     0.142 A 
ATOM     31  O   UNL d   1      30.541 -18.854  -4.320  0.00  0.00    -0.325 OA
ENDBRANCH  26  27
ENDBRANCH  24  26
ENDBRANCH   5  22
TORSDOF 7
ENDMDL
MODEL 8
REMARK VINA RESULT:    -6.931      3.528      5.942
REMARK INTER + INTRA:         -12.527
REMARK INTER:                  -9.020
REMARK INTRA:                  -3.508
REMARK CONF_INDEPENDENT:        2.088
REMARK UNBOUND:                -3.508
REMARK  7 active torsions:
REMARK  status: ('A' for Active; 'I' for Inactive)
REMARK       I    between atoms: C_2  and  N_4 
REMARK    1  A    between atoms: N_4  and  C_5 
REMARK    2  A    between atoms: C_11  and  N_12 
REMARK    3  A    between atoms: N_12  and  C_13 
REMARK    4  A    between atoms: C_13  and  C_14 
REMARK    5  A    between atoms: C_18  and  C_19 
REMARK       I    between atoms: C_19  and  N_21 
REMARK    6  A    between atoms: N_21  and  C_22 
REMARK    7  A    between atoms: C_22  and  C_23 
ROOT
ATOM      1  C   UNL d   1      28.706 -14.373  -6.170  0.00  0.00    -0.040 A 
ATOM      2  C   UNL d   1      28.716 -13.043  -6.582  0.00  0.00     0.009 A 
ATOM      3  C   UNL d   1      27.698 -12.198  -6.169  0.00  0.00     0.002 A 
ATOM      4  C   UNL d   1      26.644 -12.701  -5.395  0.00  0.00     0.017 A 
ATOM      5  C   UNL d   1      26.633 -14.037  -4.958  0.00  0.00     0.032 A 
ATOM      6  C   UNL d   1      27.678 -14.863  -5.348  0.00  0.00     0.026 A 
ENDROOT
BRANCH   1   7
ATOM      7  C   UNL d   1      29.845 -15.270  -6.503  0.00  0.00     0.158 C 
BRANCH   7   8
ATOM      8  N   UNL d   1      30.301 -16.042  -5.384  0.00  0.00    -0.384 N 
ATOM      9  H   UNL d   1      30.371 -15.577  -4.485  0.00  0.00     0.160 HD
BRANCH   8  10
ATOM     10  C   UNL d   1      30.514 -17.415  -5.461  0.00  0.00     0.057 A 
ATOM     11  C   UNL d   1      30.571 -17.977  -6.756  0.00  0.00     0.055 A 
ATOM     12  C   UNL d   1      30.780 -19.344  -6.945  0.00  0.00     0.036 A 
ATOM     13  C   UNL d   1      30.928 -20.188  -5.854  0.00  0.00     0.026 A 
ATOM     14 CL   UNL d   1      30.857 -20.002  -8.534  0.00  0.00    -0.084 Cl
ATOM     15  C   UNL d   1      30.905 -19.658  -4.570  0.00  0.00     0.033 A 
ATOM     16  C   UNL d   1      30.711 -18.289  -4.352  0.00  0.00     0.061 A 
BRANCH  16  17
ATOM     17  N   UNL d   1      30.689 -17.868  -2.996  0.00  0.00    -0.326 N 
ATOM     18  C   UNL d   1      29.725 -17.014  -2.486  0.00  0.00     0.218 C 
ATOM     19  C   UNL d   1      29.760 -16.881  -0.981  0.00  0.00     0.117 C 
ATOM     20  O   UNL d   1      28.865 -16.440  -3.150  0.00  0.00    -0.274 OA
ATOM     21  H   UNL d   1      31.243 -18.369  -2.328  0.00  0.00     0.169 HD
ENDBRANCH  16  17
ENDBRANCH   8  10
ENDBRANCH   7   8
ENDBRANCH   1   7
BRANCH   5  22
ATOM     22  C   UNL d   1      25.531 -14.518  -4.070  0.00  0.00     0.252 C 
ATOM     23  O   UNL d   1      24.391 -14.075  -4.226  0.00  0.00    -0.268 OA
ATOM     24  N   UNL d   1      25.829 -15.443  -3.087  0.00  0.00    -0.351 N 
ATOM     25  H   UNL d   1      26.759 -15.798  -2.931  0.00  0.00     0.163 HD
BRANCH  24  26
ATOM     26  C   UNL d   1      24.801 -15.909  -2.185  0.00  0.00     0.187 C 
BRANCH  26  27
ATOM     27  C   UNL d   1      25.375 -16.806  -1.148  0.00  0.00     0.070 A 
ATOM     28  C   UNL d   1      24.763 -17.532  -0.148  0.00  0.00     0.036 A 
ATOM     29  C   UNL d   1      25.785 -18.200   0.559  0.00  0.00     0.027 A 
ATOM     30  C   UNL d   1      26.967 -17.829  -0.039  0.00  0.00     0.142 A 
ATOM     31  O   UNL d   1      26.730 -16.986  -1.086  0.00  0.00    -0.325 OA
ENDBRANCH  26  27
ENDBRANCH  24  26
ENDBRANCH   5  22
TORSDOF 7
ENDMDL
MODEL 9
REMARK VINA RESULT:    -6.740      3.860      7.381
REMARK INTER + INTRA:         -12.541
REMARK INTER:                  -8.828
REMARK INTRA:                  -3.713
REMARK CONF_INDEPENDENT:        2.088
REMARK UNBOUND:                -3.713
REMARK  7 active torsions:
REMARK  status: ('A' for Active; 'I' for Inactive)
REMARK       I    between atoms: C_2  and  N_4 
REMARK    1  A    between atoms: N_4  and  C_5 
REMARK    2  A    between atoms: C_11  and  N_12 
REMARK    3  A    between atoms: N_12  and  C_13 
REMARK    4  A    between atoms: C_13  and  C_14 
REMARK    5  A    between atoms: C_18  and  C_19 
REMARK       I    between atoms: C_19  and  N_21 
REMARK    6  A    between atoms: N_21  and  C_22 
REMARK    7  A    between atoms: C_22  and  C_23 
ROOT
ATOM      1  C   UNL d   1      25.776 -17.589  -0.300  0.00  0.00    -0.040 A 
ATOM      2  C   UNL d   1      24.498 -17.744   0.232  0.00  0.00     0.009 A 
ATOM      3  C   UNL d   1      23.437 -17.066  -0.347  0.00  0.00     0.002 A 
ATOM      4  C   UNL d   1      23.666 -16.191  -1.418  0.00  0.00     0.017 A 
ATOM      5  C   UNL d   1      24.948 -16.042  -1.975  0.00  0.00     0.032 A 
ATOM      6  C   UNL d   1      25.997 -16.755  -1.409  0.00  0.00     0.026 A 
ENDROOT
BRANCH   1   7
ATOM      7  C   UNL d   1      26.911 -18.392   0.228  0.00  0.00     0.158 C 
BRANCH   7   8
ATOM      8  N   UNL d   1      28.154 -17.679   0.229  0.00  0.00    -0.384 N 
ATOM      9  H   UNL d   1      29.011 -18.221   0.191  0.00  0.00     0.160 HD
BRANCH   8  10
ATOM     10  C   UNL d   1      28.220 -16.292   0.144  0.00  0.00     0.057 A 
ATOM     11  C   UNL d   1      27.738 -15.564   1.256  0.00  0.00     0.055 A 
ATOM     12  C   UNL d   1      27.757 -14.169   1.273  0.00  0.00     0.036 A 
ATOM     13  C   UNL d   1      28.245 -13.461   0.184  0.00  0.00     0.026 A 
ATOM     14 CL   UNL d   1      27.174 -13.307   2.644  0.00  0.00    -0.084 Cl
ATOM     15  C   UNL d   1      28.752 -14.151  -0.911  0.00  0.00     0.033 A 
ATOM     16  C   UNL d   1      28.758 -15.550  -0.948  0.00  0.00     0.061 A 
BRANCH  16  17
ATOM     17  N   UNL d   1      29.285 -16.143  -2.127  0.00  0.00    -0.326 N 
ATOM     18  C   UNL d   1      30.162 -17.214  -2.106  0.00  0.00     0.218 C 
ATOM     19  C   UNL d   1      30.414 -17.825  -3.465  0.00  0.00     0.117 C 
ATOM     20  O   UNL d   1      30.669 -17.694  -1.095  0.00  0.00    -0.274 OA
ATOM     21  H   UNL d   1      28.846 -15.939  -3.004  0.00  0.00     0.169 HD
ENDBRANCH  16  17
ENDBRANCH   8  10
ENDBRANCH   7   8
ENDBRANCH   1   7
BRANCH   5  22
ATOM     22  C   UNL d   1      25.142 -15.160  -3.166  0.00  0.00     0.252 C 
ATOM     23  O   UNL d   1      24.224 -14.416  -3.523  0.00  0.00    -0.268 OA
ATOM     24  N   UNL d   1      26.347 -15.212  -3.839  0.00  0.00    -0.351 N 
ATOM     25  H   UNL d   1      27.098 -15.829  -3.574  0.00  0.00     0.163 HD
BRANCH  24  26
ATOM     26  C   UNL d   1      26.563 -14.401  -5.015  0.00  0.00     0.187 C 
BRANCH  26  27
ATOM     27  C   UNL d   1      27.873 -14.719  -5.644  0.00  0.00     0.070 A 
ATOM     28  C   UNL d   1      28.531 -14.128  -6.701  0.00  0.00     0.036 A 
ATOM     29  C   UNL d   1      29.733 -14.842  -6.888  0.00  0.00     0.027 A 
ATOM     30  C   UNL d   1      29.733 -15.842  -5.944  0.00  0.00     0.142 A 
ATOM     31  O   UNL d   1      28.608 -15.773  -5.173  0.00  0.00    -0.325 OA
ENDBRANCH  26  27
ENDBRANCH  24  26
ENDBRANCH   5  22
TORSDOF 7
ENDMDL
