MODEL 1
REMARK VINA RESULT:    -8.503      0.000      0.000
REMARK INTER + INTRA:          -9.790
REMARK INTER:                  -9.398
REMARK INTRA:                  -0.391
REMARK CONF_INDEPENDENT:        0.895
REMARK UNBOUND:                -0.391
REMARK  3 active torsions:
REMARK  status: ('A' for Active; 'I' for Inactive)
REMARK    1  A    between atoms: C_4  and  N_5 
REMARK    2  A    between atoms: N_5  and  C_6 
REMARK    3  A    between atoms: C_16  and  C_17 
ROOT
ATOM      1  O   UNL d   1      21.742 -16.269  -0.895  0.00  0.00    -0.265 OA
ATOM      2  C   UNL d   1      22.755 -16.951  -0.769  0.00  0.00     0.291 A 
ATOM      3  N   UNL d   1      24.010 -16.457  -0.969  0.00  0.00    -0.151 N 
ATOM      4  C   UNL d   1      25.130 -17.223  -0.791  0.00  0.00     0.726 A 
ATOM      5  N   UNL d   1      25.027 -18.462  -0.406  0.00  0.00     0.043 NA
ATOM      6  N   UNL d   1      23.786 -19.075  -0.163  0.00  0.00    -0.128 NA
ATOM      7  C   UNL d   1      22.693 -18.398  -0.347  0.00  0.00     0.158 A 
ATOM      8  H   UNL d   1      24.064 -15.489  -1.236  0.00  0.00     0.188 HD
ENDROOT
BRANCH   4   9
ATOM      9  N   UNL d   1      26.346 -16.603  -1.028  0.00  0.00    -0.188 N 
ATOM     10  H   UNL d   1      27.099 -16.670  -0.359  0.00  0.00     0.184 HD
BRANCH   9  11
ATOM     11  C   UNL d   1      26.677 -15.992  -2.257  0.00  0.00     0.051 C 
ATOM     12  C   UNL d   1      25.663 -15.520  -3.104  0.00  0.00     0.033 C 
ATOM     13  C   UNL d   1      25.953 -15.038  -4.381  0.00  0.00     0.046 C 
ATOM     14  C   UNL d   1      27.249 -15.136  -4.866  0.00  0.00     0.138 C 
ATOM     15  F   UNL d   1      27.484 -14.817  -6.147  0.00  0.00    -0.204 F 
ATOM     16  C   UNL d   1      28.275 -15.575  -4.034  0.00  0.00     0.074 C 
ATOM     17 CL   UNL d   1      29.875 -15.751  -4.655  0.00  0.00    -0.081 Cl
ATOM     18  C   UNL d   1      28.006 -15.927  -2.705  0.00  0.00     0.057 C 
ENDBRANCH   9  11
ENDBRANCH   4   9
BRANCH   7  19
ATOM     19  C   UNL d   1      21.367 -19.022  -0.100  0.00  0.00     0.000 A 
ATOM     20  C   UNL d   1      20.489 -19.275  -1.160  0.00  0.00     0.014 A 
ATOM     21  C   UNL d   1      19.182 -19.700  -0.896  0.00  0.00     0.001 A 
ATOM     22  C   UNL d   1      18.787 -19.976   0.413  0.00  0.00     0.000 A 
ATOM     23  C   UNL d   1      19.703 -19.844   1.457  0.00  0.00     0.001 A 
ATOM     24  C   UNL d   1      20.979 -19.326   1.209  0.00  0.00     0.014 A 
ENDBRANCH   7  19
TORSDOF 3
ENDMDL
MODEL 2
REMARK VINA RESULT:    -8.434      1.164      1.857
REMARK INTER + INTRA:          -9.749
REMARK INTER:                  -9.328
REMARK INTRA:                  -0.421
REMARK CONF_INDEPENDENT:        0.895
REMARK UNBOUND:                -0.421
REMARK  3 active torsions:
REMARK  status: ('A' for Active; 'I' for Inactive)
REMARK    1  A    between atoms: C_4  and  N_5 
REMARK    2  A    between atoms: N_5  and  C_6 
REMARK    3  A    between atoms: C_16  and  C_17 
ROOT
ATOM      1  O   UNL d   1      21.789 -16.236  -0.895  0.00  0.00    -0.265 OA
ATOM      2  C   UNL d   1      22.764 -16.952  -0.684  0.00  0.00     0.291 A 
ATOM      3  N   UNL d   1      24.048 -16.518  -0.834  0.00  0.00    -0.151 N 
ATOM      4  C   UNL d   1      25.123 -17.321  -0.563  0.00  0.00     0.726 A 
ATOM      5  N   UNL d   1      24.947 -18.536  -0.133  0.00  0.00     0.043 NA
ATOM      6  N   UNL d   1      23.670 -19.087   0.066  0.00  0.00    -0.128 NA
ATOM      7  C   UNL d   1      22.618 -18.376  -0.207  0.00  0.00     0.158 A 
ATOM      8  H   UNL d   1      24.158 -15.566  -1.138  0.00  0.00     0.188 HD
ENDROOT
BRANCH   4   9
ATOM      9  N   UNL d   1      26.376 -16.760  -0.757  0.00  0.00    -0.188 N 
ATOM     10  H   UNL d   1      27.090 -16.835  -0.048  0.00  0.00     0.184 HD
BRANCH   9  11
ATOM     11  C   UNL d   1      26.795 -16.210  -1.987  0.00  0.00     0.051 C 
ATOM     12  C   UNL d   1      28.131 -16.338  -2.396  0.00  0.00     0.033 C 
ATOM     13  C   UNL d   1      28.603 -15.688  -3.539  0.00  0.00     0.046 C 
ATOM     14  C   UNL d   1      27.769 -14.809  -4.213  0.00  0.00     0.138 C 
ATOM     15  F   UNL d   1      28.279 -14.072  -5.211  0.00  0.00    -0.204 F 
ATOM     16  C   UNL d   1      26.433 -14.687  -3.841  0.00  0.00     0.074 C 
ATOM     17 CL   UNL d   1      25.412 -13.552  -4.644  0.00  0.00    -0.081 Cl
ATOM     18  C   UNL d   1      25.923 -15.447  -2.780  0.00  0.00     0.057 C 
ENDBRANCH   9  11
ENDBRANCH   4   9
BRANCH   7  19
ATOM     19  C   UNL d   1      21.256 -18.934  -0.008  0.00  0.00     0.000 A 
ATOM     20  C   UNL d   1      20.822 -19.325   1.264  0.00  0.00     0.014 A 
ATOM     21  C   UNL d   1      19.609 -20.007   1.408  0.00  0.00     0.001 A 
ATOM     22  C   UNL d   1      18.780 -20.201   0.304  0.00  0.00     0.000 A 
ATOM     23  C   UNL d   1      19.156 -19.701  -0.943  0.00  0.00     0.001 A 
ATOM     24  C   UNL d   1      20.411 -19.106  -1.111  0.00  0.00     0.014 A 
ENDBRANCH   7  19
TORSDOF 3
ENDMDL
MODEL 3
REMARK VINA RESULT:    -8.347      1.976      2.340
REMARK INTER + INTRA:          -9.673
REMARK INTER:                  -9.242
REMARK INTRA:                  -0.431
REMARK CONF_INDEPENDENT:        0.895
REMARK UNBOUND:                -0.431
REMARK  3 active torsions:
REMARK  status: ('A' for Active; 'I' for Inactive)
REMARK    1  A    between atoms: C_4  and  N_5 
REMARK    2  A    between atoms: N_5  and  C_6 
REMARK    3  A    between atoms: C_16  and  C_17 
ROOT
ATOM      1  O   UNL d   1      23.654 -19.994  -0.497  0.00  0.00    -0.265 OA
ATOM      2  C   UNL d   1      23.516 -18.779  -0.605  0.00  0.00     0.291 A 
ATOM      3  N   UNL d   1      24.549 -17.939  -0.903  0.00  0.00    -0.151 N 
ATOM      4  C   UNL d   1      24.370 -16.591  -1.052  0.00  0.00     0.726 A 
ATOM      5  N   UNL d   1      23.187 -16.065  -0.926  0.00  0.00     0.043 NA
ATOM      6  N   UNL d   1      22.048 -16.833  -0.627  0.00  0.00    -0.128 NA
ATOM      7  C   UNL d   1      22.172 -18.113  -0.446  0.00  0.00     0.158 A 
ATOM      8  H   UNL d   1      25.448 -18.375  -1.025  0.00  0.00     0.188 HD
ENDROOT
BRANCH   4   9
ATOM      9  N   UNL d   1      25.501 -15.849  -1.353  0.00  0.00    -0.188 N 
ATOM     10  H   UNL d   1      26.350 -15.961  -0.819  0.00  0.00     0.184 HD
BRANCH   9  11
ATOM     11  C   UNL d   1      25.607 -15.030  -2.498  0.00  0.00     0.051 C 
ATOM     12  C   UNL d   1      25.899 -15.601  -3.746  0.00  0.00     0.033 C 
ATOM     13  C   UNL d   1      26.144 -14.805  -4.866  0.00  0.00     0.046 C 
ATOM     14  C   UNL d   1      26.217 -13.427  -4.718  0.00  0.00     0.138 C 
ATOM     15  F   UNL d   1      26.608 -12.685  -5.764  0.00  0.00    -0.204 F 
ATOM     16  C   UNL d   1      25.904 -12.838  -3.496  0.00  0.00     0.074 C 
ATOM     17 CL   UNL d   1      26.050 -11.131  -3.296  0.00  0.00    -0.081 Cl
ATOM     18  C   UNL d   1      25.520 -13.632  -2.406  0.00  0.00     0.057 C 
ENDBRANCH   9  11
ENDBRANCH   4   9
BRANCH   7  19
ATOM     19  C   UNL d   1      20.985 -18.948  -0.127  0.00  0.00     0.000 A 
ATOM     20  C   UNL d   1      20.089 -19.330  -1.132  0.00  0.00     0.014 A 
ATOM     21  C   UNL d   1      18.891 -19.967  -0.793  0.00  0.00     0.001 A 
ATOM     22  C   UNL d   1      18.636 -20.319   0.532  0.00  0.00     0.000 A 
ATOM     23  C   UNL d   1      19.587 -20.049   1.517  0.00  0.00     0.001 A 
ATOM     24  C   UNL d   1      20.741 -19.325   1.198  0.00  0.00     0.014 A 
ENDBRANCH   7  19
TORSDOF 3
ENDMDL
MODEL 4
REMARK VINA RESULT:    -7.746      2.392      2.633
REMARK INTER + INTRA:          -9.121
REMARK INTER:                  -8.641
REMARK INTRA:                  -0.480
REMARK CONF_INDEPENDENT:        0.895
REMARK UNBOUND:                -0.480
REMARK  3 active torsions:
REMARK  status: ('A' for Active; 'I' for Inactive)
REMARK    1  A    between atoms: C_4  and  N_5 
REMARK    2  A    between atoms: N_5  and  C_6 
REMARK    3  A    between atoms: C_16  and  C_17 
ROOT
ATOM      1  O   UNL d   1      21.030 -16.788  -1.025  0.00  0.00    -0.265 OA
ATOM      2  C   UNL d   1      22.092 -17.384  -0.874  0.00  0.00     0.291 A 
ATOM      3  N   UNL d   1      23.291 -16.877  -1.281  0.00  0.00    -0.151 N 
ATOM      4  C   UNL d   1      24.470 -17.542  -1.075  0.00  0.00     0.726 A 
ATOM      5  N   UNL d   1      24.481 -18.689  -0.461  0.00  0.00     0.043 NA
ATOM      6  N   UNL d   1      23.309 -19.304   0.009  0.00  0.00    -0.128 NA
ATOM      7  C   UNL d   1      22.162 -18.728  -0.190  0.00  0.00     0.158 A 
ATOM      8  H   UNL d   1      23.259 -15.975  -1.725  0.00  0.00     0.188 HD
ENDROOT
BRANCH   4   9
ATOM      9  N   UNL d   1      25.618 -16.919  -1.537  0.00  0.00    -0.188 N 
ATOM     10  H   UNL d   1      26.257 -17.403  -2.150  0.00  0.00     0.184 HD
BRANCH   9  11
ATOM     11  C   UNL d   1      25.890 -15.548  -1.336  0.00  0.00     0.051 C 
ATOM     12  C   UNL d   1      25.739 -14.638  -2.394  0.00  0.00     0.033 C 
ATOM     13  C   UNL d   1      26.129 -13.305  -2.262  0.00  0.00     0.046 C 
ATOM     14  C   UNL d   1      26.785 -12.900  -1.109  0.00  0.00     0.138 C 
ATOM     15  F   UNL d   1      27.296 -11.661  -1.058  0.00  0.00    -0.204 F 
ATOM     16  C   UNL d   1      26.921 -13.778  -0.037  0.00  0.00     0.074 C 
ATOM     17 CL   UNL d   1      27.786 -13.292   1.374  0.00  0.00    -0.081 Cl
ATOM     18  C   UNL d   1      26.402 -15.077  -0.117  0.00  0.00     0.057 C 
ENDBRANCH   9  11
ENDBRANCH   4   9
BRANCH   7  19
ATOM     19  C   UNL d   1      20.906 -19.357   0.294  0.00  0.00     0.000 A 
ATOM     20  C   UNL d   1      19.966 -19.862  -0.611  0.00  0.00     0.014 A 
ATOM     21  C   UNL d   1      18.716 -20.292  -0.151  0.00  0.00     0.001 A 
ATOM     22  C   UNL d   1      18.446 -20.321   1.216  0.00  0.00     0.000 A 
ATOM     23  C   UNL d   1      19.430 -19.934   2.127  0.00  0.00     0.001 A 
ATOM     24  C   UNL d   1      20.644 -19.411   1.667  0.00  0.00     0.014 A 
ENDBRANCH   7  19
TORSDOF 3
ENDMDL
MODEL 5
REMARK VINA RESULT:    -7.707      2.608      3.065
REMARK INTER + INTRA:          -9.070
REMARK INTER:                  -8.602
REMARK INTRA:                  -0.468
REMARK CONF_INDEPENDENT:        0.895
REMARK UNBOUND:                -0.468
REMARK  3 active torsions:
REMARK  status: ('A' for Active; 'I' for Inactive)
REMARK    1  A    between atoms: C_4  and  N_5 
REMARK    2  A    between atoms: N_5  and  C_6 
REMARK    3  A    between atoms: C_16  and  C_17 
ROOT
ATOM      1  O   UNL d   1      23.525 -20.035  -0.405  0.00  0.00    -0.265 OA
ATOM      2  C   UNL d   1      23.346 -18.835  -0.589  0.00  0.00     0.291 A 
ATOM      3  N   UNL d   1      24.341 -17.989  -0.982  0.00  0.00    -0.151 N 
ATOM      4  C   UNL d   1      24.116 -16.659  -1.215  0.00  0.00     0.726 A 
ATOM      5  N   UNL d   1      22.922 -16.159  -1.079  0.00  0.00     0.043 NA
ATOM      6  N   UNL d   1      21.819 -16.936  -0.686  0.00  0.00    -0.128 NA
ATOM      7  C   UNL d   1      21.988 -18.197  -0.424  0.00  0.00     0.158 A 
ATOM      8  H   UNL d   1      25.247 -18.406  -1.109  0.00  0.00     0.188 HD
ENDROOT
BRANCH   4   9
ATOM      9  N   UNL d   1      25.212 -15.908  -1.608  0.00  0.00    -0.188 N 
ATOM     10  H   UNL d   1      25.138 -15.244  -2.364  0.00  0.00     0.184 HD
BRANCH   9  11
ATOM     11  C   UNL d   1      26.430 -15.885  -0.896  0.00  0.00     0.051 C 
ATOM     12  C   UNL d   1      26.651 -14.913   0.091  0.00  0.00     0.033 C 
ATOM     13  C   UNL d   1      27.894 -14.783   0.713  0.00  0.00     0.046 C 
ATOM     14  C   UNL d   1      28.961 -15.547   0.265  0.00  0.00     0.138 C 
ATOM     15  F   UNL d   1      30.183 -15.302   0.760  0.00  0.00    -0.204 F 
ATOM     16  C   UNL d   1      28.759 -16.536  -0.693  0.00  0.00     0.074 C 
ATOM     17 CL   UNL d   1      30.096 -17.448  -1.290  0.00  0.00    -0.081 Cl
ATOM     18  C   UNL d   1      27.478 -16.762  -1.217  0.00  0.00     0.057 C 
ENDBRANCH   9  11
ENDBRANCH   4   9
BRANCH   7  19
ATOM     19  C   UNL d   1      20.840 -19.042  -0.004  0.00  0.00     0.000 A 
ATOM     20  C   UNL d   1      19.923 -19.520  -0.947  0.00  0.00     0.014 A 
ATOM     21  C   UNL d   1      18.757 -20.165  -0.520  0.00  0.00     0.001 A 
ATOM     22  C   UNL d   1      18.559 -20.429   0.834  0.00  0.00     0.000 A 
ATOM     23  C   UNL d   1      19.534 -20.063   1.763  0.00  0.00     0.001 A 
ATOM     24  C   UNL d   1      20.654 -19.330   1.352  0.00  0.00     0.014 A 
ENDBRANCH   7  19
TORSDOF 3
ENDMDL
MODEL 6
REMARK VINA RESULT:    -7.605      2.953      3.510
REMARK INTER + INTRA:          -8.718
REMARK INTER:                  -8.500
REMARK INTRA:                  -0.218
REMARK CONF_INDEPENDENT:        0.895
REMARK UNBOUND:                -0.218
REMARK  3 active torsions:
REMARK  status: ('A' for Active; 'I' for Inactive)
REMARK    1  A    between atoms: C_4  and  N_5 
REMARK    2  A    between atoms: N_5  and  C_6 
REMARK    3  A    between atoms: C_16  and  C_17 
ROOT
ATOM      1  O   UNL d   1      20.996 -19.701  -2.034  0.00  0.00    -0.265 OA
ATOM      2  C   UNL d   1      21.720 -19.044  -1.292  0.00  0.00     0.291 A 
ATOM      3  N   UNL d   1      22.787 -18.325  -1.745  0.00  0.00    -0.151 N 
ATOM      4  C   UNL d   1      23.565 -17.571  -0.908  0.00  0.00     0.726 A 
ATOM      5  N   UNL d   1      23.294 -17.507   0.363  0.00  0.00     0.043 NA
ATOM      6  N   UNL d   1      22.216 -18.199   0.940  0.00  0.00    -0.128 NA
ATOM      7  C   UNL d   1      21.467 -18.952   0.193  0.00  0.00     0.158 A 
ATOM      8  H   UNL d   1      22.956 -18.368  -2.736  0.00  0.00     0.188 HD
ENDROOT
BRANCH   4   9
ATOM      9  N   UNL d   1      24.619 -16.889  -1.494  0.00  0.00    -0.188 N 
ATOM     10  H   UNL d   1      24.552 -16.550  -2.442  0.00  0.00     0.184 HD
BRANCH   9  11
ATOM     11  C   UNL d   1      25.766 -16.478  -0.781  0.00  0.00     0.051 C 
ATOM     12  C   UNL d   1      26.381 -17.353   0.127  0.00  0.00     0.033 C 
ATOM     13  C   UNL d   1      27.431 -16.927   0.943  0.00  0.00     0.046 C 
ATOM     14  C   UNL d   1      27.793 -15.588   0.941  0.00  0.00     0.138 C 
ATOM     15  F   UNL d   1      28.691 -15.160   1.841  0.00  0.00    -0.204 F 
ATOM     16  C   UNL d   1      27.215 -14.708   0.029  0.00  0.00     0.074 C 
ATOM     17 CL   UNL d   1      27.624 -13.033   0.065  0.00  0.00    -0.081 Cl
ATOM     18  C   UNL d   1      26.260 -15.168  -0.888  0.00  0.00     0.057 C 
ENDBRANCH   9  11
ENDBRANCH   4   9
BRANCH   7  19
ATOM     19  C   UNL d   1      20.322 -19.697   0.777  0.00  0.00     0.000 A 
ATOM     20  C   UNL d   1      19.401 -20.352  -0.047  0.00  0.00     0.014 A 
ATOM     21  C   UNL d   1      18.238 -20.900   0.504  0.00  0.00     0.001 A 
ATOM     22  C   UNL d   1      18.047 -20.890   1.885  0.00  0.00     0.000 A 
ATOM     23  C   UNL d   1      19.026 -20.348   2.718  0.00  0.00     0.001 A 
ATOM     24  C   UNL d   1      20.143 -19.711   2.165  0.00  0.00     0.014 A 
ENDBRANCH   7  19
TORSDOF 3
ENDMDL
MODEL 7
REMARK VINA RESULT:    -7.592      6.746      8.770
REMARK INTER + INTRA:          -8.829
REMARK INTER:                  -8.487
REMARK INTRA:                  -0.342
REMARK CONF_INDEPENDENT:        0.895
REMARK UNBOUND:                -0.342
REMARK  3 active torsions:
REMARK  status: ('A' for Active; 'I' for Inactive)
REMARK    1  A    between atoms: C_4  and  N_5 
REMARK    2  A    between atoms: N_5  and  C_6 
REMARK    3  A    between atoms: C_16  and  C_17 
ROOT
ATOM      1  O   UNL d   1      28.675 -15.938  -0.878  0.00  0.00    -0.265 OA
ATOM      2  C   UNL d   1      28.154 -15.330   0.052  0.00  0.00     0.291 A 
ATOM      3  N   UNL d   1      28.623 -15.388   1.331  0.00  0.00    -0.151 N 
ATOM      4  C   UNL d   1      28.048 -14.676   2.350  0.00  0.00     0.726 A 
ATOM      5  N   UNL d   1      27.030 -13.900   2.118  0.00  0.00     0.043 NA
ATOM      6  N   UNL d   1      26.467 -13.755   0.839  0.00  0.00    -0.128 NA
ATOM      7  C   UNL d   1      26.957 -14.433  -0.154  0.00  0.00     0.158 A 
ATOM      8  H   UNL d   1      29.429 -15.971   1.477  0.00  0.00     0.188 HD
ENDROOT
BRANCH   4   9
ATOM      9  N   UNL d   1      28.619 -14.824   3.604  0.00  0.00    -0.188 N 
ATOM     10  H   UNL d   1      29.307 -15.542   3.776  0.00  0.00     0.184 HD
BRANCH   9  11
ATOM     11  C   UNL d   1      28.420 -13.907   4.658  0.00  0.00     0.051 C 
ATOM     12  C   UNL d   1      28.191 -12.552   4.377  0.00  0.00     0.033 C 
ATOM     13  C   UNL d   1      28.127 -11.602   5.399  0.00  0.00     0.046 C 
ATOM     14  C   UNL d   1      28.410 -11.986   6.701  0.00  0.00     0.138 C 
ATOM     15  F   UNL d   1      28.501 -11.040   7.647  0.00  0.00    -0.204 F 
ATOM     16  C   UNL d   1      28.612 -13.329   7.007  0.00  0.00     0.074 C 
ATOM     17 CL   UNL d   1      29.020 -13.799   8.615  0.00  0.00    -0.081 Cl
ATOM     18  C   UNL d   1      28.537 -14.302   6.000  0.00  0.00     0.057 C 
ENDBRANCH   9  11
ENDBRANCH   4   9
BRANCH   7  19
ATOM     19  C   UNL d   1      26.380 -14.301  -1.517  0.00  0.00     0.000 A 
ATOM     20  C   UNL d   1      25.951 -15.431  -2.223  0.00  0.00     0.014 A 
ATOM     21  C   UNL d   1      25.573 -15.313  -3.565  0.00  0.00     0.001 A 
ATOM     22  C   UNL d   1      25.519 -14.057  -4.168  0.00  0.00     0.000 A 
ATOM     23  C   UNL d   1      25.828 -12.916  -3.426  0.00  0.00     0.001 A 
ATOM     24  C   UNL d   1      26.301 -13.039  -2.115  0.00  0.00     0.014 A 
ENDBRANCH   7  19
TORSDOF 3
ENDMDL
MODEL 8
REMARK VINA RESULT:    -7.399      3.695      5.438
REMARK INTER + INTRA:          -8.791
REMARK INTER:                  -8.293
REMARK INTRA:                  -0.498
REMARK CONF_INDEPENDENT:        0.895
REMARK UNBOUND:                -0.498
REMARK  3 active torsions:
REMARK  status: ('A' for Active; 'I' for Inactive)
REMARK    1  A    between atoms: C_4  and  N_5 
REMARK    2  A    between atoms: N_5  and  C_6 
REMARK    3  A    between atoms: C_16  and  C_17 
ROOT
ATOM      1  O   UNL d   1      26.280 -13.572  -0.881  0.00  0.00    -0.265 OA
ATOM      2  C   UNL d   1      25.913 -13.794  -2.031  0.00  0.00     0.291 A 
ATOM      3  N   UNL d   1      25.891 -12.836  -3.001  0.00  0.00    -0.151 N 
ATOM      4  C   UNL d   1      25.509 -13.110  -4.287  0.00  0.00     0.726 A 
ATOM      5  N   UNL d   1      25.164 -14.317  -4.628  0.00  0.00     0.043 NA
ATOM      6  N   UNL d   1      25.156 -15.385  -3.716  0.00  0.00    -0.128 NA
ATOM      7  C   UNL d   1      25.480 -15.170  -2.477  0.00  0.00     0.158 A 
ATOM      8  H   UNL d   1      26.191 -11.918  -2.719  0.00  0.00     0.188 HD
ENDROOT
BRANCH   4   9
ATOM      9  N   UNL d   1      25.530 -12.047  -5.176  0.00  0.00    -0.188 N 
ATOM     10  H   UNL d   1      24.850 -11.305  -5.109  0.00  0.00     0.184 HD
BRANCH   9  11
ATOM     11  C   UNL d   1      26.571 -11.836  -6.105  0.00  0.00     0.051 C 
ATOM     12  C   UNL d   1      26.415 -10.894  -7.134  0.00  0.00     0.033 C 
ATOM     13  C   UNL d   1      27.369 -10.762  -8.144  0.00  0.00     0.046 C 
ATOM     14  C   UNL d   1      28.430 -11.655  -8.198  0.00  0.00     0.138 C 
ATOM     15  F   UNL d   1      29.250 -11.620  -9.258  0.00  0.00    -0.204 F 
ATOM     16  C   UNL d   1      28.619 -12.579  -7.174  0.00  0.00     0.074 C 
ATOM     17 CL   UNL d   1      29.904 -13.725  -7.270  0.00  0.00    -0.081 Cl
ATOM     18  C   UNL d   1      27.737 -12.617  -6.085  0.00  0.00     0.057 C 
ENDBRANCH   9  11
ENDBRANCH   4   9
BRANCH   7  19
ATOM     19  C   UNL d   1      25.477 -16.280  -1.491  0.00  0.00     0.000 A 
ATOM     20  C   UNL d   1      24.298 -16.977  -1.204  0.00  0.00     0.014 A 
ATOM     21  C   UNL d   1      24.271 -17.900  -0.152  0.00  0.00     0.001 A 
ATOM     22  C   UNL d   1      25.443 -18.206   0.539  0.00  0.00     0.000 A 
ATOM     23  C   UNL d   1      26.645 -17.603   0.169  0.00  0.00     0.001 A 
ATOM     24  C   UNL d   1      26.657 -16.608  -0.815  0.00  0.00     0.014 A 
ENDBRANCH   7  19
TORSDOF 3
ENDMDL
MODEL 9
REMARK VINA RESULT:    -7.266      4.540      9.159
REMARK INTER + INTRA:          -8.630
REMARK INTER:                  -8.161
REMARK INTRA:                  -0.469
REMARK CONF_INDEPENDENT:        0.895
REMARK UNBOUND:                -0.469
REMARK  3 active torsions:
REMARK  status: ('A' for Active; 'I' for Inactive)
REMARK    1  A    between atoms: C_4  and  N_5 
REMARK    2  A    between atoms: N_5  and  C_6 
REMARK    3  A    between atoms: C_16  and  C_17 
ROOT
ATOM      1  O   UNL d   1      27.584 -11.700  -5.341  0.00  0.00    -0.265 OA
ATOM      2  C   UNL d   1      27.244 -12.871  -5.204  0.00  0.00     0.291 A 
ATOM      3  N   UNL d   1      26.276 -13.264  -4.326  0.00  0.00    -0.151 N 
ATOM      4  C   UNL d   1      25.887 -14.571  -4.211  0.00  0.00     0.726 A 
ATOM      5  N   UNL d   1      26.428 -15.488  -4.958  0.00  0.00     0.043 NA
ATOM      6  N   UNL d   1      27.428 -15.200  -5.901  0.00  0.00    -0.128 NA
ATOM      7  C   UNL d   1      27.853 -13.979  -6.027  0.00  0.00     0.158 A 
ATOM      8  H   UNL d   1      25.853 -12.532  -3.782  0.00  0.00     0.188 HD
ENDROOT
BRANCH   4   9
ATOM      9  N   UNL d   1      24.895 -14.839  -3.281  0.00  0.00    -0.188 N 
ATOM     10  H   UNL d   1      23.943 -14.544  -3.442  0.00  0.00     0.184 HD
BRANCH   9  11
ATOM     11  C   UNL d   1      25.093 -15.666  -2.154  0.00  0.00     0.051 C 
ATOM     12  C   UNL d   1      26.385 -15.863  -1.645  0.00  0.00     0.033 C 
ATOM     13  C   UNL d   1      26.627 -16.779  -0.620  0.00  0.00     0.046 C 
ATOM     14  C   UNL d   1      25.593 -17.593  -0.179  0.00  0.00     0.138 C 
ATOM     15  F   UNL d   1      25.871 -18.575   0.690  0.00  0.00    -0.204 F 
ATOM     16  C   UNL d   1      24.298 -17.396  -0.651  0.00  0.00     0.074 C 
ATOM     17 CL   UNL d   1      23.025 -18.445  -0.145  0.00  0.00    -0.081 Cl
ATOM     18  C   UNL d   1      24.031 -16.380  -1.578  0.00  0.00     0.057 C 
ENDBRANCH   9  11
ENDBRANCH   4   9
BRANCH   7  19
ATOM     19  C   UNL d   1      28.912 -13.646  -7.015  0.00  0.00     0.000 A 
ATOM     20  C   UNL d   1      30.193 -14.197  -6.903  0.00  0.00     0.014 A 
ATOM     21  C   UNL d   1      31.223 -13.743  -7.733  0.00  0.00     0.001 A 
ATOM     22  C   UNL d   1      30.952 -12.821  -8.744  0.00  0.00     0.000 A 
ATOM     23  C   UNL d   1      29.647 -12.366  -8.936  0.00  0.00     0.001 A 
ATOM     24  C   UNL d   1      28.635 -12.742  -8.046  0.00  0.00     0.014 A 
ENDBRANCH   7  19
TORSDOF 3
ENDMDL
