MODEL 1
REMARK VINA RESULT:    -7.736      0.000      0.000
REMARK INTER + INTRA:         -11.427
REMARK INTER:                  -9.526
REMARK INTRA:                  -1.901
REMARK CONF_INDEPENDENT:        1.790
REMARK UNBOUND:                -1.901
REMARK  6 active torsions:
REMARK  status: ('A' for Active; 'I' for Inactive)
REMARK    1  A    between atoms: C_2  and  C_19 
REMARK    2  A    between atoms: N_3  and  N_4 
REMARK       I    between atoms: N_4  and  C_5 
REMARK    3  A    between atoms: C_5  and  C_7 
REMARK    4  A    between atoms: C_7  and  O_8 
REMARK    5  A    between atoms: O_8  and  C_9 
REMARK    6  A    between atoms: C_23  and  O_24 
ROOT
ATOM      1  N   UNL d   1      28.964 -15.850  -2.608  0.00  0.00    -0.245 N 
ATOM      2  C   UNL d   1      29.863 -16.110  -1.572  0.00  0.00     0.261 C 
ATOM      3  O   UNL d   1      31.010 -16.530  -1.763  0.00  0.00    -0.269 OA
ATOM      4  H   UNL d   1      28.021 -15.544  -2.406  0.00  0.00     0.192 HD
ENDROOT
BRANCH   2   5
ATOM      5  C   UNL d   1      29.314 -15.833  -0.148  0.00  0.00     0.280 C 
BRANCH   5   6
ATOM      6  O   UNL d   1      27.937 -15.455  -0.242  0.00  0.00    -0.342 OA
BRANCH   6   7
ATOM      7  C   UNL d   1      26.964 -16.413  -0.290  0.00  0.00     0.070 A 
ATOM      8  C   UNL d   1      27.108 -17.738   0.104  0.00  0.00     0.037 A 
ATOM      9  C   UNL d   1      25.988 -18.586   0.135  0.00  0.00     0.015 A 
ATOM     10  C   UNL d   1      24.706 -18.122  -0.209  0.00  0.00    -0.026 A 
ATOM     11  C   UNL d   1      23.571 -18.950  -0.124  0.00  0.00     0.012 A 
ATOM     12  C   UNL d   1      24.555 -16.784  -0.631  0.00  0.00    -0.023 A 
ATOM     13  C   UNL d   1      22.304 -18.471  -0.463  0.00  0.00     0.001 A 
ATOM     14  C   UNL d   1      22.155 -17.158  -0.895  0.00  0.00     0.001 A 
ATOM     15  C   UNL d   1      23.272 -16.320  -0.980  0.00  0.00     0.012 A 
ATOM     16  C   UNL d   1      25.693 -15.951  -0.665  0.00  0.00     0.049 A 
ENDBRANCH   6   7
ENDBRANCH   5   6
ENDBRANCH   2   5
BRANCH   1  17
ATOM     17  N   UNL d   1      29.354 -16.032  -3.924  0.00  0.00    -0.176 NA
ATOM     18  C   UNL d   1      28.816 -15.342  -4.892  0.00  0.00     0.061 C 
ATOM     19  C   UNL d   1      29.280 -15.606  -6.319  0.00  0.00     0.073 C 
BRANCH  18  20
ATOM     20  C   UNL d   1      27.819 -14.255  -4.730  0.00  0.00    -0.008 A 
ATOM     21  C   UNL d   1      28.179 -12.905  -4.789  0.00  0.00     0.013 A 
ATOM     22  C   UNL d   1      27.192 -11.925  -4.640  0.00  0.00     0.004 A 
ATOM     23  C   UNL d   1      25.854 -12.292  -4.453  0.00  0.00     0.036 A 
ATOM     24  C   UNL d   1      25.516 -13.640  -4.403  0.00  0.00     0.066 A 
ATOM     25  C   UNL d   1      26.491 -14.618  -4.504  0.00  0.00     0.050 A 
BRANCH  24  26
ATOM     26  O   UNL d   1      24.233 -14.075  -4.270  0.00  0.00    -0.361 OA
ATOM     27  H   UNL d   1      23.651 -13.552  -4.843  0.00  0.00     0.217 HD
ENDBRANCH  24  26
ENDBRANCH  18  20
ENDBRANCH   1  17
TORSDOF 6
ENDMDL
MODEL 2
REMARK VINA RESULT:    -7.639      1.021      1.644
REMARK INTER + INTRA:         -11.900
REMARK INTER:                  -9.428
REMARK INTRA:                  -2.472
REMARK CONF_INDEPENDENT:        1.790
REMARK UNBOUND:                -2.472
REMARK  6 active torsions:
REMARK  status: ('A' for Active; 'I' for Inactive)
REMARK    1  A    between atoms: C_2  and  C_19 
REMARK    2  A    between atoms: N_3  and  N_4 
REMARK       I    between atoms: N_4  and  C_5 
REMARK    3  A    between atoms: C_5  and  C_7 
REMARK    4  A    between atoms: C_7  and  O_8 
REMARK    5  A    between atoms: O_8  and  C_9 
REMARK    6  A    between atoms: C_23  and  O_24 
ROOT
ATOM      1  N   UNL d   1      28.958 -16.767  -2.594  0.00  0.00    -0.245 N 
ATOM      2  C   UNL d   1      29.735 -16.236  -1.562  0.00  0.00     0.261 C 
ATOM      3  O   UNL d   1      30.690 -15.477  -1.759  0.00  0.00    -0.269 OA
ATOM      4  H   UNL d   1      28.208 -17.416  -2.392  0.00  0.00     0.192 HD
ENDROOT
BRANCH   2   5
ATOM      5  C   UNL d   1      29.308 -16.671  -0.136  0.00  0.00     0.280 C 
BRANCH   5   6
ATOM      6  O   UNL d   1      28.244 -17.623  -0.235  0.00  0.00    -0.342 OA
BRANCH   6   7
ATOM      7  C   UNL d   1      26.946 -17.200  -0.291  0.00  0.00     0.070 A 
ATOM      8  C   UNL d   1      26.527 -15.893  -0.506  0.00  0.00     0.037 A 
ATOM      9  C   UNL d   1      25.161 -15.614  -0.682  0.00  0.00     0.015 A 
ATOM     10  C   UNL d   1      24.195 -16.637  -0.664  0.00  0.00    -0.026 A 
ATOM     11  C   UNL d   1      22.833 -16.372  -0.898  0.00  0.00     0.012 A 
ATOM     12  C   UNL d   1      24.611 -17.963  -0.425  0.00  0.00    -0.023 A 
ATOM     13  C   UNL d   1      21.888 -17.401  -0.884  0.00  0.00     0.001 A 
ATOM     14  C   UNL d   1      22.292 -18.707  -0.631  0.00  0.00     0.001 A 
ATOM     15  C   UNL d   1      23.643 -18.987  -0.402  0.00  0.00     0.012 A 
ATOM     16  C   UNL d   1      25.986 -18.222  -0.241  0.00  0.00     0.049 A 
ENDBRANCH   6   7
ENDBRANCH   5   6
ENDBRANCH   2   5
BRANCH   1  17
ATOM     17  N   UNL d   1      29.228 -16.424  -3.909  0.00  0.00    -0.176 NA
ATOM     18  C   UNL d   1      28.569 -15.471  -4.508  0.00  0.00     0.061 C 
ATOM     19  C   UNL d   1      28.904 -15.157  -5.961  0.00  0.00     0.073 C 
BRANCH  18  20
ATOM     20  C   UNL d   1      27.546 -14.598  -3.881  0.00  0.00    -0.008 A 
ATOM     21  C   UNL d   1      27.876 -13.654  -2.903  0.00  0.00     0.013 A 
ATOM     22  C   UNL d   1      26.868 -12.853  -2.357  0.00  0.00     0.004 A 
ATOM     23  C   UNL d   1      25.546 -12.981  -2.797  0.00  0.00     0.036 A 
ATOM     24  C   UNL d   1      25.239 -13.922  -3.774  0.00  0.00     0.066 A 
ATOM     25  C   UNL d   1      26.221 -14.751  -4.290  0.00  0.00     0.050 A 
BRANCH  24  26
ATOM     26  O   UNL d   1      23.987 -14.074  -4.286  0.00  0.00    -0.361 OA
ATOM     27  H   UNL d   1      23.852 -13.442  -5.009  0.00  0.00     0.217 HD
ENDBRANCH  24  26
ENDBRANCH  18  20
ENDBRANCH   1  17
TORSDOF 6
ENDMDL
MODEL 3
REMARK VINA RESULT:    -7.400      1.897      2.918
REMARK INTER + INTRA:         -11.238
REMARK INTER:                  -9.190
REMARK INTRA:                  -2.047
REMARK CONF_INDEPENDENT:        1.790
REMARK UNBOUND:                -2.047
REMARK  6 active torsions:
REMARK  status: ('A' for Active; 'I' for Inactive)
REMARK    1  A    between atoms: C_2  and  C_19 
REMARK    2  A    between atoms: N_3  and  N_4 
REMARK       I    between atoms: N_4  and  C_5 
REMARK    3  A    between atoms: C_5  and  C_7 
REMARK    4  A    between atoms: C_7  and  O_8 
REMARK    5  A    between atoms: O_8  and  C_9 
REMARK    6  A    between atoms: C_23  and  O_24 
ROOT
ATOM      1  N   UNL d   1      28.078 -12.745  -0.594  0.00  0.00    -0.245 N 
ATOM      2  C   UNL d   1      27.465 -12.917   0.649  0.00  0.00     0.261 C 
ATOM      3  O   UNL d   1      26.778 -12.044   1.188  0.00  0.00    -0.269 OA
ATOM      4  H   UNL d   1      28.666 -13.472  -0.984  0.00  0.00     0.192 HD
ENDROOT
BRANCH   2   5
ATOM      5  C   UNL d   1      27.713 -14.298   1.312  0.00  0.00     0.280 C 
BRANCH   5   6
ATOM      6  O   UNL d   1      27.950 -15.272   0.291  0.00  0.00    -0.342 OA
BRANCH   6   7
ATOM      7  C   UNL d   1      27.048 -16.274   0.074  0.00  0.00     0.070 A 
ATOM      8  C   UNL d   1      27.261 -17.625   0.319  0.00  0.00     0.037 A 
ATOM      9  C   UNL d   1      26.201 -18.538   0.185  0.00  0.00     0.015 A 
ATOM     10  C   UNL d   1      24.909 -18.115  -0.176  0.00  0.00    -0.026 A 
ATOM     11  C   UNL d   1      23.831 -19.016  -0.255  0.00  0.00     0.012 A 
ATOM     12  C   UNL d   1      24.690 -16.749  -0.447  0.00  0.00    -0.023 A 
ATOM     13  C   UNL d   1      22.552 -18.578  -0.608  0.00  0.00     0.001 A 
ATOM     14  C   UNL d   1      22.337 -17.234  -0.892  0.00  0.00     0.001 A 
ATOM     15  C   UNL d   1      23.397 -16.326  -0.814  0.00  0.00     0.012 A 
ATOM     16  C   UNL d   1      25.769 -15.849  -0.317  0.00  0.00     0.049 A 
ENDBRANCH   6   7
ENDBRANCH   5   6
ENDBRANCH   2   5
BRANCH   1  17
ATOM     17  N   UNL d   1      27.902 -11.563  -1.294  0.00  0.00    -0.176 NA
ATOM     18  C   UNL d   1      27.407 -11.558  -2.501  0.00  0.00     0.061 C 
ATOM     19  C   UNL d   1      27.257 -10.223  -3.221  0.00  0.00     0.073 C 
BRANCH  18  20
ATOM     20  C   UNL d   1      26.906 -12.745  -3.236  0.00  0.00    -0.008 A 
ATOM     21  C   UNL d   1      27.770 -13.720  -3.747  0.00  0.00     0.013 A 
ATOM     22  C   UNL d   1      27.236 -14.822  -4.422  0.00  0.00     0.004 A 
ATOM     23  C   UNL d   1      25.851 -14.959  -4.569  0.00  0.00     0.036 A 
ATOM     24  C   UNL d   1      25.009 -13.982  -4.050  0.00  0.00     0.066 A 
ATOM     25  C   UNL d   1      25.528 -12.864  -3.419  0.00  0.00     0.050 A 
BRANCH  24  26
ATOM     26  O   UNL d   1      23.652 -14.067  -4.113  0.00  0.00    -0.361 OA
ATOM     27  H   UNL d   1      23.370 -14.101  -5.040  0.00  0.00     0.217 HD
ENDBRANCH  24  26
ENDBRANCH  18  20
ENDBRANCH   1  17
TORSDOF 6
ENDMDL
MODEL 4
REMARK VINA RESULT:    -7.023      1.631      4.178
REMARK INTER + INTRA:         -10.622
REMARK INTER:                  -8.813
REMARK INTRA:                  -1.809
REMARK CONF_INDEPENDENT:        1.790
REMARK UNBOUND:                -1.809
REMARK  6 active torsions:
REMARK  status: ('A' for Active; 'I' for Inactive)
REMARK    1  A    between atoms: C_2  and  C_19 
REMARK    2  A    between atoms: N_3  and  N_4 
REMARK       I    between atoms: N_4  and  C_5 
REMARK    3  A    between atoms: C_5  and  C_7 
REMARK    4  A    between atoms: C_7  and  O_8 
REMARK    5  A    between atoms: O_8  and  C_9 
REMARK    6  A    between atoms: C_23  and  O_24 
ROOT
ATOM      1  N   UNL d   1      28.200 -14.570  -5.449  0.00  0.00    -0.245 N 
ATOM      2  C   UNL d   1      26.809 -14.599  -5.326  0.00  0.00     0.261 C 
ATOM      3  O   UNL d   1      26.124 -15.575  -5.650  0.00  0.00    -0.269 OA
ATOM      4  H   UNL d   1      28.721 -13.736  -5.208  0.00  0.00     0.192 HD
ENDROOT
BRANCH   2   5
ATOM      5  C   UNL d   1      26.179 -13.306  -4.746  0.00  0.00     0.280 C 
BRANCH   5   6
ATOM      6  O   UNL d   1      25.324 -13.650  -3.652  0.00  0.00    -0.342 OA
BRANCH   6   7
ATOM      7  C   UNL d   1      25.718 -14.590  -2.742  0.00  0.00     0.070 A 
ATOM      8  C   UNL d   1      26.884 -14.551  -1.988  0.00  0.00     0.037 A 
ATOM      9  C   UNL d   1      27.103 -15.511  -0.984  0.00  0.00     0.015 A 
ATOM     10  C   UNL d   1      26.153 -16.511  -0.705  0.00  0.00    -0.026 A 
ATOM     11  C   UNL d   1      26.340 -17.438   0.337  0.00  0.00     0.012 A 
ATOM     12  C   UNL d   1      24.977 -16.569  -1.480  0.00  0.00    -0.023 A 
ATOM     13  C   UNL d   1      25.383 -18.420   0.605  0.00  0.00     0.001 A 
ATOM     14  C   UNL d   1      24.230 -18.491  -0.169  0.00  0.00     0.001 A 
ATOM     15  C   UNL d   1      24.028 -17.574  -1.205  0.00  0.00     0.012 A 
ATOM     16  C   UNL d   1      24.780 -15.604  -2.491  0.00  0.00     0.049 A 
ENDBRANCH   6   7
ENDBRANCH   5   6
ENDBRANCH   2   5
BRANCH   1  17
ATOM     17  N   UNL d   1      28.875 -15.681  -5.927  0.00  0.00    -0.176 NA
ATOM     18  C   UNL d   1      29.680 -16.366  -5.160  0.00  0.00     0.061 C 
ATOM     19  C   UNL d   1      30.405 -17.567  -5.755  0.00  0.00     0.073 C 
BRANCH  18  20
ATOM     20  C   UNL d   1      29.915 -16.123  -3.716  0.00  0.00    -0.008 A 
ATOM     21  C   UNL d   1      30.144 -14.839  -3.208  0.00  0.00     0.013 A 
ATOM     22  C   UNL d   1      30.350 -14.672  -1.835  0.00  0.00     0.004 A 
ATOM     23  C   UNL d   1      30.308 -15.776  -0.974  0.00  0.00     0.036 A 
ATOM     24  C   UNL d   1      30.073 -17.042  -1.498  0.00  0.00     0.066 A 
ATOM     25  C   UNL d   1      29.913 -17.225  -2.861  0.00  0.00     0.050 A 
BRANCH  24  26
ATOM     26  O   UNL d   1      29.972 -18.155  -0.721  0.00  0.00    -0.361 OA
ATOM     27  H   UNL d   1      29.866 -17.896   0.207  0.00  0.00     0.217 HD
ENDBRANCH  24  26
ENDBRANCH  18  20
ENDBRANCH   1  17
TORSDOF 6
ENDMDL
MODEL 5
REMARK VINA RESULT:    -7.014      3.417      5.766
REMARK INTER + INTRA:         -10.564
REMARK INTER:                  -8.803
REMARK INTRA:                  -1.761
REMARK CONF_INDEPENDENT:        1.790
REMARK UNBOUND:                -1.761
REMARK  6 active torsions:
REMARK  status: ('A' for Active; 'I' for Inactive)
REMARK    1  A    between atoms: C_2  and  C_19 
REMARK    2  A    between atoms: N_3  and  N_4 
REMARK       I    between atoms: N_4  and  C_5 
REMARK    3  A    between atoms: C_5  and  C_7 
REMARK    4  A    between atoms: C_7  and  O_8 
REMARK    5  A    between atoms: O_8  and  C_9 
REMARK    6  A    between atoms: C_23  and  O_24 
ROOT
ATOM      1  N   UNL d   1      30.714 -16.191   0.727  0.00  0.00    -0.245 N 
ATOM      2  C   UNL d   1      30.527 -16.262  -0.656  0.00  0.00     0.261 C 
ATOM      3  O   UNL d   1      31.155 -15.563  -1.458  0.00  0.00    -0.269 OA
ATOM      4  H   UNL d   1      30.152 -16.753   1.352  0.00  0.00     0.192 HD
ENDROOT
BRANCH   2   5
ATOM      5  C   UNL d   1      29.462 -17.292  -1.116  0.00  0.00     0.280 C 
BRANCH   5   6
ATOM      6  O   UNL d   1      28.558 -17.546  -0.036  0.00  0.00    -0.342 OA
BRANCH   6   7
ATOM      7  C   UNL d   1      27.257 -17.136  -0.118  0.00  0.00     0.070 A 
ATOM      8  C   UNL d   1      26.829 -15.845  -0.403  0.00  0.00     0.037 A 
ATOM      9  C   UNL d   1      25.461 -15.587  -0.597  0.00  0.00     0.015 A 
ATOM     10  C   UNL d   1      24.503 -16.615  -0.528  0.00  0.00    -0.026 A 
ATOM     11  C   UNL d   1      23.139 -16.373  -0.779  0.00  0.00     0.012 A 
ATOM     12  C   UNL d   1      24.928 -17.924  -0.219  0.00  0.00    -0.023 A 
ATOM     13  C   UNL d   1      22.202 -17.407  -0.713  0.00  0.00     0.001 A 
ATOM     14  C   UNL d   1      22.616 -18.695  -0.392  0.00  0.00     0.001 A 
ATOM     15  C   UNL d   1      23.968 -18.952  -0.145  0.00  0.00     0.012 A 
ATOM     16  C   UNL d   1      26.304 -18.161  -0.017  0.00  0.00     0.049 A 
ENDBRANCH   6   7
ENDBRANCH   5   6
ENDBRANCH   2   5
BRANCH   1  17
ATOM     17  N   UNL d   1      31.661 -15.327   1.252  0.00  0.00    -0.176 NA
ATOM     18  C   UNL d   1      31.357 -14.485   2.201  0.00  0.00     0.061 C 
ATOM     19  C   UNL d   1      32.443 -13.550   2.720  0.00  0.00     0.073 C 
BRANCH  18  20
ATOM     20  C   UNL d   1      30.043 -14.386   2.884  0.00  0.00    -0.008 A 
ATOM     21  C   UNL d   1      28.879 -14.018   2.200  0.00  0.00     0.013 A 
ATOM     22  C   UNL d   1      27.668 -13.953   2.896  0.00  0.00     0.004 A 
ATOM     23  C   UNL d   1      27.617 -14.271   4.259  0.00  0.00     0.036 A 
ATOM     24  C   UNL d   1      28.785 -14.640   4.918  0.00  0.00     0.066 A 
ATOM     25  C   UNL d   1      29.997 -14.664   4.249  0.00  0.00     0.050 A 
BRANCH  24  26
ATOM     26  O   UNL d   1      28.808 -15.007   6.228  0.00  0.00    -0.361 OA
ATOM     27  H   UNL d   1      28.524 -15.931   6.313  0.00  0.00     0.217 HD
ENDBRANCH  24  26
ENDBRANCH  18  20
ENDBRANCH   1  17
TORSDOF 6
ENDMDL
MODEL 6
REMARK VINA RESULT:    -6.801      1.491      2.344
REMARK INTER + INTRA:         -10.897
REMARK INTER:                  -8.591
REMARK INTRA:                  -2.306
REMARK CONF_INDEPENDENT:        1.790
REMARK UNBOUND:                -2.306
REMARK  6 active torsions:
REMARK  status: ('A' for Active; 'I' for Inactive)
REMARK    1  A    between atoms: C_2  and  C_19 
REMARK    2  A    between atoms: N_3  and  N_4 
REMARK       I    between atoms: N_4  and  C_5 
REMARK    3  A    between atoms: C_5  and  C_7 
REMARK    4  A    between atoms: C_7  and  O_8 
REMARK    5  A    between atoms: O_8  and  C_9 
REMARK    6  A    between atoms: C_23  and  O_24 
ROOT
ATOM      1  N   UNL d   1      29.875 -15.300  -3.886  0.00  0.00    -0.245 N 
ATOM      2  C   UNL d   1      29.973 -16.680  -3.698  0.00  0.00     0.261 C 
ATOM      3  O   UNL d   1      30.181 -17.473  -4.623  0.00  0.00    -0.269 OA
ATOM      4  H   UNL d   1      29.666 -14.688  -3.108  0.00  0.00     0.192 HD
ENDROOT
BRANCH   2   5
ATOM      5  C   UNL d   1      29.800 -17.152  -2.231  0.00  0.00     0.280 C 
BRANCH   5   6
ATOM      6  O   UNL d   1      29.256 -16.080  -1.455  0.00  0.00    -0.342 OA
BRANCH   6   7
ATOM      7  C   UNL d   1      27.908 -15.997  -1.247  0.00  0.00     0.070 A 
ATOM      8  C   UNL d   1      27.099 -14.920  -1.587  0.00  0.00     0.037 A 
ATOM      9  C   UNL d   1      25.704 -15.020  -1.447  0.00  0.00     0.015 A 
ATOM     10  C   UNL d   1      25.095 -16.200  -0.982  0.00  0.00    -0.026 A 
ATOM     11  C   UNL d   1      23.696 -16.325  -0.895  0.00  0.00     0.012 A 
ATOM     12  C   UNL d   1      25.912 -17.289  -0.615  0.00  0.00    -0.023 A 
ATOM     13  C   UNL d   1      23.108 -17.507  -0.438  0.00  0.00     0.001 A 
ATOM     14  C   UNL d   1      23.910 -18.577  -0.059  0.00  0.00     0.001 A 
ATOM     15  C   UNL d   1      25.302 -18.469  -0.145  0.00  0.00     0.012 A 
ATOM     16  C   UNL d   1      27.311 -17.167  -0.754  0.00  0.00     0.049 A 
ENDBRANCH   6   7
ENDBRANCH   5   6
ENDBRANCH   2   5
BRANCH   1  17
ATOM     17  N   UNL d   1      30.043 -14.761  -5.151  0.00  0.00    -0.176 NA
ATOM     18  C   UNL d   1      29.037 -14.256  -5.811  0.00  0.00     0.061 C 
ATOM     19  C   UNL d   1      29.288 -13.696  -7.206  0.00  0.00     0.073 C 
BRANCH  18  20
ATOM     20  C   UNL d   1      27.650 -14.114  -5.301  0.00  0.00    -0.008 A 
ATOM     21  C   UNL d   1      26.824 -15.221  -5.082  0.00  0.00     0.013 A 
ATOM     22  C   UNL d   1      25.530 -15.023  -4.590  0.00  0.00     0.004 A 
ATOM     23  C   UNL d   1      25.073 -13.732  -4.301  0.00  0.00     0.036 A 
ATOM     24  C   UNL d   1      25.912 -12.646  -4.520  0.00  0.00     0.066 A 
ATOM     25  C   UNL d   1      27.178 -12.826  -5.049  0.00  0.00     0.050 A 
BRANCH  24  26
ATOM     26  O   UNL d   1      25.556 -11.366  -4.221  0.00  0.00    -0.361 OA
ATOM     27  H   UNL d   1      24.853 -11.075  -4.822  0.00  0.00     0.217 HD
ENDBRANCH  24  26
ENDBRANCH  18  20
ENDBRANCH   1  17
TORSDOF 6
ENDMDL
MODEL 7
REMARK VINA RESULT:    -6.763      1.946      4.407
REMARK INTER + INTRA:         -10.563
REMARK INTER:                  -8.552
REMARK INTRA:                  -2.010
REMARK CONF_INDEPENDENT:        1.790
REMARK UNBOUND:                -2.010
REMARK  6 active torsions:
REMARK  status: ('A' for Active; 'I' for Inactive)
REMARK    1  A    between atoms: C_2  and  C_19 
REMARK    2  A    between atoms: N_3  and  N_4 
REMARK       I    between atoms: N_4  and  C_5 
REMARK    3  A    between atoms: C_5  and  C_7 
REMARK    4  A    between atoms: C_7  and  O_8 
REMARK    5  A    between atoms: O_8  and  C_9 
REMARK    6  A    between atoms: C_23  and  O_24 
ROOT
ATOM      1  N   UNL d   1      28.698 -15.645  -4.397  0.00  0.00    -0.245 N 
ATOM      2  C   UNL d   1      27.594 -15.010  -4.970  0.00  0.00     0.261 C 
ATOM      3  O   UNL d   1      27.236 -15.202  -6.137  0.00  0.00    -0.269 OA
ATOM      4  H   UNL d   1      28.981 -15.431  -3.450  0.00  0.00     0.192 HD
ENDROOT
BRANCH   2   5
ATOM      5  C   UNL d   1      26.842 -14.034  -4.027  0.00  0.00     0.280 C 
BRANCH   5   6
ATOM      6  O   UNL d   1      27.226 -14.301  -2.675  0.00  0.00    -0.342 OA
BRANCH   6   7
ATOM      7  C   UNL d   1      26.759 -15.414  -2.034  0.00  0.00     0.070 A 
ATOM      8  C   UNL d   1      27.528 -16.317  -1.311  0.00  0.00     0.037 A 
ATOM      9  C   UNL d   1      26.904 -17.344  -0.582  0.00  0.00     0.015 A 
ATOM     10  C   UNL d   1      25.504 -17.474  -0.549  0.00  0.00    -0.026 A 
ATOM     11  C   UNL d   1      24.871 -18.464   0.226  0.00  0.00     0.012 A 
ATOM     12  C   UNL d   1      24.718 -16.574  -1.298  0.00  0.00    -0.023 A 
ATOM     13  C   UNL d   1      23.479 -18.575   0.253  0.00  0.00     0.001 A 
ATOM     14  C   UNL d   1      22.701 -17.700  -0.498  0.00  0.00     0.001 A 
ATOM     15  C   UNL d   1      23.315 -16.707  -1.269  0.00  0.00     0.012 A 
ATOM     16  C   UNL d   1      25.363 -15.556  -2.031  0.00  0.00     0.049 A 
ENDBRANCH   6   7
ENDBRANCH   5   6
ENDBRANCH   2   5
BRANCH   1  17
ATOM     17  N   UNL d   1      29.429 -16.561  -5.136  0.00  0.00    -0.176 NA
ATOM     18  C   UNL d   1      30.385 -17.262  -4.591  0.00  0.00     0.061 C 
ATOM     19  C   UNL d   1      31.161 -18.239  -5.466  0.00  0.00     0.073 C 
BRANCH  18  20
ATOM     20  C   UNL d   1      30.758 -17.248  -3.155  0.00  0.00    -0.008 A 
ATOM     21  C   UNL d   1      31.090 -16.064  -2.487  0.00  0.00     0.013 A 
ATOM     22  C   UNL d   1      31.424 -16.114  -1.130  0.00  0.00     0.004 A 
ATOM     23  C   UNL d   1      31.407 -17.333  -0.442  0.00  0.00     0.036 A 
ATOM     24  C   UNL d   1      31.069 -18.497  -1.122  0.00  0.00     0.066 A 
ATOM     25  C   UNL d   1      30.781 -18.466  -2.476  0.00  0.00     0.050 A 
BRANCH  24  26
ATOM     26  O   UNL d   1      30.985 -19.711  -0.512  0.00  0.00    -0.361 OA
ATOM     27  H   UNL d   1      30.242 -19.712   0.111  0.00  0.00     0.217 HD
ENDBRANCH  24  26
ENDBRANCH  18  20
ENDBRANCH   1  17
TORSDOF 6
ENDMDL
MODEL 8
REMARK VINA RESULT:    -6.490      1.879      6.726
REMARK INTER + INTRA:         -10.552
REMARK INTER:                  -8.280
REMARK INTRA:                  -2.272
REMARK CONF_INDEPENDENT:        1.790
REMARK UNBOUND:                -2.272
REMARK  6 active torsions:
REMARK  status: ('A' for Active; 'I' for Inactive)
REMARK    1  A    between atoms: C_2  and  C_19 
REMARK    2  A    between atoms: N_3  and  N_4 
REMARK       I    between atoms: N_4  and  C_5 
REMARK    3  A    between atoms: C_5  and  C_7 
REMARK    4  A    between atoms: C_7  and  O_8 
REMARK    5  A    between atoms: O_8  and  C_9 
REMARK    6  A    between atoms: C_23  and  O_24 
ROOT
ATOM      1  N   UNL d   1      25.459 -14.543  -2.812  0.00  0.00    -0.245 N 
ATOM      2  C   UNL d   1      24.857 -13.828  -3.850  0.00  0.00     0.261 C 
ATOM      3  O   UNL d   1      23.721 -14.074  -4.268  0.00  0.00    -0.269 OA
ATOM      4  H   UNL d   1      26.407 -14.334  -2.525  0.00  0.00     0.192 HD
ENDROOT
BRANCH   2   5
ATOM      5  C   UNL d   1      25.727 -12.691  -4.448  0.00  0.00     0.280 C 
BRANCH   5   6
ATOM      6  O   UNL d   1      27.101 -12.938  -4.133  0.00  0.00    -0.342 OA
BRANCH   6   7
ATOM      7  C   UNL d   1      27.801 -13.894  -4.812  0.00  0.00     0.070 A 
ATOM      8  C   UNL d   1      28.153 -13.842  -6.156  0.00  0.00     0.037 A 
ATOM      9  C   UNL d   1      28.996 -14.827  -6.699  0.00  0.00     0.015 A 
ATOM     10  C   UNL d   1      29.515 -15.867  -5.907  0.00  0.00    -0.026 A 
ATOM     11  C   UNL d   1      30.405 -16.822  -6.431  0.00  0.00     0.012 A 
ATOM     12  C   UNL d   1      29.145 -15.939  -4.548  0.00  0.00    -0.023 A 
ATOM     13  C   UNL d   1      30.917 -17.845  -5.629  0.00  0.00     0.001 A 
ATOM     14  C   UNL d   1      30.541 -17.928  -4.293  0.00  0.00     0.001 A 
ATOM     15  C   UNL d   1      29.661 -16.984  -3.756  0.00  0.00     0.012 A 
ATOM     16  C   UNL d   1      28.290 -14.947  -4.023  0.00  0.00     0.049 A 
ENDBRANCH   6   7
ENDBRANCH   5   6
ENDBRANCH   2   5
BRANCH   1  17
ATOM     17  N   UNL d   1      24.764 -15.561  -2.181  0.00  0.00    -0.176 NA
ATOM     18  C   UNL d   1      25.333 -16.310  -1.276  0.00  0.00     0.061 C 
ATOM     19  C   UNL d   1      24.516 -17.425  -0.635  0.00  0.00     0.073 C 
BRANCH  18  20
ATOM     20  C   UNL d   1      26.710 -16.138  -0.751  0.00  0.00    -0.008 A 
ATOM     21  C   UNL d   1      27.102 -14.984  -0.063  0.00  0.00     0.013 A 
ATOM     22  C   UNL d   1      28.412 -14.885   0.417  0.00  0.00     0.004 A 
ATOM     23  C   UNL d   1      29.316 -15.937   0.229  0.00  0.00     0.036 A 
ATOM     24  C   UNL d   1      28.905 -17.077  -0.452  0.00  0.00     0.066 A 
ATOM     25  C   UNL d   1      27.625 -17.168  -0.971  0.00  0.00     0.050 A 
BRANCH  24  26
ATOM     26  O   UNL d   1      29.710 -18.159  -0.634  0.00  0.00    -0.361 OA
ATOM     27  H   UNL d   1      29.924 -18.554   0.226  0.00  0.00     0.217 HD
ENDBRANCH  24  26
ENDBRANCH  18  20
ENDBRANCH   1  17
TORSDOF 6
ENDMDL
MODEL 9
REMARK VINA RESULT:    -5.808      2.090      4.577
REMARK INTER + INTRA:         -10.612
REMARK INTER:                  -7.598
REMARK INTRA:                  -3.014
REMARK CONF_INDEPENDENT:        1.790
REMARK UNBOUND:                -3.014
REMARK  6 active torsions:
REMARK  status: ('A' for Active; 'I' for Inactive)
REMARK    1  A    between atoms: C_2  and  C_19 
REMARK    2  A    between atoms: N_3  and  N_4 
REMARK       I    between atoms: N_4  and  C_5 
REMARK    3  A    between atoms: C_5  and  C_7 
REMARK    4  A    between atoms: C_7  and  O_8 
REMARK    5  A    between atoms: O_8  and  C_9 
REMARK    6  A    between atoms: C_23  and  O_24 
ROOT
ATOM      1  N   UNL d   1      27.035 -15.086  -5.248  0.00  0.00    -0.245 N 
ATOM      2  C   UNL d   1      26.777 -13.713  -5.239  0.00  0.00     0.261 C 
ATOM      3  O   UNL d   1      27.515 -12.884  -5.782  0.00  0.00    -0.269 OA
ATOM      4  H   UNL d   1      26.424 -15.727  -4.758  0.00  0.00     0.192 HD
ENDROOT
BRANCH   2   5
ATOM      5  C   UNL d   1      25.483 -13.298  -4.489  0.00  0.00     0.280 C 
BRANCH   5   6
ATOM      6  O   UNL d   1      24.860 -14.468  -3.949  0.00  0.00    -0.342 OA
BRANCH   6   7
ATOM      7  C   UNL d   1      25.281 -14.982  -2.756  0.00  0.00     0.070 A 
ATOM      8  C   UNL d   1      25.255 -16.325  -2.397  0.00  0.00     0.037 A 
ATOM      9  C   UNL d   1      25.849 -16.739  -1.192  0.00  0.00     0.015 A 
ATOM     10  C   UNL d   1      26.493 -15.826  -0.338  0.00  0.00    -0.026 A 
ATOM     11  C   UNL d   1      27.139 -16.244   0.840  0.00  0.00     0.012 A 
ATOM     12  C   UNL d   1      26.504 -14.459  -0.686  0.00  0.00    -0.023 A 
ATOM     13  C   UNL d   1      27.780 -15.324   1.673  0.00  0.00     0.001 A 
ATOM     14  C   UNL d   1      27.779 -13.974   1.342  0.00  0.00     0.001 A 
ATOM     15  C   UNL d   1      27.145 -13.543   0.172  0.00  0.00     0.012 A 
ATOM     16  C   UNL d   1      25.894 -14.060  -1.894  0.00  0.00     0.049 A 
ENDBRANCH   6   7
ENDBRANCH   5   6
ENDBRANCH   2   5
BRANCH   1  17
ATOM     17  N   UNL d   1      28.146 -15.575  -5.914  0.00  0.00    -0.176 NA
ATOM     18  C   UNL d   1      29.246 -15.864  -5.273  0.00  0.00     0.061 C 
ATOM     19  C   UNL d   1      30.438 -16.381  -6.070  0.00  0.00     0.073 C 
BRANCH  18  20
ATOM     20  C   UNL d   1      29.435 -15.796  -3.803  0.00  0.00    -0.008 A 
ATOM     21  C   UNL d   1      29.527 -14.576  -3.124  0.00  0.00     0.013 A 
ATOM     22  C   UNL d   1      29.695 -14.577  -1.735  0.00  0.00     0.004 A 
ATOM     23  C   UNL d   1      29.752 -15.785  -1.030  0.00  0.00     0.036 A 
ATOM     24  C   UNL d   1      29.653 -16.986  -1.724  0.00  0.00     0.066 A 
ATOM     25  C   UNL d   1      29.532 -16.998  -3.103  0.00  0.00     0.050 A 
BRANCH  24  26
ATOM     26  O   UNL d   1      29.653 -18.198  -1.105  0.00  0.00    -0.361 OA
ATOM     27  H   UNL d   1      29.715 -18.074  -0.145  0.00  0.00     0.217 HD
ENDBRANCH  24  26
ENDBRANCH  18  20
ENDBRANCH   1  17
TORSDOF 6
ENDMDL
