MODEL 1
REMARK VINA RESULT:    -8.614      0.000      0.000
REMARK INTER + INTRA:         -11.840
REMARK INTER:                 -10.404
REMARK INTRA:                  -1.436
REMARK CONF_INDEPENDENT:        1.790
REMARK UNBOUND:                -1.436
REMARK  6 active torsions:
REMARK  status: ('A' for Active; 'I' for Inactive)
REMARK       I    between atoms: N_6  and  C_7 
REMARK    1  A    between atoms: C_7  and  C_9 
REMARK    2  A    between atoms: C_11  and  N_12 
REMARK    3  A    between atoms: N_12  and  S_13 
REMARK    4  A    between atoms: S_13  and  C_16 
REMARK    5  A    between atoms: C_20  and  N_21 
REMARK    6  A    between atoms: C_27  and  O_28 
ROOT
ATOM      1  C   UNL d   1      27.726 -16.845   0.239  0.00  0.00     0.067 A 
ATOM      2  C   UNL d   1      27.381 -15.534   0.663  0.00  0.00     0.050 A 
ATOM      3  C   UNL d   1      28.355 -14.514   0.708  0.00  0.00     0.043 A 
ATOM      4  C   UNL d   1      29.655 -14.830   0.302  0.00  0.00     0.033 A 
ATOM      5  C   UNL d   1      29.993 -16.108  -0.149  0.00  0.00     0.040 A 
ATOM      6  C   UNL d   1      29.029 -17.105  -0.200  0.00  0.00     0.081 A 
ENDROOT
BRANCH   3   7
ATOM      7  N   UNL d   1      28.019 -13.188   1.182  0.00  0.00    -0.281 N 
ATOM      8  H   UNL d   1      28.518 -12.382   0.813  0.00  0.00     0.179 HD
BRANCH   7   9
ATOM      9  S   UNL d   1      26.838 -12.949   2.382  0.00  0.00     0.263 S 
ATOM     10  O   UNL d   1      25.551 -12.886   1.729  0.00  0.00    -0.200 OA
ATOM     11  O   UNL d   1      27.084 -13.885   3.463  0.00  0.00    -0.200 OA
BRANCH   9  12
ATOM     12  C   UNL d   1      27.176 -11.330   3.043  0.00  0.00     0.082 A 
ATOM     13  C   UNL d   1      28.053 -11.161   4.124  0.00  0.00     0.025 A 
ATOM     14  C   UNL d   1      28.208  -9.895   4.702  0.00  0.00     0.004 A 
ATOM     15  C   UNL d   1      27.566  -8.787   4.145  0.00  0.00     0.036 A 
ATOM     16  C   UNL d   1      26.749  -8.958   3.018  0.00  0.00     0.104 A 
ATOM     17  C   UNL d   1      26.560 -10.226   2.452  0.00  0.00     0.061 A 
BRANCH  16  18
ATOM     18  N   UNL d   1      26.018  -7.811   2.468  0.00  0.00    -0.116 N 
ATOM     19  O   UNL d   1      26.266  -6.691   2.931  0.00  0.00    -0.532 OA
ATOM     20  O   UNL d   1      25.170  -8.043   1.594  0.00  0.00    -0.532 OA
ENDBRANCH  16  18
ENDBRANCH   9  12
ENDBRANCH   7   9
ENDBRANCH   3   7
BRANCH   1  21
ATOM     21  C   UNL d   1      26.693 -17.926   0.199  0.00  0.00     0.256 C 
ATOM     22  N   UNL d   1      25.504 -17.740  -0.523  0.00  0.00    -0.348 N 
ATOM     23  C   UNL d   1      25.175 -16.568  -1.335  0.00  0.00     0.126 C 
ATOM     24  C   UNL d   1      24.466 -18.779  -0.521  0.00  0.00     0.130 C 
ATOM     25  C   UNL d   1      23.840 -15.957  -0.906  0.00  0.00     0.020 C 
ATOM     26  C   UNL d   1      22.723 -16.998  -0.892  0.00  0.00     0.007 C 
ATOM     27  C   UNL d   1      23.122 -18.207  -0.032  0.00  0.00    -0.001 C 
ATOM     28  C   UNL d   1      22.019 -19.265  -0.051  0.00  0.00     0.011 C 
ATOM     29  O   UNL d   1      26.953 -18.962   0.811  0.00  0.00    -0.267 OA
ENDBRANCH   1  21
BRANCH   6  30
ATOM     30  O   UNL d   1      29.365 -18.341  -0.675  0.00  0.00    -0.360 OA
ATOM     31  H   UNL d   1      29.002 -19.032  -0.099  0.00  0.00     0.217 HD
ENDBRANCH   6  30
TORSDOF 6
ENDMDL
MODEL 2
REMARK VINA RESULT:    -8.604      3.587      4.246
REMARK INTER + INTRA:         -12.047
REMARK INTER:                 -10.394
REMARK INTRA:                  -1.653
REMARK CONF_INDEPENDENT:        1.790
REMARK UNBOUND:                -1.653
REMARK  6 active torsions:
REMARK  status: ('A' for Active; 'I' for Inactive)
REMARK       I    between atoms: N_6  and  C_7 
REMARK    1  A    between atoms: C_7  and  C_9 
REMARK    2  A    between atoms: C_11  and  N_12 
REMARK    3  A    between atoms: N_12  and  S_13 
REMARK    4  A    between atoms: S_13  and  C_16 
REMARK    5  A    between atoms: C_20  and  N_21 
REMARK    6  A    between atoms: C_27  and  O_28 
ROOT
ATOM      1  C   UNL d   1      26.685 -14.139  -3.644  0.00  0.00     0.067 A 
ATOM      2  C   UNL d   1      27.337 -13.129  -2.890  0.00  0.00     0.050 A 
ATOM      3  C   UNL d   1      28.593 -12.627  -3.294  0.00  0.00     0.043 A 
ATOM      4  C   UNL d   1      29.156 -13.140  -4.468  0.00  0.00     0.033 A 
ATOM      5  C   UNL d   1      28.503 -14.108  -5.234  0.00  0.00     0.040 A 
ATOM      6  C   UNL d   1      27.265 -14.591  -4.835  0.00  0.00     0.081 A 
ENDROOT
BRANCH   3   7
ATOM      7  N   UNL d   1      29.283 -11.630  -2.505  0.00  0.00    -0.281 N 
ATOM      8  H   UNL d   1      30.213 -11.831  -2.145  0.00  0.00     0.179 HD
BRANCH   7   9
ATOM      9  S   UNL d   1      28.555 -10.141  -2.123  0.00  0.00     0.263 S 
ATOM     10  O   UNL d   1      29.602  -9.153  -2.009  0.00  0.00    -0.200 OA
ATOM     11  O   UNL d   1      27.428  -9.939  -3.014  0.00  0.00    -0.200 OA
BRANCH   9  12
ATOM     12  C   UNL d   1      27.865 -10.371  -0.498  0.00  0.00     0.082 A 
ATOM     13  C   UNL d   1      27.890 -11.627   0.126  0.00  0.00     0.025 A 
ATOM     14  C   UNL d   1      27.236 -11.809   1.350  0.00  0.00     0.004 A 
ATOM     15  C   UNL d   1      26.640 -10.723   1.994  0.00  0.00     0.036 A 
ATOM     16  C   UNL d   1      26.686  -9.456   1.395  0.00  0.00     0.104 A 
ATOM     17  C   UNL d   1      27.310  -9.269   0.154  0.00  0.00     0.061 A 
BRANCH  16  18
ATOM     18  N   UNL d   1      26.006  -8.323   2.033  0.00  0.00    -0.116 N 
ATOM     19  O   UNL d   1      26.280  -8.075   3.214  0.00  0.00    -0.532 OA
ATOM     20  O   UNL d   1      25.172  -7.705   1.356  0.00  0.00    -0.532 OA
ENDBRANCH  16  18
ENDBRANCH   9  12
ENDBRANCH   7   9
ENDBRANCH   3   7
BRANCH   1  21
ATOM     21  C   UNL d   1      25.358 -14.674  -3.208  0.00  0.00     0.256 C 
ATOM     22  N   UNL d   1      25.244 -15.379  -1.999  0.00  0.00    -0.348 N 
ATOM     23  C   UNL d   1      26.325 -15.604  -1.039  0.00  0.00     0.126 C 
ATOM     24  C   UNL d   1      23.953 -15.950  -1.594  0.00  0.00     0.130 C 
ATOM     25  C   UNL d   1      26.497 -17.095  -0.742  0.00  0.00     0.020 C 
ATOM     26  C   UNL d   1      25.180 -17.737  -0.310  0.00  0.00     0.007 C 
ATOM     27  C   UNL d   1      24.080 -17.465  -1.348  0.00  0.00    -0.001 C 
ATOM     28  C   UNL d   1      22.754 -18.076  -0.895  0.00  0.00     0.011 C 
ATOM     29  O   UNL d   1      24.401 -14.450  -3.949  0.00  0.00    -0.267 OA
ENDBRANCH   1  21
BRANCH   6  30
ATOM     30  O   UNL d   1      26.622 -15.513  -5.610  0.00  0.00    -0.360 OA
ATOM     31  H   UNL d   1      25.663 -15.461  -5.471  0.00  0.00     0.217 HD
ENDBRANCH   6  30
TORSDOF 6
ENDMDL
MODEL 3
REMARK VINA RESULT:    -8.406      6.372     10.278
REMARK INTER + INTRA:         -11.823
REMARK INTER:                 -10.196
REMARK INTRA:                  -1.627
REMARK CONF_INDEPENDENT:        1.790
REMARK UNBOUND:                -1.627
REMARK  6 active torsions:
REMARK  status: ('A' for Active; 'I' for Inactive)
REMARK       I    between atoms: N_6  and  C_7 
REMARK    1  A    between atoms: C_7  and  C_9 
REMARK    2  A    between atoms: C_11  and  N_12 
REMARK    3  A    between atoms: N_12  and  S_13 
REMARK    4  A    between atoms: S_13  and  C_16 
REMARK    5  A    between atoms: C_20  and  N_21 
REMARK    6  A    between atoms: C_27  and  O_28 
ROOT
ATOM      1  C   UNL d   1      26.602 -13.967  -4.909  0.00  0.00     0.067 A 
ATOM      2  C   UNL d   1      27.646 -14.808  -5.375  0.00  0.00     0.050 A 
ATOM      3  C   UNL d   1      28.602 -14.326  -6.295  0.00  0.00     0.043 A 
ATOM      4  C   UNL d   1      28.498 -12.994  -6.710  0.00  0.00     0.033 A 
ATOM      5  C   UNL d   1      27.494 -12.151  -6.230  0.00  0.00     0.040 A 
ATOM      6  C   UNL d   1      26.562 -12.629  -5.319  0.00  0.00     0.081 A 
ENDROOT
BRANCH   3   7
ATOM      7  N   UNL d   1      29.642 -15.192  -6.807  0.00  0.00    -0.281 N 
ATOM      8  H   UNL d   1      29.721 -15.343  -7.810  0.00  0.00     0.179 HD
BRANCH   7   9
ATOM      9  S   UNL d   1      30.711 -16.005  -5.764  0.00  0.00     0.263 S 
ATOM     10  O   UNL d   1      32.042 -15.503  -6.017  0.00  0.00    -0.200 OA
ATOM     11  O   UNL d   1      30.148 -15.995  -4.428  0.00  0.00    -0.200 OA
BRANCH   9  12
ATOM     12  C   UNL d   1      30.676 -17.702  -6.303  0.00  0.00     0.082 A 
ATOM     13  C   UNL d   1      30.532 -18.749  -5.380  0.00  0.00     0.025 A 
ATOM     14  C   UNL d   1      30.629 -20.076  -5.814  0.00  0.00     0.004 A 
ATOM     15  C   UNL d   1      30.774 -20.360  -7.174  0.00  0.00     0.036 A 
ATOM     16  C   UNL d   1      30.842 -19.305  -8.095  0.00  0.00     0.104 A 
ATOM     17  C   UNL d   1      30.780 -17.972  -7.668  0.00  0.00     0.061 A 
BRANCH  16  18
ATOM     18  N   UNL d   1      31.061 -19.592  -9.517  0.00  0.00    -0.116 N 
ATOM     19  O   UNL d   1      32.164 -19.306 -10.002  0.00  0.00    -0.532 OA
ATOM     20  O   UNL d   1      30.113 -20.073 -10.154  0.00  0.00    -0.532 OA
ENDBRANCH  16  18
ENDBRANCH   9  12
ENDBRANCH   7   9
ENDBRANCH   3   7
BRANCH   1  21
ATOM     21  C   UNL d   1      25.586 -14.483  -3.941  0.00  0.00     0.256 C 
ATOM     22  N   UNL d   1      25.995 -15.026  -2.712  0.00  0.00    -0.348 N 
ATOM     23  C   UNL d   1      27.373 -15.088  -2.224  0.00  0.00     0.126 C 
ATOM     24  C   UNL d   1      25.004 -15.581  -1.782  0.00  0.00     0.130 C 
ATOM     25  C   UNL d   1      27.764 -16.520  -1.856  0.00  0.00     0.020 C 
ATOM     26  C   UNL d   1      26.764 -17.142  -0.882  0.00  0.00     0.007 C 
ATOM     27  C   UNL d   1      25.336 -17.046  -1.440  0.00  0.00    -0.001 C 
ATOM     28  C   UNL d   1      24.334 -17.634  -0.448  0.00  0.00     0.011 C 
ATOM     29  O   UNL d   1      24.405 -14.389  -4.275  0.00  0.00    -0.267 OA
ENDBRANCH   1  21
BRANCH   6  30
ATOM     30  O   UNL d   1      25.606 -11.785  -4.831  0.00  0.00    -0.360 OA
ATOM     31  H   UNL d   1      24.778 -12.268  -4.675  0.00  0.00     0.217 HD
ENDBRANCH   6  30
TORSDOF 6
ENDMDL
MODEL 4
REMARK VINA RESULT:    -8.248      3.002      3.714
REMARK INTER + INTRA:         -11.557
REMARK INTER:                 -10.038
REMARK INTRA:                  -1.519
REMARK CONF_INDEPENDENT:        1.790
REMARK UNBOUND:                -1.519
REMARK  6 active torsions:
REMARK  status: ('A' for Active; 'I' for Inactive)
REMARK       I    between atoms: N_6  and  C_7 
REMARK    1  A    between atoms: C_7  and  C_9 
REMARK    2  A    between atoms: C_11  and  N_12 
REMARK    3  A    between atoms: N_12  and  S_13 
REMARK    4  A    between atoms: S_13  and  C_16 
REMARK    5  A    between atoms: C_20  and  N_21 
REMARK    6  A    between atoms: C_27  and  O_28 
ROOT
ATOM      1  C   UNL d   1      25.966 -14.498  -2.746  0.00  0.00     0.067 A 
ATOM      2  C   UNL d   1      26.826 -13.876  -1.803  0.00  0.00     0.050 A 
ATOM      3  C   UNL d   1      28.105 -13.421  -2.188  0.00  0.00     0.043 A 
ATOM      4  C   UNL d   1      28.483 -13.582  -3.525  0.00  0.00     0.033 A 
ATOM      5  C   UNL d   1      27.629 -14.161  -4.466  0.00  0.00     0.040 A 
ATOM      6  C   UNL d   1      26.368 -14.599  -4.083  0.00  0.00     0.081 A 
ENDROOT
BRANCH   3   7
ATOM      7  N   UNL d   1      29.003 -12.827  -1.221  0.00  0.00    -0.281 N 
ATOM      8  H   UNL d   1      29.993 -12.741  -1.442  0.00  0.00     0.179 HD
BRANCH   7   9
ATOM      9  S   UNL d   1      28.450 -12.310   0.302  0.00  0.00     0.263 S 
ATOM     10  O   UNL d   1      27.489 -13.279   0.775  0.00  0.00    -0.200 OA
ATOM     11  O   UNL d   1      29.598 -11.939   1.107  0.00  0.00    -0.200 OA
BRANCH   9  12
ATOM     12  C   UNL d   1      27.563 -10.800  -0.020  0.00  0.00     0.082 A 
ATOM     13  C   UNL d   1      27.365 -10.346  -1.333  0.00  0.00     0.025 A 
ATOM     14  C   UNL d   1      26.772  -9.097  -1.554  0.00  0.00     0.004 A 
ATOM     15  C   UNL d   1      26.293  -8.348  -0.477  0.00  0.00     0.036 A 
ATOM     16  C   UNL d   1      26.431  -8.848   0.826  0.00  0.00     0.104 A 
ATOM     17  C   UNL d   1      27.053 -10.081   1.061  0.00  0.00     0.061 A 
BRANCH  16  18
ATOM     18  N   UNL d   1      25.992  -8.037   1.968  0.00  0.00    -0.116 N 
ATOM     19  O   UNL d   1      25.393  -6.980   1.730  0.00  0.00    -0.532 OA
ATOM     20  O   UNL d   1      26.280  -8.447   3.101  0.00  0.00    -0.532 OA
ENDBRANCH  16  18
ENDBRANCH   9  12
ENDBRANCH   7   9
ENDBRANCH   3   7
BRANCH   1  21
ATOM     21  C   UNL d   1      24.614 -14.986  -2.334  0.00  0.00     0.256 C 
ATOM     22  N   UNL d   1      24.488 -15.921  -1.293  0.00  0.00    -0.348 N 
ATOM     23  C   UNL d   1      25.588 -16.449  -0.485  0.00  0.00     0.126 C 
ATOM     24  C   UNL d   1      23.166 -16.441  -0.921  0.00  0.00     0.130 C 
ATOM     25  C   UNL d   1      25.612 -17.977  -0.519  0.00  0.00     0.020 C 
ATOM     26  C   UNL d   1      24.258 -18.570  -0.132  0.00  0.00     0.007 C 
ATOM     27  C   UNL d   1      23.141 -17.979  -1.006  0.00  0.00    -0.001 C 
ATOM     28  C   UNL d   1      21.783 -18.544  -0.593  0.00  0.00     0.011 C 
ATOM     29  O   UNL d   1      23.648 -14.519  -2.937  0.00  0.00    -0.267 OA
ENDBRANCH   1  21
BRANCH   6  30
ATOM     30  O   UNL d   1      25.530 -15.133  -5.019  0.00  0.00    -0.360 OA
ATOM     31  H   UNL d   1      24.629 -14.791  -4.898  0.00  0.00     0.217 HD
ENDBRANCH   6  30
TORSDOF 6
ENDMDL
MODEL 5
REMARK VINA RESULT:    -8.061      4.146      5.184
REMARK INTER + INTRA:         -11.691
REMARK INTER:                  -9.850
REMARK INTRA:                  -1.840
REMARK CONF_INDEPENDENT:        1.790
REMARK UNBOUND:                -1.840
REMARK  6 active torsions:
REMARK  status: ('A' for Active; 'I' for Inactive)
REMARK       I    between atoms: N_6  and  C_7 
REMARK    1  A    between atoms: C_7  and  C_9 
REMARK    2  A    between atoms: C_11  and  N_12 
REMARK    3  A    between atoms: N_12  and  S_13 
REMARK    4  A    between atoms: S_13  and  C_16 
REMARK    5  A    between atoms: C_20  and  N_21 
REMARK    6  A    between atoms: C_27  and  O_28 
ROOT
ATOM      1  C   UNL d   1      26.066 -13.884  -4.026  0.00  0.00     0.067 A 
ATOM      2  C   UNL d   1      25.519 -12.618  -3.689  0.00  0.00     0.050 A 
ATOM      3  C   UNL d   1      25.918 -11.454  -4.381  0.00  0.00     0.043 A 
ATOM      4  C   UNL d   1      26.846 -11.595  -5.417  0.00  0.00     0.033 A 
ATOM      5  C   UNL d   1      27.363 -12.841  -5.778  0.00  0.00     0.040 A 
ATOM      6  C   UNL d   1      26.960 -13.983  -5.099  0.00  0.00     0.081 A 
ENDROOT
BRANCH   3   7
ATOM      7  N   UNL d   1      25.397 -10.156  -4.011  0.00  0.00    -0.281 N 
ATOM      8  H   UNL d   1      24.406  -9.960  -4.133  0.00  0.00     0.179 HD
BRANCH   7   9
ATOM      9  S   UNL d   1      26.414  -8.929  -3.420  0.00  0.00     0.263 S 
ATOM     10  O   UNL d   1      27.672  -9.019  -4.125  0.00  0.00    -0.200 OA
ATOM     11  O   UNL d   1      25.664  -7.688  -3.382  0.00  0.00    -0.200 OA
BRANCH   9  12
ATOM     12  C   UNL d   1      26.727  -9.369  -1.723  0.00  0.00     0.082 A 
ATOM     13  C   UNL d   1      27.423 -10.544  -1.400  0.00  0.00     0.025 A 
ATOM     14  C   UNL d   1      27.551 -10.929  -0.060  0.00  0.00     0.004 A 
ATOM     15  C   UNL d   1      27.070 -10.101   0.957  0.00  0.00     0.036 A 
ATOM     16  C   UNL d   1      26.441  -8.893   0.622  0.00  0.00     0.104 A 
ATOM     17  C   UNL d   1      26.278  -8.514  -0.717  0.00  0.00     0.061 A 
BRANCH  16  18
ATOM     18  N   UNL d   1      25.874  -8.050   1.680  0.00  0.00    -0.116 N 
ATOM     19  O   UNL d   1      26.119  -8.353   2.855  0.00  0.00    -0.532 OA
ATOM     20  O   UNL d   1      25.154  -7.104   1.330  0.00  0.00    -0.532 OA
ENDBRANCH  16  18
ENDBRANCH   9  12
ENDBRANCH   7   9
ENDBRANCH   3   7
BRANCH   1  21
ATOM     21  C   UNL d   1      25.647 -15.114  -3.286  0.00  0.00     0.256 C 
ATOM     22  N   UNL d   1      25.796 -15.183  -1.891  0.00  0.00    -0.348 N 
ATOM     23  C   UNL d   1      26.283 -14.104  -1.032  0.00  0.00     0.126 C 
ATOM     24  C   UNL d   1      25.434 -16.409  -1.168  0.00  0.00     0.130 C 
ATOM     25  C   UNL d   1      27.469 -14.566  -0.184  0.00  0.00     0.020 C 
ATOM     26  C   UNL d   1      27.141 -15.838   0.595  0.00  0.00     0.007 C 
ATOM     27  C   UNL d   1      26.630 -16.935  -0.352  0.00  0.00    -0.001 C 
ATOM     28  C   UNL d   1      26.266 -18.194   0.433  0.00  0.00     0.011 C 
ATOM     29  O   UNL d   1      25.165 -16.026  -3.956  0.00  0.00    -0.267 OA
ENDBRANCH   1  21
BRANCH   6  30
ATOM     30  O   UNL d   1      27.447 -15.200  -5.482  0.00  0.00    -0.360 OA
ATOM     31  H   UNL d   1      27.115 -15.896  -4.893  0.00  0.00     0.217 HD
ENDBRANCH   6  30
TORSDOF 6
ENDMDL
MODEL 6
REMARK VINA RESULT:    -7.814      3.339      8.130
REMARK INTER + INTRA:         -10.622
REMARK INTER:                  -9.603
REMARK INTRA:                  -1.018
REMARK CONF_INDEPENDENT:        1.790
REMARK UNBOUND:                -1.018
REMARK  6 active torsions:
REMARK  status: ('A' for Active; 'I' for Inactive)
REMARK       I    between atoms: N_6  and  C_7 
REMARK    1  A    between atoms: C_7  and  C_9 
REMARK    2  A    between atoms: C_11  and  N_12 
REMARK    3  A    between atoms: N_12  and  S_13 
REMARK    4  A    between atoms: S_13  and  C_16 
REMARK    5  A    between atoms: C_20  and  N_21 
REMARK    6  A    between atoms: C_27  and  O_28 
ROOT
ATOM      1  C   UNL d   1      28.092 -13.979   2.982  0.00  0.00     0.067 A 
ATOM      2  C   UNL d   1      27.052 -13.830   2.026  0.00  0.00     0.050 A 
ATOM      3  C   UNL d   1      27.325 -13.932   0.645  0.00  0.00     0.043 A 
ATOM      4  C   UNL d   1      28.641 -14.206   0.256  0.00  0.00     0.033 A 
ATOM      5  C   UNL d   1      29.661 -14.388   1.191  0.00  0.00     0.040 A 
ATOM      6  C   UNL d   1      29.384 -14.295   2.548  0.00  0.00     0.081 A 
ENDROOT
BRANCH   3   7
ATOM      7  N   UNL d   1      26.279 -13.737  -0.335  0.00  0.00    -0.281 N 
ATOM      8  H   UNL d   1      25.633 -12.958  -0.231  0.00  0.00     0.179 HD
BRANCH   7   9
ATOM      9  S   UNL d   1      26.072 -14.812  -1.637  0.00  0.00     0.263 S 
ATOM     10  O   UNL d   1      25.121 -14.221  -2.551  0.00  0.00    -0.200 OA
ATOM     11  O   UNL d   1      27.381 -15.241  -2.091  0.00  0.00    -0.200 OA
BRANCH   9  12
ATOM     12  C   UNL d   1      25.298 -16.250  -0.927  0.00  0.00     0.082 A 
ATOM     13  C   UNL d   1      26.013 -17.108  -0.078  0.00  0.00     0.025 A 
ATOM     14  C   UNL d   1      25.420 -18.295   0.369  0.00  0.00     0.004 A 
ATOM     15  C   UNL d   1      24.090 -18.578   0.050  0.00  0.00     0.036 A 
ATOM     16  C   UNL d   1      23.363 -17.675  -0.738  0.00  0.00     0.104 A 
ATOM     17  C   UNL d   1      23.957 -16.500  -1.219  0.00  0.00     0.061 A 
BRANCH  16  18
ATOM     18  N   UNL d   1      21.987 -17.996  -1.134  0.00  0.00    -0.116 N 
ATOM     19  O   UNL d   1      21.108 -17.156  -0.900  0.00  0.00    -0.532 OA
ATOM     20  O   UNL d   1      21.786 -19.105  -1.648  0.00  0.00    -0.532 OA
ENDBRANCH  16  18
ENDBRANCH   9  12
ENDBRANCH   7   9
ENDBRANCH   3   7
BRANCH   1  21
ATOM     21  C   UNL d   1      27.801 -13.862   4.444  0.00  0.00     0.256 C 
ATOM     22  N   UNL d   1      27.997 -12.640   5.107  0.00  0.00    -0.348 N 
ATOM     23  C   UNL d   1      28.416 -11.387   4.478  0.00  0.00     0.126 C 
ATOM     24  C   UNL d   1      27.761 -12.537   6.553  0.00  0.00     0.130 C 
ATOM     25  C   UNL d   1      29.662 -10.819   5.159  0.00  0.00     0.020 C 
ATOM     26  C   UNL d   1      29.466 -10.685   6.668  0.00  0.00     0.007 C 
ATOM     27  C   UNL d   1      29.021 -12.025   7.276  0.00  0.00    -0.001 C 
ATOM     28  C   UNL d   1      28.789 -11.880   8.779  0.00  0.00     0.011 C 
ATOM     29  O   UNL d   1      27.378 -14.872   5.006  0.00  0.00    -0.267 OA
ENDBRANCH   1  21
BRANCH   6  30
ATOM     30  O   UNL d   1      30.384 -14.508   3.454  0.00  0.00    -0.360 OA
ATOM     31  H   UNL d   1      30.235 -15.340   3.931  0.00  0.00     0.217 HD
ENDBRANCH   6  30
TORSDOF 6
ENDMDL
MODEL 7
REMARK VINA RESULT:    -7.756      4.695      5.767
REMARK INTER + INTRA:         -10.939
REMARK INTER:                  -9.546
REMARK INTRA:                  -1.393
REMARK CONF_INDEPENDENT:        1.790
REMARK UNBOUND:                -1.393
REMARK  6 active torsions:
REMARK  status: ('A' for Active; 'I' for Inactive)
REMARK       I    between atoms: N_6  and  C_7 
REMARK    1  A    between atoms: C_7  and  C_9 
REMARK    2  A    between atoms: C_11  and  N_12 
REMARK    3  A    between atoms: N_12  and  S_13 
REMARK    4  A    between atoms: S_13  and  C_16 
REMARK    5  A    between atoms: C_20  and  N_21 
REMARK    6  A    between atoms: C_27  and  O_28 
ROOT
ATOM      1  C   UNL d   1      26.126 -13.913  -3.972  0.00  0.00     0.067 A 
ATOM      2  C   UNL d   1      25.632 -12.628  -3.626  0.00  0.00     0.050 A 
ATOM      3  C   UNL d   1      26.039 -11.483  -4.345  0.00  0.00     0.043 A 
ATOM      4  C   UNL d   1      26.921 -11.661  -5.416  0.00  0.00     0.033 A 
ATOM      5  C   UNL d   1      27.384 -12.926  -5.784  0.00  0.00     0.040 A 
ATOM      6  C   UNL d   1      26.973 -14.049  -5.078  0.00  0.00     0.081 A 
ENDROOT
BRANCH   3   7
ATOM      7  N   UNL d   1      25.573 -10.166  -3.968  0.00  0.00    -0.281 N 
ATOM      8  H   UNL d   1      24.579 -10.008  -3.819  0.00  0.00     0.179 HD
BRANCH   7   9
ATOM      9  S   UNL d   1      26.648  -8.857  -3.812  0.00  0.00     0.263 S 
ATOM     10  O   UNL d   1      27.835  -9.337  -3.142  0.00  0.00    -0.200 OA
ATOM     11  O   UNL d   1      26.733  -8.177  -5.090  0.00  0.00    -0.200 OA
BRANCH   9  12
ATOM     12  C   UNL d   1      25.836  -7.726  -2.702  0.00  0.00     0.082 A 
ATOM     13  C   UNL d   1      25.285  -6.525  -3.173  0.00  0.00     0.025 A 
ATOM     14  C   UNL d   1      24.760  -5.598  -2.264  0.00  0.00     0.004 A 
ATOM     15  C   UNL d   1      24.700  -5.907  -0.904  0.00  0.00     0.036 A 
ATOM     16  C   UNL d   1      25.187  -7.143  -0.455  0.00  0.00     0.104 A 
ATOM     17  C   UNL d   1      25.745  -8.064  -1.352  0.00  0.00     0.061 A 
BRANCH  16  18
ATOM     18  N   UNL d   1      25.189  -7.449   0.980  0.00  0.00    -0.116 N 
ATOM     19  O   UNL d   1      25.385  -6.515   1.769  0.00  0.00    -0.532 OA
ATOM     20  O   UNL d   1      25.028  -8.632   1.310  0.00  0.00    -0.532 OA
ENDBRANCH  16  18
ENDBRANCH   9  12
ENDBRANCH   7   9
ENDBRANCH   3   7
BRANCH   1  21
ATOM     21  C   UNL d   1      25.699 -15.122  -3.204  0.00  0.00     0.256 C 
ATOM     22  N   UNL d   1      25.911 -15.189  -1.817  0.00  0.00    -0.348 N 
ATOM     23  C   UNL d   1      26.474 -14.122  -0.989  0.00  0.00     0.126 C 
ATOM     24  C   UNL d   1      25.540 -16.396  -1.069  0.00  0.00     0.130 C 
ATOM     25  C   UNL d   1      27.681 -14.620  -0.194  0.00  0.00     0.020 C 
ATOM     26  C   UNL d   1      27.346 -15.876   0.609  0.00  0.00     0.007 C 
ATOM     27  C   UNL d   1      26.753 -16.960  -0.305  0.00  0.00    -0.001 C 
ATOM     28  C   UNL d   1      26.383 -18.200   0.506  0.00  0.00     0.011 C 
ATOM     29  O   UNL d   1      25.155 -16.021  -3.844  0.00  0.00    -0.267 OA
ENDBRANCH   1  21
BRANCH   6  30
ATOM     30  O   UNL d   1      27.407 -15.283  -5.469  0.00  0.00    -0.360 OA
ATOM     31  H   UNL d   1      26.783 -15.967  -5.176  0.00  0.00     0.217 HD
ENDBRANCH   6  30
TORSDOF 6
ENDMDL
MODEL 8
REMARK VINA RESULT:    -7.754      3.557      5.210
REMARK INTER + INTRA:         -11.629
REMARK INTER:                  -9.544
REMARK INTRA:                  -2.085
REMARK CONF_INDEPENDENT:        1.790
REMARK UNBOUND:                -2.085
REMARK  6 active torsions:
REMARK  status: ('A' for Active; 'I' for Inactive)
REMARK       I    between atoms: N_6  and  C_7 
REMARK    1  A    between atoms: C_7  and  C_9 
REMARK    2  A    between atoms: C_11  and  N_12 
REMARK    3  A    between atoms: N_12  and  S_13 
REMARK    4  A    between atoms: S_13  and  C_16 
REMARK    5  A    between atoms: C_20  and  N_21 
REMARK    6  A    between atoms: C_27  and  O_28 
ROOT
ATOM      1  C   UNL d   1      28.236 -16.858  -0.289  0.00  0.00     0.067 A 
ATOM      2  C   UNL d   1      28.037 -15.453  -0.330  0.00  0.00     0.050 A 
ATOM      3  C   UNL d   1      29.122 -14.579  -0.553  0.00  0.00     0.043 A 
ATOM      4  C   UNL d   1      30.386 -15.143  -0.756  0.00  0.00     0.033 A 
ATOM      5  C   UNL d   1      30.584 -16.525  -0.752  0.00  0.00     0.040 A 
ATOM      6  C   UNL d   1      29.511 -17.379  -0.540  0.00  0.00     0.081 A 
ENDROOT
BRANCH   3   7
ATOM      7  N   UNL d   1      28.933 -13.145  -0.551  0.00  0.00    -0.281 N 
ATOM      8  H   UNL d   1      29.744 -12.531  -0.522  0.00  0.00     0.179 HD
BRANCH   7   9
ATOM      9  S   UNL d   1      27.377 -12.456  -0.547  0.00  0.00     0.263 S 
ATOM     10  O   UNL d   1      26.499 -13.353   0.168  0.00  0.00    -0.200 OA
ATOM     11  O   UNL d   1      27.493 -11.061  -0.168  0.00  0.00    -0.200 OA
BRANCH   9  12
ATOM     12  C   UNL d   1      26.867 -12.465  -2.253  0.00  0.00     0.082 A 
ATOM     13  C   UNL d   1      26.477 -11.281  -2.895  0.00  0.00     0.025 A 
ATOM     14  C   UNL d   1      25.966 -11.332  -4.198  0.00  0.00     0.004 A 
ATOM     15  C   UNL d   1      25.932 -12.545  -4.890  0.00  0.00     0.036 A 
ATOM     16  C   UNL d   1      26.395 -13.710  -4.262  0.00  0.00     0.104 A 
ATOM     17  C   UNL d   1      26.877 -13.676  -2.947  0.00  0.00     0.061 A 
BRANCH  16  18
ATOM     18  N   UNL d   1      26.301 -14.999  -4.957  0.00  0.00    -0.116 N 
ATOM     19  O   UNL d   1      27.304 -15.406  -5.558  0.00  0.00    -0.532 OA
ATOM     20  O   UNL d   1      25.209 -15.584  -4.927  0.00  0.00    -0.532 OA
ENDBRANCH  16  18
ENDBRANCH   9  12
ENDBRANCH   7   9
ENDBRANCH   3   7
BRANCH   1  21
ATOM     21  C   UNL d   1      27.086 -17.781  -0.044  0.00  0.00     0.256 C 
ATOM     22  N   UNL d   1      25.894 -17.633  -0.772  0.00  0.00    -0.348 N 
ATOM     23  C   UNL d   1      25.666 -16.664  -1.845  0.00  0.00     0.126 C 
ATOM     24  C   UNL d   1      24.745 -18.505  -0.497  0.00  0.00     0.130 C 
ATOM     25  C   UNL d   1      24.432 -15.808  -1.560  0.00  0.00     0.020 C 
ATOM     26  C   UNL d   1      23.204 -16.669  -1.272  0.00  0.00     0.007 C 
ATOM     27  C   UNL d   1      23.499 -17.671  -0.145  0.00  0.00    -0.001 C 
ATOM     28  C   UNL d   1      22.282 -18.557   0.116  0.00  0.00     0.011 C 
ATOM     29  O   UNL d   1      27.252 -18.660   0.801  0.00  0.00    -0.267 OA
ENDBRANCH   1  21
BRANCH   6  30
ATOM     30  O   UNL d   1      29.711 -18.730  -0.572  0.00  0.00    -0.360 OA
ATOM     31  H   UNL d   1      29.224 -19.160   0.148  0.00  0.00     0.217 HD
ENDBRANCH   6  30
TORSDOF 6
ENDMDL
MODEL 9
REMARK VINA RESULT:    -7.433      5.849      9.882
REMARK INTER + INTRA:         -10.869
REMARK INTER:                  -9.222
REMARK INTRA:                  -1.646
REMARK CONF_INDEPENDENT:        1.790
REMARK UNBOUND:                -1.646
REMARK  6 active torsions:
REMARK  status: ('A' for Active; 'I' for Inactive)
REMARK       I    between atoms: N_6  and  C_7 
REMARK    1  A    between atoms: C_7  and  C_9 
REMARK    2  A    between atoms: C_11  and  N_12 
REMARK    3  A    between atoms: N_12  and  S_13 
REMARK    4  A    between atoms: S_13  and  C_16 
REMARK    5  A    between atoms: C_20  and  N_21 
REMARK    6  A    between atoms: C_27  and  O_28 
ROOT
ATOM      1  C   UNL d   1      26.562 -13.754  -4.993  0.00  0.00     0.067 A 
ATOM      2  C   UNL d   1      27.578 -14.596  -5.515  0.00  0.00     0.050 A 
ATOM      3  C   UNL d   1      28.494 -14.110  -6.473  0.00  0.00     0.043 A 
ATOM      4  C   UNL d   1      28.379 -12.773  -6.869  0.00  0.00     0.033 A 
ATOM      5  C   UNL d   1      27.404 -11.929  -6.334  0.00  0.00     0.040 A 
ATOM      6  C   UNL d   1      26.512 -12.411  -5.386  0.00  0.00     0.081 A 
ENDROOT
BRANCH   3   7
ATOM      7  N   UNL d   1      29.503 -14.976  -7.042  0.00  0.00    -0.281 N 
ATOM      8  H   UNL d   1      29.422 -15.272  -8.012  0.00  0.00     0.179 HD
BRANCH   7   9
ATOM      9  S   UNL d   1      30.803 -15.553  -6.110  0.00  0.00     0.263 S 
ATOM     10  O   UNL d   1      32.019 -14.988  -6.649  0.00  0.00    -0.200 OA
ATOM     11  O   UNL d   1      30.466 -15.404  -4.707  0.00  0.00    -0.200 OA
BRANCH   9  12
ATOM     12  C   UNL d   1      30.851 -17.305  -6.423  0.00  0.00     0.082 A 
ATOM     13  C   UNL d   1      30.916 -17.802  -7.734  0.00  0.00     0.025 A 
ATOM     14  C   UNL d   1      30.830 -19.181  -7.959  0.00  0.00     0.004 A 
ATOM     15  C   UNL d   1      30.776 -20.066  -6.880  0.00  0.00     0.036 A 
ATOM     16  C   UNL d   1      30.787 -19.559  -5.572  0.00  0.00     0.104 A 
ATOM     17  C   UNL d   1      30.839 -18.179  -5.336  0.00  0.00     0.061 A 
BRANCH  16  18
ATOM     18  N   UNL d   1      30.663 -20.477  -4.434  0.00  0.00    -0.116 N 
ATOM     19  O   UNL d   1      31.210 -20.156  -3.371  0.00  0.00    -0.532 OA
ATOM     20  O   UNL d   1      30.046 -21.535  -4.620  0.00  0.00    -0.532 OA
ENDBRANCH  16  18
ENDBRANCH   9  12
ENDBRANCH   7   9
ENDBRANCH   3   7
BRANCH   1  21
ATOM     21  C   UNL d   1      25.589 -14.274  -3.984  0.00  0.00     0.256 C 
ATOM     22  N   UNL d   1      26.050 -14.833  -2.781  0.00  0.00    -0.348 N 
ATOM     23  C   UNL d   1      27.449 -14.908  -2.358  0.00  0.00     0.126 C 
ATOM     24  C   UNL d   1      25.100 -15.392  -1.812  0.00  0.00     0.130 C 
ATOM     25  C   UNL d   1      27.847 -16.346  -2.023  0.00  0.00     0.020 C 
ATOM     26  C   UNL d   1      26.890 -16.973  -1.011  0.00  0.00     0.007 C 
ATOM     27  C   UNL d   1      25.438 -16.862  -1.501  0.00  0.00    -0.001 C 
ATOM     28  C   UNL d   1      24.479 -17.456  -0.470  0.00  0.00     0.011 C 
ATOM     29  O   UNL d   1      24.394 -14.171  -4.262  0.00  0.00    -0.267 OA
ENDBRANCH   1  21
BRANCH   6  30
ATOM     30  O   UNL d   1      25.584 -11.567  -4.846  0.00  0.00    -0.360 OA
ATOM     31  H   UNL d   1      24.756 -12.043  -4.672  0.00  0.00     0.217 HD
ENDBRANCH   6  30
TORSDOF 6
ENDMDL
