MODEL 1
REMARK VINA RESULT:    -6.854      0.000      0.000
REMARK INTER + INTRA:          -8.858
REMARK INTER:                  -7.748
REMARK INTRA:                  -1.109
REMARK CONF_INDEPENDENT:        0.895
REMARK UNBOUND:                -1.109
REMARK  3 active torsions:
REMARK  status: ('A' for Active; 'I' for Inactive)
REMARK    1  A    between atoms: C_5  and  C_6 
REMARK       I    between atoms: C_6  and  N_8 
REMARK    2  A    between atoms: N_8  and  N_9 
REMARK    3  A    between atoms: C_10  and  C_11 
ROOT
ATOM      1  N   UNL d   1      24.767 -14.074  -4.270  0.00  0.00    -0.183 NA
ATOM      2  C   UNL d   1      24.443 -14.450  -3.063  0.00  0.00     0.152 C 
ENDROOT
BRANCH   1   3
ATOM      3  N   UNL d   1      25.948 -14.514  -4.834  0.00  0.00    -0.241 N 
ATOM      4  C   UNL d   1      26.882 -13.638  -5.395  0.00  0.00     0.295 C 
ATOM      5  O   UNL d   1      26.683 -12.423  -5.480  0.00  0.00    -0.264 OA
ATOM      6  H   UNL d   1      26.146 -15.505  -4.820  0.00  0.00     0.192 HD
BRANCH   4   7
ATOM      7  C   UNL d   1      28.113 -14.285  -5.865  0.00  0.00     0.144 A 
ATOM      8  C   UNL d   1      29.144 -13.854  -6.687  0.00  0.00     0.045 A 
ATOM      9  C   UNL d   1      30.076 -14.914  -6.796  0.00  0.00     0.035 A 
ATOM     10  C   UNL d   1      29.579 -15.950  -6.040  0.00  0.00     0.050 A 
ATOM     11  C   UNL d   1      30.091 -17.312  -5.757  0.00  0.00     0.076 C 
ATOM     12  O   UNL d   1      28.390 -15.582  -5.475  0.00  0.00    -0.310 OA
ENDBRANCH   4   7
ENDBRANCH   1   3
BRANCH   2  13
ATOM     13  C   UNL d   1      25.271 -15.244  -2.172  0.00  0.00     0.011 A 
ATOM     14  C   UNL d   1      26.619 -15.059  -1.922  0.00  0.00     0.102 A 
ATOM     15  N   UNL d   1      27.004 -15.965  -0.961  0.00  0.00    -0.364 N 
ATOM     16  C   UNL d   1      25.955 -16.804  -0.656  0.00  0.00     0.043 A 
ATOM     17  H   UNL d   1      27.927 -16.022  -0.550  0.00  0.00     0.165 HD
ATOM     18  C   UNL d   1      25.869 -17.892   0.223  0.00  0.00     0.030 A 
ATOM     19  C   UNL d   1      24.874 -16.396  -1.431  0.00  0.00     0.004 A 
ATOM     20  C   UNL d   1      24.646 -18.575   0.292  0.00  0.00     0.002 A 
ATOM     21  C   UNL d   1      23.554 -18.189  -0.478  0.00  0.00     0.001 A 
ATOM     22  C   UNL d   1      23.664 -17.114  -1.352  0.00  0.00     0.014 A 
ENDBRANCH   2  13
TORSDOF 3
ENDMDL
MODEL 2
REMARK VINA RESULT:    -6.214      2.709      6.384
REMARK INTER + INTRA:          -8.264
REMARK INTER:                  -7.109
REMARK INTRA:                  -1.156
REMARK CONF_INDEPENDENT:        0.895
REMARK UNBOUND:                -1.156
REMARK  3 active torsions:
REMARK  status: ('A' for Active; 'I' for Inactive)
REMARK    1  A    between atoms: C_5  and  C_6 
REMARK       I    between atoms: C_6  and  N_8 
REMARK    2  A    between atoms: N_8  and  N_9 
REMARK    3  A    between atoms: C_10  and  C_11 
ROOT
ATOM      1  N   UNL d   1      27.355 -15.138  -5.396  0.00  0.00    -0.183 NA
ATOM      2  C   UNL d   1      27.394 -13.859  -5.657  0.00  0.00     0.152 C 
ENDROOT
BRANCH   1   3
ATOM      3  N   UNL d   1      26.909 -15.575  -4.165  0.00  0.00    -0.241 N 
ATOM      4  C   UNL d   1      25.601 -15.357  -3.722  0.00  0.00     0.295 C 
ATOM      5  O   UNL d   1      24.781 -14.707  -4.374  0.00  0.00    -0.264 OA
ATOM      6  H   UNL d   1      27.552 -16.087  -3.576  0.00  0.00     0.192 HD
BRANCH   4   7
ATOM      7  C   UNL d   1      25.291 -15.973  -2.426  0.00  0.00     0.144 A 
ATOM      8  C   UNL d   1      24.144 -15.987  -1.645  0.00  0.00     0.045 A 
ATOM      9  C   UNL d   1      24.427 -16.744  -0.483  0.00  0.00     0.035 A 
ATOM     10  C   UNL d   1      25.733 -17.160  -0.597  0.00  0.00     0.050 A 
ATOM     11  C   UNL d   1      26.600 -17.977   0.287  0.00  0.00     0.076 C 
ATOM     12  O   UNL d   1      26.267 -16.696  -1.766  0.00  0.00    -0.310 OA
ENDBRANCH   4   7
ENDBRANCH   1   3
BRANCH   2  13
ATOM     13  C   UNL d   1      27.090 -12.794  -4.718  0.00  0.00     0.011 A 
ATOM     14  C   UNL d   1      27.387 -12.782  -3.367  0.00  0.00     0.102 A 
ATOM     15  N   UNL d   1      27.009 -11.562  -2.856  0.00  0.00    -0.364 N 
ATOM     16  C   UNL d   1      26.376 -10.819  -3.829  0.00  0.00     0.043 A 
ATOM     17  H   UNL d   1      27.154 -11.258  -1.902  0.00  0.00     0.165 HD
ATOM     18  C   UNL d   1      25.791  -9.547  -3.784  0.00  0.00     0.030 A 
ATOM     19  C   UNL d   1      26.381 -11.587  -4.989  0.00  0.00     0.004 A 
ATOM     20  C   UNL d   1      25.191  -9.066  -4.958  0.00  0.00     0.002 A 
ATOM     21  C   UNL d   1      25.179  -9.818  -6.127  0.00  0.00     0.001 A 
ATOM     22  C   UNL d   1      25.756 -11.083  -6.147  0.00  0.00     0.014 A 
ENDBRANCH   2  13
TORSDOF 3
ENDMDL
MODEL 3
REMARK VINA RESULT:    -6.159      2.278      6.367
REMARK INTER + INTRA:          -8.145
REMARK INTER:                  -7.054
REMARK INTRA:                  -1.091
REMARK CONF_INDEPENDENT:        0.895
REMARK UNBOUND:                -1.091
REMARK  3 active torsions:
REMARK  status: ('A' for Active; 'I' for Inactive)
REMARK    1  A    between atoms: C_5  and  C_6 
REMARK       I    between atoms: C_6  and  N_8 
REMARK    2  A    between atoms: N_8  and  N_9 
REMARK    3  A    between atoms: C_10  and  C_11 
ROOT
ATOM      1  N   UNL d   1      27.778 -15.164  -5.399  0.00  0.00    -0.183 NA
ATOM      2  C   UNL d   1      28.957 -15.578  -5.773  0.00  0.00     0.152 C 
ENDROOT
BRANCH   1   3
ATOM      3  N   UNL d   1      27.257 -15.575  -4.188  0.00  0.00    -0.241 N 
ATOM      4  C   UNL d   1      25.917 -15.377  -3.844  0.00  0.00     0.295 C 
ATOM      5  O   UNL d   1      25.128 -14.768  -4.571  0.00  0.00    -0.264 OA
ATOM      6  H   UNL d   1      27.869 -16.051  -3.540  0.00  0.00     0.192 HD
BRANCH   4   7
ATOM      7  C   UNL d   1      25.531 -15.960  -2.553  0.00  0.00     0.144 A 
ATOM      8  C   UNL d   1      24.343 -15.949  -1.836  0.00  0.00     0.045 A 
ATOM      9  C   UNL d   1      24.556 -16.681  -0.643  0.00  0.00     0.035 A 
ATOM     10  C   UNL d   1      25.863 -17.108  -0.675  0.00  0.00     0.050 A 
ATOM     11  C   UNL d   1      26.673 -17.910   0.272  0.00  0.00     0.076 C 
ATOM     12  O   UNL d   1      26.464 -16.675  -1.824  0.00  0.00    -0.310 OA
ENDBRANCH   4   7
ENDBRANCH   1   3
BRANCH   2  13
ATOM     13  C   UNL d   1      29.782 -16.541  -5.064  0.00  0.00     0.011 A 
ATOM     14  C   UNL d   1      30.184 -16.461  -3.743  0.00  0.00     0.102 A 
ATOM     15  N   UNL d   1      30.880 -17.608  -3.438  0.00  0.00    -0.364 N 
ATOM     16  C   UNL d   1      31.026 -18.386  -4.566  0.00  0.00     0.043 A 
ATOM     17  H   UNL d   1      31.248 -17.841  -2.525  0.00  0.00     0.165 HD
ATOM     18  C   UNL d   1      31.679 -19.609  -4.765  0.00  0.00     0.030 A 
ATOM     19  C   UNL d   1      30.382 -17.717  -5.602  0.00  0.00     0.004 A 
ATOM     20  C   UNL d   1      31.674 -20.144  -6.062  0.00  0.00     0.002 A 
ATOM     21  C   UNL d   1      31.042 -19.491  -7.114  0.00  0.00     0.001 A 
ATOM     22  C   UNL d   1      30.409 -18.272  -6.897  0.00  0.00     0.014 A 
ENDBRANCH   2  13
TORSDOF 3
ENDMDL
MODEL 4
REMARK VINA RESULT:    -6.155      2.021      3.263
REMARK INTER + INTRA:          -8.428
REMARK INTER:                  -7.049
REMARK INTRA:                  -1.379
REMARK CONF_INDEPENDENT:        0.895
REMARK UNBOUND:                -1.379
REMARK  3 active torsions:
REMARK  status: ('A' for Active; 'I' for Inactive)
REMARK    1  A    between atoms: C_5  and  C_6 
REMARK       I    between atoms: C_6  and  N_8 
REMARK    2  A    between atoms: N_8  and  N_9 
REMARK    3  A    between atoms: C_10  and  C_11 
ROOT
ATOM      1  N   UNL d   1      24.543 -16.426  -2.353  0.00  0.00    -0.183 NA
ATOM      2  C   UNL d   1      24.861 -16.797  -1.143  0.00  0.00     0.152 C 
ENDROOT
BRANCH   1   3
ATOM      3  N   UNL d   1      25.532 -16.037  -3.235  0.00  0.00    -0.241 N 
ATOM      4  C   UNL d   1      25.465 -14.839  -3.953  0.00  0.00     0.295 C 
ATOM      5  O   UNL d   1      24.491 -14.084  -3.894  0.00  0.00    -0.264 OA
ATOM      6  H   UNL d   1      26.338 -16.636  -3.347  0.00  0.00     0.192 HD
BRANCH   4   7
ATOM      7  C   UNL d   1      26.650 -14.558  -4.773  0.00  0.00     0.144 A 
ATOM      8  C   UNL d   1      27.102 -13.409  -5.406  0.00  0.00     0.045 A 
ATOM      9  C   UNL d   1      28.315 -13.730  -6.061  0.00  0.00     0.035 A 
ATOM     10  C   UNL d   1      28.556 -15.061  -5.807  0.00  0.00     0.050 A 
ATOM     11  C   UNL d   1      29.655 -15.970  -6.210  0.00  0.00     0.076 C 
ATOM     12  O   UNL d   1      27.554 -15.573  -5.031  0.00  0.00    -0.310 OA
ENDBRANCH   4   7
ENDBRANCH   1   3
BRANCH   2  13
ATOM     13  C   UNL d   1      26.194 -16.756  -0.567  0.00  0.00     0.011 A 
ATOM     14  C   UNL d   1      26.958 -17.846  -0.189  0.00  0.00     0.102 A 
ATOM     15  N   UNL d   1      28.183 -17.384   0.230  0.00  0.00    -0.364 N 
ATOM     16  C   UNL d   1      28.194 -16.006   0.230  0.00  0.00     0.043 A 
ATOM     17  H   UNL d   1      28.960 -17.967   0.517  0.00  0.00     0.165 HD
ATOM     18  C   UNL d   1      29.186 -15.091   0.605  0.00  0.00     0.030 A 
ATOM     19  C   UNL d   1      26.946 -15.594  -0.227  0.00  0.00     0.004 A 
ATOM     20  C   UNL d   1      28.878 -13.725   0.513  0.00  0.00     0.002 A 
ATOM     21  C   UNL d   1      27.635 -13.290   0.065  0.00  0.00     0.001 A 
ATOM     22  C   UNL d   1      26.661 -14.215  -0.290  0.00  0.00     0.014 A 
ENDBRANCH   2  13
TORSDOF 3
ENDMDL
MODEL 5
REMARK VINA RESULT:    -5.941      4.152      6.736
REMARK INTER + INTRA:          -8.314
REMARK INTER:                  -6.835
REMARK INTRA:                  -1.479
REMARK CONF_INDEPENDENT:        0.895
REMARK UNBOUND:                -1.479
REMARK  3 active torsions:
REMARK  status: ('A' for Active; 'I' for Inactive)
REMARK    1  A    between atoms: C_5  and  C_6 
REMARK       I    between atoms: C_6  and  N_8 
REMARK    2  A    between atoms: N_8  and  N_9 
REMARK    3  A    between atoms: C_10  and  C_11 
ROOT
ATOM      1  N   UNL d   1      29.557 -16.084  -0.400  0.00  0.00    -0.183 NA
ATOM      2  C   UNL d   1      28.743 -16.941  -0.954  0.00  0.00     0.152 C 
ENDROOT
BRANCH   1   3
ATOM      3  N   UNL d   1      29.259 -15.556   0.841  0.00  0.00    -0.241 N 
ATOM      4  C   UNL d   1      28.277 -14.577   1.022  0.00  0.00     0.295 C 
ATOM      5  O   UNL d   1      27.659 -14.077   0.079  0.00  0.00    -0.264 OA
ATOM      6  H   UNL d   1      29.760 -15.908   1.645  0.00  0.00     0.192 HD
BRANCH   4   7
ATOM      7  C   UNL d   1      28.044 -14.205   2.423  0.00  0.00     0.144 A 
ATOM      8  C   UNL d   1      27.187 -13.293   3.021  0.00  0.00     0.045 A 
ATOM      9  C   UNL d   1      27.399 -13.359   4.419  0.00  0.00     0.035 A 
ATOM     10  C   UNL d   1      28.376 -14.307   4.621  0.00  0.00     0.050 A 
ATOM     11  C   UNL d   1      29.023 -14.825   5.850  0.00  0.00     0.076 C 
ATOM     12  O   UNL d   1      28.776 -14.823   3.420  0.00  0.00    -0.310 OA
ENDBRANCH   4   7
ENDBRANCH   1   3
BRANCH   2  13
ATOM     13  C   UNL d   1      27.454 -17.350  -0.424  0.00  0.00     0.011 A 
ATOM     14  C   UNL d   1      27.235 -18.296   0.561  0.00  0.00     0.102 A 
ATOM     15  N   UNL d   1      25.886 -18.328   0.831  0.00  0.00    -0.364 N 
ATOM     16  C   UNL d   1      25.212 -17.493  -0.034  0.00  0.00     0.043 A 
ATOM     17  H   UNL d   1      25.448 -18.894   1.546  0.00  0.00     0.165 HD
ATOM     18  C   UNL d   1      23.845 -17.219  -0.174  0.00  0.00     0.030 A 
ATOM     19  C   UNL d   1      26.170 -16.903  -0.853  0.00  0.00     0.004 A 
ATOM     20  C   UNL d   1      23.463 -16.325  -1.185  0.00  0.00     0.002 A 
ATOM     21  C   UNL d   1      24.402 -15.728  -2.020  0.00  0.00     0.001 A 
ATOM     22  C   UNL d   1      25.752 -16.023  -1.872  0.00  0.00     0.014 A 
ENDBRANCH   2  13
TORSDOF 3
ENDMDL
MODEL 6
REMARK VINA RESULT:    -5.847      2.514      5.830
REMARK INTER + INTRA:          -8.123
REMARK INTER:                  -6.741
REMARK INTRA:                  -1.382
REMARK CONF_INDEPENDENT:        0.895
REMARK UNBOUND:                -1.382
REMARK  3 active torsions:
REMARK  status: ('A' for Active; 'I' for Inactive)
REMARK    1  A    between atoms: C_5  and  C_6 
REMARK       I    between atoms: C_6  and  N_8 
REMARK    2  A    between atoms: N_8  and  N_9 
REMARK    3  A    between atoms: C_10  and  C_11 
ROOT
ATOM      1  N   UNL d   1      27.558 -15.195  -5.409  0.00  0.00    -0.183 NA
ATOM      2  C   UNL d   1      27.409 -13.961  -5.808  0.00  0.00     0.152 C 
ENDROOT
BRANCH   1   3
ATOM      3  N   UNL d   1      27.094 -15.577  -4.166  0.00  0.00    -0.241 N 
ATOM      4  C   UNL d   1      25.764 -15.395  -3.775  0.00  0.00     0.295 C 
ATOM      5  O   UNL d   1      24.935 -14.825  -4.490  0.00  0.00    -0.264 OA
ATOM      6  H   UNL d   1      27.740 -16.019  -3.528  0.00  0.00     0.192 HD
BRANCH   4   7
ATOM      7  C   UNL d   1      25.442 -15.943  -2.452  0.00  0.00     0.144 A 
ATOM      8  C   UNL d   1      24.263 -15.999  -1.722  0.00  0.00     0.045 A 
ATOM      9  C   UNL d   1      24.550 -16.648  -0.496  0.00  0.00     0.035 A 
ATOM     10  C   UNL d   1      25.889 -16.961  -0.524  0.00  0.00     0.050 A 
ATOM     11  C   UNL d   1      26.774 -17.641   0.451  0.00  0.00     0.076 C 
ATOM     12  O   UNL d   1      26.439 -16.536  -1.701  0.00  0.00    -0.310 OA
ENDBRANCH   4   7
ENDBRANCH   1   3
BRANCH   2  13
ATOM     13  C   UNL d   1      26.863 -12.874  -5.013  0.00  0.00     0.011 A 
ATOM     14  C   UNL d   1      25.794 -12.065  -5.354  0.00  0.00     0.102 A 
ATOM     15  N   UNL d   1      25.545 -11.218  -4.298  0.00  0.00    -0.364 N 
ATOM     16  C   UNL d   1      26.499 -11.392  -3.319  0.00  0.00     0.043 A 
ATOM     17  H   UNL d   1      24.786 -10.551  -4.252  0.00  0.00     0.165 HD
ATOM     18  C   UNL d   1      26.688 -10.746  -2.090  0.00  0.00     0.030 A 
ATOM     19  C   UNL d   1      27.355 -12.394  -3.764  0.00  0.00     0.004 A 
ATOM     20  C   UNL d   1      27.788 -11.138  -1.313  0.00  0.00     0.002 A 
ATOM     21  C   UNL d   1      28.661 -12.133  -1.740  0.00  0.00     0.001 A 
ATOM     22  C   UNL d   1      28.462 -12.753  -2.968  0.00  0.00     0.014 A 
ENDBRANCH   2  13
TORSDOF 3
ENDMDL
MODEL 7
REMARK VINA RESULT:    -5.816      4.238      6.559
REMARK INTER + INTRA:          -8.034
REMARK INTER:                  -6.711
REMARK INTRA:                  -1.323
REMARK CONF_INDEPENDENT:        0.895
REMARK UNBOUND:                -1.323
REMARK  3 active torsions:
REMARK  status: ('A' for Active; 'I' for Inactive)
REMARK    1  A    between atoms: C_5  and  C_6 
REMARK       I    between atoms: C_6  and  N_8 
REMARK    2  A    between atoms: N_8  and  N_9 
REMARK    3  A    between atoms: C_10  and  C_11 
ROOT
ATOM      1  N   UNL d   1      27.598 -13.894  -0.683  0.00  0.00    -0.183 NA
ATOM      2  C   UNL d   1      27.023 -14.892  -1.298  0.00  0.00     0.152 C 
ENDROOT
BRANCH   1   3
ATOM      3  N   UNL d   1      27.936 -14.012   0.650  0.00  0.00    -0.241 N 
ATOM      4  C   UNL d   1      27.083 -13.598   1.678  0.00  0.00     0.295 C 
ATOM      5  O   UNL d   1      26.002 -13.045   1.460  0.00  0.00    -0.264 OA
ATOM      6  H   UNL d   1      28.826 -14.429   0.885  0.00  0.00     0.192 HD
BRANCH   4   7
ATOM      7  C   UNL d   1      27.580 -13.884   3.029  0.00  0.00     0.144 A 
ATOM      8  C   UNL d   1      27.030 -13.701   4.290  0.00  0.00     0.045 A 
ATOM      9  C   UNL d   1      27.973 -14.162   5.240  0.00  0.00     0.035 A 
ATOM     10  C   UNL d   1      29.061 -14.606   4.525  0.00  0.00     0.050 A 
ATOM     11  C   UNL d   1      30.354 -15.198   4.944  0.00  0.00     0.076 C 
ATOM     12  O   UNL d   1      28.836 -14.440   3.187  0.00  0.00    -0.310 OA
ENDBRANCH   4   7
ENDBRANCH   1   3
BRANCH   2  13
ATOM     13  C   UNL d   1      26.599 -16.136  -0.681  0.00  0.00     0.011 A 
ATOM     14  C   UNL d   1      27.417 -17.071  -0.072  0.00  0.00     0.102 A 
ATOM     15  N   UNL d   1      26.619 -18.059   0.455  0.00  0.00    -0.364 N 
ATOM     16  C   UNL d   1      25.303 -17.837   0.111  0.00  0.00     0.043 A 
ATOM     17  H   UNL d   1      26.947 -18.846   1.000  0.00  0.00     0.165 HD
ATOM     18  C   UNL d   1      24.142 -18.575   0.378  0.00  0.00     0.030 A 
ATOM     19  C   UNL d   1      25.274 -16.662  -0.634  0.00  0.00     0.004 A 
ATOM     20  C   UNL d   1      22.932 -18.092  -0.143  0.00  0.00     0.002 A 
ATOM     21  C   UNL d   1      22.880 -16.923  -0.895  0.00  0.00     0.001 A 
ATOM     22  C   UNL d   1      24.046 -16.213  -1.158  0.00  0.00     0.014 A 
ENDBRANCH   2  13
TORSDOF 3
ENDMDL
MODEL 8
REMARK VINA RESULT:    -5.680      3.608      6.104
REMARK INTER + INTRA:          -7.987
REMARK INTER:                  -6.575
REMARK INTRA:                  -1.412
REMARK CONF_INDEPENDENT:        0.895
REMARK UNBOUND:                -1.412
REMARK  3 active torsions:
REMARK  status: ('A' for Active; 'I' for Inactive)
REMARK    1  A    between atoms: C_5  and  C_6 
REMARK       I    between atoms: C_6  and  N_8 
REMARK    2  A    between atoms: N_8  and  N_9 
REMARK    3  A    between atoms: C_10  and  C_11 
ROOT
ATOM      1  N   UNL d   1      29.394 -16.436  -0.925  0.00  0.00    -0.183 NA
ATOM      2  C   UNL d   1      28.556 -16.662  -1.900  0.00  0.00     0.152 C 
ENDROOT
BRANCH   1   3
ATOM      3  N   UNL d   1      28.952 -15.829   0.233  0.00  0.00    -0.241 N 
ATOM      4  C   UNL d   1      28.493 -14.509   0.258  0.00  0.00     0.295 C 
ATOM      5  O   UNL d   1      28.510 -13.782  -0.739  0.00  0.00    -0.264 OA
ATOM      6  H   UNL d   1      28.947 -16.370   1.087  0.00  0.00     0.192 HD
BRANCH   4   7
ATOM      7  C   UNL d   1      27.985 -14.069   1.563  0.00  0.00     0.144 A 
ATOM      8  C   UNL d   1      27.208 -12.986   1.952  0.00  0.00     0.045 A 
ATOM      9  C   UNL d   1      27.030 -13.069   3.354  0.00  0.00     0.035 A 
ATOM     10  C   UNL d   1      27.704 -14.194   3.767  0.00  0.00     0.050 A 
ATOM     11  C   UNL d   1      27.887 -14.811   5.103  0.00  0.00     0.076 C 
ATOM     12  O   UNL d   1      28.289 -14.805   2.694  0.00  0.00    -0.310 OA
ENDBRANCH   4   7
ENDBRANCH   1   3
BRANCH   2  13
ATOM     13  C   UNL d   1      27.166 -16.243  -1.937  0.00  0.00     0.011 A 
ATOM     14  C   UNL d   1      26.649 -15.178  -2.653  0.00  0.00     0.102 A 
ATOM     15  N   UNL d   1      25.283 -15.172  -2.484  0.00  0.00    -0.364 N 
ATOM     16  C   UNL d   1      24.914 -16.152  -1.589  0.00  0.00     0.043 A 
ATOM     17  H   UNL d   1      24.643 -14.531  -2.935  0.00  0.00     0.165 HD
ATOM     18  C   UNL d   1      23.660 -16.508  -1.076  0.00  0.00     0.030 A 
ATOM     19  C   UNL d   1      26.080 -16.807  -1.204  0.00  0.00     0.004 A 
ATOM     20  C   UNL d   1      23.614 -17.554  -0.141  0.00  0.00     0.002 A 
ATOM     21  C   UNL d   1      24.767 -18.218   0.262  0.00  0.00     0.001 A 
ATOM     22  C   UNL d   1      26.003 -17.841  -0.251  0.00  0.00     0.014 A 
ENDBRANCH   2  13
TORSDOF 3
ENDMDL
MODEL 9
REMARK VINA RESULT:    -5.639      1.234      2.270
REMARK INTER + INTRA:          -8.082
REMARK INTER:                  -6.534
REMARK INTRA:                  -1.548
REMARK CONF_INDEPENDENT:        0.895
REMARK UNBOUND:                -1.548
REMARK  3 active torsions:
REMARK  status: ('A' for Active; 'I' for Inactive)
REMARK    1  A    between atoms: C_5  and  C_6 
REMARK       I    between atoms: C_6  and  N_8 
REMARK    2  A    between atoms: N_8  and  N_9 
REMARK    3  A    between atoms: C_10  and  C_11 
ROOT
ATOM      1  N   UNL d   1      24.863 -14.312  -3.870  0.00  0.00    -0.183 NA
ATOM      2  C   UNL d   1      24.382 -14.814  -2.765  0.00  0.00     0.152 C 
ENDROOT
BRANCH   1   3
ATOM      3  N   UNL d   1      26.022 -14.830  -4.412  0.00  0.00    -0.241 N 
ATOM      4  C   UNL d   1      26.891 -14.062  -5.193  0.00  0.00     0.295 C 
ATOM      5  O   UNL d   1      26.648 -12.892  -5.500  0.00  0.00    -0.264 OA
ATOM      6  H   UNL d   1      26.253 -15.795  -4.219  0.00  0.00     0.192 HD
BRANCH   4   7
ATOM      7  C   UNL d   1      28.113 -14.763  -5.607  0.00  0.00     0.144 A 
ATOM      8  C   UNL d   1      29.079 -14.480  -6.562  0.00  0.00     0.045 A 
ATOM      9  C   UNL d   1      30.037 -15.522  -6.523  0.00  0.00     0.035 A 
ATOM     10  C   UNL d   1      29.620 -16.400  -5.550  0.00  0.00     0.050 A 
ATOM     11  C   UNL d   1      30.192 -17.670  -5.042  0.00  0.00     0.076 C 
ATOM     12  O   UNL d   1      28.455 -15.953  -4.992  0.00  0.00    -0.310 OA
ENDBRANCH   4   7
ENDBRANCH   1   3
BRANCH   2  13
ATOM     13  C   UNL d   1      25.011 -15.845  -1.958  0.00  0.00     0.011 A 
ATOM     14  C   UNL d   1      24.387 -16.950  -1.408  0.00  0.00     0.102 A 
ATOM     15  N   UNL d   1      25.346 -17.719  -0.790  0.00  0.00    -0.364 N 
ATOM     16  C   UNL d   1      26.567 -17.082  -0.840  0.00  0.00     0.043 A 
ATOM     17  H   UNL d   1      25.180 -18.613  -0.346  0.00  0.00     0.165 HD
ATOM     18  C   UNL d   1      27.819 -17.444  -0.327  0.00  0.00     0.030 A 
ATOM     19  C   UNL d   1      26.371 -15.890  -1.531  0.00  0.00     0.004 A 
ATOM     20  C   UNL d   1      28.884 -16.553  -0.524  0.00  0.00     0.002 A 
ATOM     21  C   UNL d   1      28.710 -15.353  -1.206  0.00  0.00     0.001 A 
ATOM     22  C   UNL d   1      27.457 -15.007  -1.698  0.00  0.00     0.014 A 
ENDBRANCH   2  13
TORSDOF 3
ENDMDL
