MODEL 1
REMARK VINA RESULT:   -30.813      0.000      0.000
REMARK INTER + INTRA:         -32.371
REMARK INTER:                 -31.708
REMARK INTRA:                  -0.662
REMARK CONF_INDEPENDENT:        0.895
REMARK UNBOUND:                -0.662
REMARK  3 active torsions:
REMARK  status: ('A' for Active; 'I' for Inactive)
REMARK       I    between atoms: N_2  and  C_3 
REMARK    1  A    between atoms: C_3  and  C_5 
REMARK    2  A    between atoms: C_8  and  N_9 
REMARK       I    between atoms: N_9  and  C_10 
REMARK    3  A    between atoms: C_10  and  C_12 
ROOT
ATOM      1  C   UNL d   1      26.282 -15.419  -1.776  0.00  0.00     0.032 C 
ATOM      2  C   UNL d   1      25.010 -15.231  -2.320  0.00  0.00     0.019 C 
ATOM      3  C   UNL d   1      23.898 -15.985  -1.831  0.00  0.00     0.031 C 
ATOM      4  C   UNL d   1      24.041 -16.966  -0.816  0.00  0.00     0.041 C 
ATOM      5  C   UNL d   1      25.336 -17.154  -0.336  0.00  0.00    -0.034 C 
ATOM      6  C   UNL d   1      25.795 -18.207   0.605  0.00  0.00     0.050 C 
ATOM      7  C   UNL d   1      26.383 -16.330  -0.751  0.00  0.00     0.026 C 
ENDROOT
BRANCH   4   8
ATOM      8  N   UNL d   1      22.886 -17.697  -0.358  0.00  0.00    -0.321 N 
ATOM      9  C   UNL d   1      22.184 -18.735  -0.998  0.00  0.00     0.274 C 
ATOM     10  O   UNL d   1      22.407 -19.314  -2.059  0.00  0.00    -0.266 OA
ATOM     11  H   UNL d   1      22.620 -17.507   0.600  0.00  0.00     0.169 HD
BRANCH   9  12
ATOM     12  C   UNL d   1      20.995 -19.319  -0.363  0.00  0.00     0.126 A 
ATOM     13  C   UNL d   1      20.949 -19.611   0.978  0.00  0.00     0.061 A 
ATOM     14  C   UNL d   1      19.706 -19.987   1.462  0.00  0.00     0.037 A 
ATOM     15 CL   UNL d   1      19.559 -20.450   3.111  0.00  0.00    -0.084 Cl
ATOM     16  C   UNL d   1      18.573 -19.993   0.645  0.00  0.00     0.043 A 
ATOM     17  C   UNL d   1      18.714 -19.620  -0.670  0.00  0.00     0.119 A 
ATOM     18  N   UNL d   1      19.905 -19.325  -1.187  0.00  0.00    -0.255 NA
ENDBRANCH   9  12
ENDBRANCH   4   8
BRANCH   1  19
ATOM     19  C   UNL d   1      27.490 -14.615  -2.164  0.00  0.00     0.251 C 
ATOM     20  N   UNL d   1      28.150 -14.915  -3.365  0.00  0.00    -0.361 N 
ATOM     21  C   UNL d   1      27.554 -14.898  -4.699  0.00  0.00     0.149 C 
ATOM     22  H   UNL d   1      29.079 -14.512  -3.345  0.00  0.00     0.162 HD
ATOM     23  O   UNL d   1      27.957 -13.802  -1.402  0.00  0.00    -0.268 OA
ENDBRANCH   1  19
TORSDOF 3
ENDMDL
MODEL 2
REMARK VINA RESULT:   -30.402      1.504      2.254
REMARK INTER + INTRA:         -31.951
REMARK INTER:                 -31.297
REMARK INTRA:                  -0.654
REMARK CONF_INDEPENDENT:        0.895
REMARK UNBOUND:                -0.654
REMARK  3 active torsions:
REMARK  status: ('A' for Active; 'I' for Inactive)
REMARK       I    between atoms: N_2  and  C_3 
REMARK    1  A    between atoms: C_3  and  C_5 
REMARK    2  A    between atoms: C_8  and  N_9 
REMARK       I    between atoms: N_9  and  C_10 
REMARK    3  A    between atoms: C_10  and  C_12 
ROOT
ATOM      1  C   UNL d   1      27.100 -16.797  -0.612  0.00  0.00     0.032 C 
ATOM      2  C   UNL d   1      26.941 -17.882   0.254  0.00  0.00     0.019 C 
ATOM      3  C   UNL d   1      25.644 -18.444   0.474  0.00  0.00     0.031 C 
ATOM      4  C   UNL d   1      24.479 -17.913  -0.136  0.00  0.00     0.041 C 
ATOM      5  C   UNL d   1      24.679 -16.801  -0.954  0.00  0.00    -0.034 C 
ATOM      6  C   UNL d   1      23.633 -15.959  -1.586  0.00  0.00     0.050 C 
ATOM      7  C   UNL d   1      25.965 -16.341  -1.238  0.00  0.00     0.026 C 
ENDROOT
BRANCH   4   8
ATOM      8  N   UNL d   1      23.196 -18.518   0.119  0.00  0.00    -0.321 N 
ATOM      9  C   UNL d   1      22.184 -18.865  -0.793  0.00  0.00     0.274 C 
ATOM     10  O   UNL d   1      22.159 -18.801  -2.020  0.00  0.00    -0.266 OA
ATOM     11  H   UNL d   1      23.062 -18.833   1.072  0.00  0.00     0.169 HD
BRANCH   9  12
ATOM     12  C   UNL d   1      20.922 -19.441  -0.308  0.00  0.00     0.126 A 
ATOM     13  C   UNL d   1      20.753 -19.842   0.995  0.00  0.00     0.061 A 
ATOM     14  C   UNL d   1      19.458 -20.195   1.344  0.00  0.00     0.037 A 
ATOM     15 CL   UNL d   1      19.155 -20.787   2.929  0.00  0.00    -0.084 Cl
ATOM     16  C   UNL d   1      18.398 -20.076   0.442  0.00  0.00     0.043 A 
ATOM     17  C   UNL d   1      18.664 -19.600  -0.819  0.00  0.00     0.119 A 
ATOM     18  N   UNL d   1      19.905 -19.323  -1.213  0.00  0.00    -0.255 NA
ENDBRANCH   9  12
ENDBRANCH   4   8
BRANCH   1  19
ATOM     19  C   UNL d   1      28.429 -16.196  -0.971  0.00  0.00     0.251 C 
ATOM     20  N   UNL d   1      28.633 -14.824  -0.768  0.00  0.00    -0.361 N 
ATOM     21  C   UNL d   1      28.516 -14.118   0.506  0.00  0.00     0.149 C 
ATOM     22  H   UNL d   1      29.430 -14.520  -1.313  0.00  0.00     0.162 HD
ATOM     23  O   UNL d   1      29.270 -16.858  -1.533  0.00  0.00    -0.268 OA
ENDBRANCH   1  19
TORSDOF 3
ENDMDL
