MODEL 1
REMARK VINA RESULT:   -31.167      0.000      0.000
REMARK INTER + INTRA:         -33.322
REMARK INTER:                 -32.360
REMARK INTRA:                  -0.962
REMARK CONF_INDEPENDENT:        1.193
REMARK UNBOUND:                -0.962
REMARK  4 active torsions:
REMARK  status: ('A' for Active; 'I' for Inactive)
REMARK       I    between atoms: C_2  and  N_3 
REMARK    1  A    between atoms: C_2  and  C_15 
REMARK    2  A    between atoms: N_3  and  C_4 
REMARK    3  A    between atoms: C_7  and  C_8 
REMARK    4  A    between atoms: C_20  and  O_21 
ROOT
ATOM      1  C   UNL d   1      24.567 -17.252  -0.504  0.00  0.00     0.035 A 
ATOM      2  C   UNL d   1      24.518 -18.649  -0.446  0.00  0.00     0.030 A 
ATOM      3  C   UNL d   1      23.278 -19.313  -0.408  0.00  0.00     0.016 A 
ATOM      4  C   UNL d   1      22.081 -18.585  -0.412  0.00  0.00    -0.005 A 
ATOM      5  C   UNL d   1      22.138 -17.192  -0.519  0.00  0.00     0.016 A 
ATOM      6  C   UNL d   1      23.371 -16.534  -0.555  0.00  0.00     0.030 A 
ENDROOT
BRANCH   1   7
ATOM      7  N   UNL d   1      25.813 -16.581  -0.530  0.00  0.00    -0.323 N 
ATOM      8  C   UNL d   1      26.978 -17.151  -0.013  0.00  0.00     0.259 C 
ATOM      9  O   UNL d   1      27.033 -18.253   0.534  0.00  0.00    -0.267 OA
ATOM     10  H   UNL d   1      25.908 -15.797  -1.164  0.00  0.00     0.169 HD
BRANCH   8  11
ATOM     11  C   UNL d   1      28.231 -16.371  -0.223  0.00  0.00     0.065 A 
ATOM     12  C   UNL d   1      28.203 -14.970  -0.152  0.00  0.00     0.020 A 
ATOM     13  C   UNL d   1      29.344 -14.229  -0.478  0.00  0.00     0.001 A 
ATOM     14  C   UNL d   1      30.537 -14.879  -0.793  0.00  0.00     0.003 A 
ATOM     15  C   UNL d   1      30.593 -16.272  -0.799  0.00  0.00     0.037 A 
ATOM     16  C   UNL d   1      29.443 -17.015  -0.519  0.00  0.00     0.081 A 
BRANCH  16  17
ATOM     17  O   UNL d   1      29.508 -18.379  -0.575  0.00  0.00    -0.360 OA
ATOM     18  H   UNL d   1      29.133 -18.772   0.228  0.00  0.00     0.217 HD
ENDBRANCH  16  17
ENDBRANCH   8  11
ENDBRANCH   1   7
BRANCH   4  19
ATOM     19  C   UNL d   1      20.789 -19.245  -0.256  0.00  0.00     0.088 A 
ATOM     20  C   UNL d   1      20.302 -19.931   0.888  0.00  0.00     0.053 A 
ATOM     21  C   UNL d   1      19.087 -20.452   0.516  0.00  0.00     0.111 A 
ATOM     22  N   UNL d   1      18.905 -20.074  -0.780  0.00  0.00    -0.289 N 
ATOM     23  N   UNL d   1      19.903 -19.316  -1.262  0.00  0.00    -0.175 NA
ATOM     24  H   UNL d   1      18.126 -20.295  -1.394  0.00  0.00     0.188 HD
ENDBRANCH   4  19
TORSDOF 4
ENDMDL
MODEL 2
REMARK VINA RESULT:   -31.111      2.459      2.764
REMARK INTER + INTRA:         -33.391
REMARK INTER:                 -32.304
REMARK INTRA:                  -1.087
REMARK CONF_INDEPENDENT:        1.193
REMARK UNBOUND:                -1.087
REMARK  4 active torsions:
REMARK  status: ('A' for Active; 'I' for Inactive)
REMARK       I    between atoms: C_2  and  N_3 
REMARK    1  A    between atoms: C_2  and  C_15 
REMARK    2  A    between atoms: N_3  and  C_4 
REMARK    3  A    between atoms: C_7  and  C_8 
REMARK    4  A    between atoms: C_20  and  O_21 
ROOT
ATOM      1  C   UNL d   1      24.601 -17.010  -1.144  0.00  0.00     0.035 A 
ATOM      2  C   UNL d   1      23.408 -16.279  -1.170  0.00  0.00     0.030 A 
ATOM      3  C   UNL d   1      22.191 -16.900  -0.834  0.00  0.00     0.016 A 
ATOM      4  C   UNL d   1      22.157 -18.257  -0.486  0.00  0.00    -0.005 A 
ATOM      5  C   UNL d   1      23.359 -18.967  -0.415  0.00  0.00     0.016 A 
ATOM      6  C   UNL d   1      24.567 -18.349  -0.752  0.00  0.00     0.030 A 
ENDROOT
BRANCH   1   7
ATOM      7  N   UNL d   1      25.826 -16.392  -1.493  0.00  0.00    -0.323 N 
ATOM      8  C   UNL d   1      26.008 -15.732  -2.711  0.00  0.00     0.259 C 
ATOM      9  O   UNL d   1      25.155 -15.650  -3.596  0.00  0.00    -0.267 OA
ATOM     10  H   UNL d   1      26.482 -16.200  -0.746  0.00  0.00     0.169 HD
BRANCH   8  11
ATOM     11  C   UNL d   1      27.312 -15.029  -2.880  0.00  0.00     0.065 A 
ATOM     12  C   UNL d   1      27.917 -14.404  -1.779  0.00  0.00     0.020 A 
ATOM     13  C   UNL d   1      29.071 -13.633  -1.958  0.00  0.00     0.001 A 
ATOM     14  C   UNL d   1      29.673 -13.551  -3.213  0.00  0.00     0.003 A 
ATOM     15  C   UNL d   1      29.117 -14.226  -4.300  0.00  0.00     0.037 A 
ATOM     16  C   UNL d   1      27.938 -14.959  -4.134  0.00  0.00     0.081 A 
BRANCH  16  17
ATOM     17  O   UNL d   1      27.385 -15.575  -5.221  0.00  0.00    -0.360 OA
ATOM     18  H   UNL d   1      26.426 -15.665  -5.111  0.00  0.00     0.217 HD
ENDBRANCH  16  17
ENDBRANCH   8  11
ENDBRANCH   1   7
BRANCH   4  19
ATOM     19  C   UNL d   1      20.894 -18.949  -0.248  0.00  0.00     0.088 A 
ATOM     20  C   UNL d   1      20.667 -20.061   0.604  0.00  0.00     0.053 A 
ATOM     21  C   UNL d   1      19.350 -20.404   0.419  0.00  0.00     0.111 A 
ATOM     22  N   UNL d   1      18.864 -19.522  -0.498  0.00  0.00    -0.289 N 
ATOM     23  N   UNL d   1      19.767 -18.611  -0.895  0.00  0.00    -0.175 NA
ATOM     24  H   UNL d   1      17.931 -19.482  -0.896  0.00  0.00     0.188 HD
ENDBRANCH   4  19
TORSDOF 4
ENDMDL
MODEL 3
REMARK VINA RESULT:   -30.979      0.625      1.222
REMARK INTER + INTRA:         -33.179
REMARK INTER:                 -32.172
REMARK INTRA:                  -1.007
REMARK CONF_INDEPENDENT:        1.193
REMARK UNBOUND:                -1.007
REMARK  4 active torsions:
REMARK  status: ('A' for Active; 'I' for Inactive)
REMARK       I    between atoms: C_2  and  N_3 
REMARK    1  A    between atoms: C_2  and  C_15 
REMARK    2  A    between atoms: N_3  and  C_4 
REMARK    3  A    between atoms: C_7  and  C_8 
REMARK    4  A    between atoms: C_20  and  O_21 
ROOT
ATOM      1  C   UNL d   1      24.669 -17.160  -0.776  0.00  0.00     0.035 A 
ATOM      2  C   UNL d   1      23.512 -16.373  -0.772  0.00  0.00     0.030 A 
ATOM      3  C   UNL d   1      22.256 -16.964  -0.536  0.00  0.00     0.016 A 
ATOM      4  C   UNL d   1      22.149 -18.343  -0.318  0.00  0.00    -0.005 A 
ATOM      5  C   UNL d   1      23.315 -19.113  -0.276  0.00  0.00     0.016 A 
ATOM      6  C   UNL d   1      24.561 -18.526  -0.514  0.00  0.00     0.030 A 
ENDROOT
BRANCH   1   7
ATOM      7  N   UNL d   1      25.932 -16.571  -1.026  0.00  0.00    -0.323 N 
ATOM      8  C   UNL d   1      27.107 -17.050  -0.442  0.00  0.00     0.259 C 
ATOM      9  O   UNL d   1      27.159 -17.988   0.355  0.00  0.00    -0.267 OA
ATOM     10  H   UNL d   1      26.015 -15.970  -1.837  0.00  0.00     0.169 HD
BRANCH   8  11
ATOM     11  C   UNL d   1      28.370 -16.400  -0.897  0.00  0.00     0.065 A 
ATOM     12  C   UNL d   1      28.370 -15.043  -1.252  0.00  0.00     0.020 A 
ATOM     13  C   UNL d   1      29.517 -14.463  -1.804  0.00  0.00     0.001 A 
ATOM     14  C   UNL d   1      30.690 -15.207  -1.927  0.00  0.00     0.003 A 
ATOM     15  C   UNL d   1      30.720 -16.538  -1.512  0.00  0.00     0.037 A 
ATOM     16  C   UNL d   1      29.562 -17.134  -1.003  0.00  0.00     0.081 A 
BRANCH  16  17
ATOM     17  O   UNL d   1      29.600 -18.452  -0.646  0.00  0.00    -0.360 OA
ATOM     18  H   UNL d   1      29.205 -18.580   0.230  0.00  0.00     0.217 HD
ENDBRANCH  16  17
ENDBRANCH   8  11
ENDBRANCH   1   7
BRANCH   4  19
ATOM     19  C   UNL d   1      20.849 -18.993  -0.187  0.00  0.00     0.088 A 
ATOM     20  C   UNL d   1      20.523 -20.119   0.614  0.00  0.00     0.053 A 
ATOM     21  C   UNL d   1      19.210 -20.407   0.330  0.00  0.00     0.111 A 
ATOM     22  N   UNL d   1      18.822 -19.482  -0.592  0.00  0.00    -0.289 N 
ATOM     23  N   UNL d   1      19.782 -18.595  -0.899  0.00  0.00    -0.175 NA
ATOM     24  H   UNL d   1      17.920 -19.396  -1.051  0.00  0.00     0.188 HD
ENDBRANCH   4  19
TORSDOF 4
ENDMDL
MODEL 4
REMARK VINA RESULT:   -30.816      1.393      1.478
REMARK INTER + INTRA:         -33.070
REMARK INTER:                 -32.009
REMARK INTRA:                  -1.061
REMARK CONF_INDEPENDENT:        1.193
REMARK UNBOUND:                -1.061
REMARK  4 active torsions:
REMARK  status: ('A' for Active; 'I' for Inactive)
REMARK       I    between atoms: C_2  and  N_3 
REMARK    1  A    between atoms: C_2  and  C_15 
REMARK    2  A    between atoms: N_3  and  C_4 
REMARK    3  A    between atoms: C_7  and  C_8 
REMARK    4  A    between atoms: C_20  and  O_21 
ROOT
ATOM      1  C   UNL d   1      24.576 -17.306  -0.510  0.00  0.00     0.035 A 
ATOM      2  C   UNL d   1      24.511 -18.697  -0.372  0.00  0.00     0.030 A 
ATOM      3  C   UNL d   1      23.264 -19.347  -0.332  0.00  0.00     0.016 A 
ATOM      4  C   UNL d   1      22.075 -18.610  -0.413  0.00  0.00    -0.005 A 
ATOM      5  C   UNL d   1      22.149 -17.227  -0.599  0.00  0.00     0.016 A 
ATOM      6  C   UNL d   1      23.389 -16.582  -0.637  0.00  0.00     0.030 A 
ENDROOT
BRANCH   1   7
ATOM      7  N   UNL d   1      25.829 -16.648  -0.539  0.00  0.00    -0.323 N 
ATOM      8  C   UNL d   1      26.307 -16.005  -1.683  0.00  0.00     0.259 C 
ATOM      9  O   UNL d   1      25.719 -15.972  -2.764  0.00  0.00    -0.267 OA
ATOM     10  H   UNL d   1      26.256 -16.418   0.350  0.00  0.00     0.169 HD
BRANCH   8  11
ATOM     11  C   UNL d   1      27.587 -15.256  -1.519  0.00  0.00     0.065 A 
ATOM     12  C   UNL d   1      27.843 -14.127  -2.310  0.00  0.00     0.020 A 
ATOM     13  C   UNL d   1      29.093 -13.500  -2.255  0.00  0.00     0.001 A 
ATOM     14  C   UNL d   1      30.060 -13.942  -1.352  0.00  0.00     0.003 A 
ATOM     15  C   UNL d   1      29.789 -15.022  -0.511  0.00  0.00     0.037 A 
ATOM     16  C   UNL d   1      28.558 -15.679  -0.597  0.00  0.00     0.081 A 
BRANCH  16  17
ATOM     17  O   UNL d   1      28.330 -16.763   0.203  0.00  0.00    -0.360 OA
ATOM     18  H   UNL d   1      28.904 -16.737   0.984  0.00  0.00     0.217 HD
ENDBRANCH  16  17
ENDBRANCH   8  11
ENDBRANCH   1   7
BRANCH   4  19
ATOM     19  C   UNL d   1      20.772 -19.249  -0.256  0.00  0.00     0.088 A 
ATOM     20  C   UNL d   1      20.267 -19.907   0.895  0.00  0.00     0.053 A 
ATOM     21  C   UNL d   1      19.047 -20.418   0.522  0.00  0.00     0.111 A 
ATOM     22  N   UNL d   1      18.881 -20.060  -0.782  0.00  0.00    -0.289 N 
ATOM     23  N   UNL d   1      19.893 -19.325  -1.269  0.00  0.00    -0.175 NA
ATOM     24  H   UNL d   1      18.104 -20.280  -1.398  0.00  0.00     0.188 HD
ENDBRANCH   4  19
TORSDOF 4
ENDMDL
MODEL 5
REMARK VINA RESULT:   -30.512      0.943      1.534
REMARK INTER + INTRA:         -32.517
REMARK INTER:                 -31.706
REMARK INTRA:                  -0.812
REMARK CONF_INDEPENDENT:        1.193
REMARK UNBOUND:                -0.812
REMARK  4 active torsions:
REMARK  status: ('A' for Active; 'I' for Inactive)
REMARK       I    between atoms: C_2  and  N_3 
REMARK    1  A    between atoms: C_2  and  C_15 
REMARK    2  A    between atoms: N_3  and  C_4 
REMARK    3  A    between atoms: C_7  and  C_8 
REMARK    4  A    between atoms: C_20  and  O_21 
ROOT
ATOM      1  C   UNL d   1      24.406 -17.203  -0.701  0.00  0.00     0.035 A 
ATOM      2  C   UNL d   1      24.381 -18.575  -0.427  0.00  0.00     0.030 A 
ATOM      3  C   UNL d   1      23.152 -19.255  -0.332  0.00  0.00     0.016 A 
ATOM      4  C   UNL d   1      21.944 -18.566  -0.494  0.00  0.00    -0.005 A 
ATOM      5  C   UNL d   1      21.979 -17.206  -0.816  0.00  0.00     0.016 A 
ATOM      6  C   UNL d   1      23.200 -16.531  -0.907  0.00  0.00     0.030 A 
ENDROOT
BRANCH   1   7
ATOM      7  N   UNL d   1      25.639 -16.513  -0.785  0.00  0.00    -0.323 N 
ATOM      8  C   UNL d   1      26.836 -17.066  -0.323  0.00  0.00     0.259 C 
ATOM      9  O   UNL d   1      26.933 -18.168   0.219  0.00  0.00    -0.267 OA
ATOM     10  H   UNL d   1      25.693 -15.728  -1.422  0.00  0.00     0.169 HD
BRANCH   8  11
ATOM     11  C   UNL d   1      28.066 -16.267  -0.592  0.00  0.00     0.065 A 
ATOM     12  C   UNL d   1      29.274 -16.919  -0.878  0.00  0.00     0.020 A 
ATOM     13  C   UNL d   1      30.457 -16.182  -1.000  0.00  0.00     0.001 A 
ATOM     14  C   UNL d   1      30.427 -14.790  -0.922  0.00  0.00     0.003 A 
ATOM     15  C   UNL d   1      29.219 -14.128  -0.706  0.00  0.00     0.037 A 
ATOM     16  C   UNL d   1      28.043 -14.865  -0.538  0.00  0.00     0.081 A 
BRANCH  16  17
ATOM     17  O   UNL d   1      26.877 -14.199  -0.282  0.00  0.00    -0.360 OA
ATOM     18  H   UNL d   1      26.225 -14.795   0.116  0.00  0.00     0.217 HD
ENDBRANCH  16  17
ENDBRANCH   8  11
ENDBRANCH   1   7
BRANCH   4  19
ATOM     19  C   UNL d   1      20.658 -19.225  -0.285  0.00  0.00     0.088 A 
ATOM     20  C   UNL d   1      20.206 -19.883   0.889  0.00  0.00     0.053 A 
ATOM     21  C   UNL d   1      18.983 -20.417   0.564  0.00  0.00     0.111 A 
ATOM     22  N   UNL d   1      18.763 -20.073  -0.736  0.00  0.00    -0.289 N 
ATOM     23  N   UNL d   1      19.745 -19.325  -1.265  0.00  0.00    -0.175 NA
ATOM     24  H   UNL d   1      17.969 -20.311  -1.321  0.00  0.00     0.188 HD
ENDBRANCH   4  19
TORSDOF 4
ENDMDL
