MODEL 1
REMARK VINA RESULT:    -9.937      0.000      0.000
REMARK INTER + INTRA:         -14.416
REMARK INTER:                 -11.726
REMARK INTRA:                  -2.689
REMARK CONF_INDEPENDENT:        1.790
REMARK UNBOUND:                -2.689
REMARK  6 active torsions:
REMARK  status: ('A' for Active; 'I' for Inactive)
REMARK    1  A    between atoms: O_2  and  C_3 
REMARK    2  A    between atoms: C_8  and  N_9 
REMARK    3  A    between atoms: N_12  and  C_13 
REMARK    4  A    between atoms: C_13  and  C_14 
REMARK    5  A    between atoms: C_13  and  C_28 
REMARK    6  A    between atoms: N_32  and  C_33 
ROOT
ATOM      1  C   UNL d   1      28.405 -15.085  -0.109  0.00  0.00     0.298 C 
ENDROOT
BRANCH   1   2
ATOM      2  N   UNL d   1      28.966 -14.966   1.581  0.00  0.00    -0.052 N 
ATOM      3  C   UNL d   1      30.194 -14.047   1.793  0.00  0.00     0.256 C 
ATOM      4  C   UNL d   1      30.515 -13.720   3.267  0.00  0.00     0.150 C 
ATOM      5  N   UNL d   1      29.366 -13.395   4.107  0.00  0.00    -0.375 N 
ATOM      6  C   UNL d   1      28.400 -14.478   4.167  0.00  0.00     0.150 C 
ATOM      7  C   UNL d   1      27.960 -14.679   2.742  0.00  0.00     0.256 C 
ATOM      8  H   UNL d   1      29.275 -15.930   1.730  0.00  0.00     0.281 HD
BRANCH   5   9
ATOM      9  C   UNL d   1      28.949 -12.134   4.528  0.00  0.00     0.064 A 
ATOM     10  C   UNL d   1      29.709 -11.566   5.579  0.00  0.00     0.032 A 
ATOM     11  C   UNL d   1      29.522 -10.259   6.040  0.00  0.00     0.002 A 
ATOM     12  C   UNL d   1      28.530  -9.473   5.480  0.00  0.00     0.003 A 
ATOM     13  C   UNL d   1      27.684 -10.024   4.523  0.00  0.00     0.039 A 
ATOM     14  C   UNL d   1      27.889 -11.331   4.034  0.00  0.00     0.094 A 
BRANCH  14  15
ATOM     15  O   UNL d   1      27.029 -11.646   3.006  0.00  0.00    -0.354 OA
ATOM     16  C   UNL d   1      27.492 -11.259   1.731  0.00  0.00     0.210 C 
ENDBRANCH  14  15
ENDBRANCH   5   9
ENDBRANCH   1   2
BRANCH   1  17
ATOM     17  C   UNL d   1      27.121 -15.981  -0.209  0.00  0.00     0.043 C 
ATOM     18  C   UNL d   1      25.815 -15.575  -0.150  0.00  0.00     0.028 C 
ATOM     19  C   UNL d   1      24.680 -16.505  -0.281  0.00  0.00    -0.011 C 
ATOM     20  C   UNL d   1      23.405 -16.304  -0.856  0.00  0.00     0.053 C 
ATOM     21  C   UNL d   1      24.966 -17.763   0.212  0.00  0.00     0.028 C 
ATOM     22  C   UNL d   1      22.632 -17.459  -1.120  0.00  0.00     0.105 C 
ATOM     23  C   UNL d   1      23.276 -18.660  -1.156  0.00  0.00     0.106 C 
ATOM     24  O   UNL d   1      21.405 -17.837  -0.446  0.00  0.00    -0.323 OA
ATOM     25  C   UNL d   1      24.195 -18.836  -0.145  0.00  0.00     0.064 C 
ATOM     26  O   UNL d   1      22.425 -19.680  -1.491  0.00  0.00    -0.323 OA
ATOM     27  C   UNL d   1      21.472 -19.325  -0.503  0.00  0.00     0.352 C 
ATOM     28  N   UNL d   1      26.229 -18.003   0.773  0.00  0.00    -0.224 NA
ATOM     29  C   UNL d   1      27.224 -17.459   0.001  0.00  0.00     0.234 C 
ATOM     30  H   UNL d   1      26.388 -18.969   1.040  0.00  0.00     0.137 HD
ATOM     31  O   UNL d   1      28.091 -18.198  -0.508  0.00  0.00    -0.274 OA
ENDBRANCH   1  17
BRANCH   1  32
ATOM     32  C   UNL d   1      28.517 -13.693  -0.982  0.00  0.00     0.184 C 
ATOM     33  N   UNL d   1      29.172 -12.599  -0.616  0.00  0.00    -0.111 NA
ATOM     34  N   UNL d   1      29.009 -11.626  -1.562  0.00  0.00    -0.023 NA
ATOM     35  N   UNL d   1      28.271 -12.072  -2.551  0.00  0.00    -0.043 NA
ATOM     36  N   UNL d   1      27.869 -13.299  -2.176  0.00  0.00    -0.223 N 
BRANCH  36  37
ATOM     37  C   UNL d   1      27.044 -14.024  -3.136  0.00  0.00     0.048 C 
ATOM     38  C   UNL d   1      27.318 -15.505  -3.321  0.00  0.00     0.040 C 
ATOM     39  C   UNL d   1      25.541 -13.788  -2.778  0.00  0.00     0.040 C 
ATOM     40  C   UNL d   1      27.484 -13.623  -4.513  0.00  0.00     0.040 C 
ENDBRANCH  36  37
ENDBRANCH   1  32
TORSDOF 6
ENDMDL
MODEL 2
REMARK VINA RESULT:    -9.935      1.289      2.006
REMARK INTER + INTRA:         -14.192
REMARK INTER:                 -11.725
REMARK INTRA:                  -2.467
REMARK CONF_INDEPENDENT:        1.790
REMARK UNBOUND:                -2.467
REMARK  6 active torsions:
REMARK  status: ('A' for Active; 'I' for Inactive)
REMARK    1  A    between atoms: O_2  and  C_3 
REMARK    2  A    between atoms: C_8  and  N_9 
REMARK    3  A    between atoms: N_12  and  C_13 
REMARK    4  A    between atoms: C_13  and  C_14 
REMARK    5  A    between atoms: C_13  and  C_28 
REMARK    6  A    between atoms: N_32  and  C_33 
ROOT
ATOM      1  C   UNL d   1      28.744 -15.784  -0.273  0.00  0.00     0.298 C 
ENDROOT
BRANCH   1   2
ATOM      2  N   UNL d   1      29.076 -15.104   1.342  0.00  0.00    -0.052 N 
ATOM      3  C   UNL d   1      30.042 -13.894   1.351  0.00  0.00     0.256 C 
ATOM      4  C   UNL d   1      30.120 -13.133   2.691  0.00  0.00     0.150 C 
ATOM      5  N   UNL d   1      28.842 -12.889   3.355  0.00  0.00    -0.375 N 
ATOM      6  C   UNL d   1      28.136 -14.119   3.666  0.00  0.00     0.150 C 
ATOM      7  C   UNL d   1      27.910 -14.779   2.332  0.00  0.00     0.256 C 
ATOM      8  H   UNL d   1      29.570 -15.894   1.765  0.00  0.00     0.281 HD
BRANCH   5   9
ATOM      9  C   UNL d   1      28.116 -11.700   3.392  0.00  0.00     0.064 A 
ATOM     10  C   UNL d   1      27.505 -11.326   2.170  0.00  0.00     0.032 A 
ATOM     11  C   UNL d   1      26.634 -10.240   2.051  0.00  0.00     0.002 A 
ATOM     12  C   UNL d   1      26.363  -9.456   3.160  0.00  0.00     0.003 A 
ATOM     13  C   UNL d   1      27.027  -9.716   4.355  0.00  0.00     0.039 A 
ATOM     14  C   UNL d   1      27.883 -10.829   4.487  0.00  0.00     0.094 A 
BRANCH  14  15
ATOM     15  O   UNL d   1      28.343 -10.985   5.775  0.00  0.00    -0.354 OA
ATOM     16  C   UNL d   1      27.834 -12.126   6.431  0.00  0.00     0.210 C 
ENDBRANCH  14  15
ENDBRANCH   5   9
ENDBRANCH   1   2
BRANCH   1  17
ATOM     17  C   UNL d   1      27.339 -16.480  -0.308  0.00  0.00     0.043 C 
ATOM     18  C   UNL d   1      26.113 -15.880  -0.416  0.00  0.00     0.028 C 
ATOM     19  C   UNL d   1      24.851 -16.639  -0.464  0.00  0.00    -0.011 C 
ATOM     20  C   UNL d   1      23.651 -16.359  -1.155  0.00  0.00     0.053 C 
ATOM     21  C   UNL d   1      24.911 -17.813   0.261  0.00  0.00     0.028 C 
ATOM     22  C   UNL d   1      22.716 -17.414  -1.268  0.00  0.00     0.105 C 
ATOM     23  C   UNL d   1      23.161 -18.684  -1.049  0.00  0.00     0.106 C 
ATOM     24  O   UNL d   1      21.416 -17.475  -0.630  0.00  0.00    -0.323 OA
ATOM     25  C   UNL d   1      23.994 -18.806   0.042  0.00  0.00     0.064 C 
ATOM     26  O   UNL d   1      22.173 -19.610  -1.261  0.00  0.00    -0.323 OA
ATOM     27  C   UNL d   1      21.247 -18.941  -0.421  0.00  0.00     0.352 C 
ATOM     28  N   UNL d   1      26.093 -18.132   0.945  0.00  0.00    -0.224 NA
ATOM     29  C   UNL d   1      27.195 -17.894   0.163  0.00  0.00     0.234 C 
ATOM     30  H   UNL d   1      26.083 -19.045   1.387  0.00  0.00     0.137 HD
ATOM     31  O   UNL d   1      27.955 -18.835  -0.144  0.00  0.00    -0.274 OA
ENDBRANCH   1  17
BRANCH   1  32
ATOM     32  C   UNL d   1      29.241 -14.853  -1.539  0.00  0.00     0.184 C 
ATOM     33  N   UNL d   1      30.420 -14.930  -2.141  0.00  0.00    -0.111 NA
ATOM     34  N   UNL d   1      30.504 -13.975  -3.115  0.00  0.00    -0.023 NA
ATOM     35  N   UNL d   1      29.389 -13.285  -3.172  0.00  0.00    -0.043 NA
ATOM     36  N   UNL d   1      28.636 -13.731  -2.151  0.00  0.00    -0.223 N 
BRANCH  36  37
ATOM     37  C   UNL d   1      27.316 -13.127  -2.017  0.00  0.00     0.048 C 
ATOM     38  C   UNL d   1      27.176 -11.657  -2.367  0.00  0.00     0.040 C 
ATOM     39  C   UNL d   1      26.293 -13.983  -2.833  0.00  0.00     0.040 C 
ATOM     40  C   UNL d   1      27.038 -12.953  -0.553  0.00  0.00     0.040 C 
ENDBRANCH  36  37
ENDBRANCH   1  32
TORSDOF 6
ENDMDL
MODEL 3
REMARK VINA RESULT:    -9.780      1.594      2.082
REMARK INTER + INTRA:         -14.198
REMARK INTER:                 -11.570
REMARK INTRA:                  -2.628
REMARK CONF_INDEPENDENT:        1.790
REMARK UNBOUND:                -2.628
REMARK  6 active torsions:
REMARK  status: ('A' for Active; 'I' for Inactive)
REMARK    1  A    between atoms: O_2  and  C_3 
REMARK    2  A    between atoms: C_8  and  N_9 
REMARK    3  A    between atoms: N_12  and  C_13 
REMARK    4  A    between atoms: C_13  and  C_14 
REMARK    5  A    between atoms: C_13  and  C_28 
REMARK    6  A    between atoms: N_32  and  C_33 
ROOT
ATOM      1  C   UNL d   1      28.915 -15.480  -0.307  0.00  0.00     0.298 C 
ENDROOT
BRANCH   1   2
ATOM      2  N   UNL d   1      29.197 -15.063   1.404  0.00  0.00    -0.052 N 
ATOM      3  C   UNL d   1      30.260 -13.960   1.635  0.00  0.00     0.256 C 
ATOM      4  C   UNL d   1      30.315 -13.400   3.073  0.00  0.00     0.150 C 
ATOM      5  N   UNL d   1      29.022 -13.133   3.696  0.00  0.00    -0.375 N 
ATOM      6  C   UNL d   1      28.196 -14.323   3.792  0.00  0.00     0.150 C 
ATOM      7  C   UNL d   1      28.001 -14.770   2.367  0.00  0.00     0.256 C 
ATOM      8  H   UNL d   1      29.594 -15.945   1.736  0.00  0.00     0.281 HD
BRANCH   5   9
ATOM      9  C   UNL d   1      28.398 -11.898   3.865  0.00  0.00     0.064 A 
ATOM     10  C   UNL d   1      28.890 -11.114   4.936  0.00  0.00     0.032 A 
ATOM     11  C   UNL d   1      28.478  -9.799   5.175  0.00  0.00     0.002 A 
ATOM     12  C   UNL d   1      27.520  -9.224   4.358  0.00  0.00     0.003 A 
ATOM     13  C   UNL d   1      26.925  -9.993   3.362  0.00  0.00     0.039 A 
ATOM     14  C   UNL d   1      27.359 -11.309   3.099  0.00  0.00     0.094 A 
BRANCH  14  15
ATOM     15  O   UNL d   1      26.737 -11.855   2.000  0.00  0.00    -0.354 OA
ATOM     16  C   UNL d   1      27.385 -11.580   0.778  0.00  0.00     0.210 C 
ENDBRANCH  14  15
ENDBRANCH   5   9
ENDBRANCH   1   2
BRANCH   1  17
ATOM     17  C   UNL d   1      27.459 -16.026  -0.515  0.00  0.00     0.043 C 
ATOM     18  C   UNL d   1      26.989 -17.279  -0.228  0.00  0.00     0.028 C 
ATOM     19  C   UNL d   1      25.587 -17.678  -0.443  0.00  0.00    -0.011 C 
ATOM     20  C   UNL d   1      24.777 -18.573   0.291  0.00  0.00     0.053 C 
ATOM     21  C   UNL d   1      25.007 -17.023  -1.512  0.00  0.00     0.028 C 
ATOM     22  C   UNL d   1      23.385 -18.528   0.044  0.00  0.00     0.105 C 
ATOM     23  C   UNL d   1      22.886 -17.420  -0.576  0.00  0.00     0.106 C 
ATOM     24  O   UNL d   1      22.596 -19.565  -0.592  0.00  0.00    -0.323 OA
ATOM     25  C   UNL d   1      23.645 -16.981  -1.638  0.00  0.00     0.064 C 
ATOM     26  O   UNL d   1      21.521 -17.476  -0.687  0.00  0.00    -0.323 OA
ATOM     27  C   UNL d   1      21.535 -18.768  -1.270  0.00  0.00     0.352 C 
ATOM     28  N   UNL d   1      25.776 -16.113  -2.251  0.00  0.00    -0.224 NA
ATOM     29  C   UNL d   1      26.514 -15.304  -1.425  0.00  0.00     0.234 C 
ATOM     30  H   UNL d   1      25.257 -15.617  -2.968  0.00  0.00     0.137 HD
ATOM     31  O   UNL d   1      26.329 -14.069  -1.435  0.00  0.00    -0.274 OA
ENDBRANCH   1  17
BRANCH   1  32
ATOM     32  C   UNL d   1      29.575 -14.438  -1.399  0.00  0.00     0.184 C 
ATOM     33  N   UNL d   1      30.028 -13.221  -1.132  0.00  0.00    -0.111 NA
ATOM     34  N   UNL d   1      30.460 -12.626  -2.285  0.00  0.00    -0.023 NA
ATOM     35  N   UNL d   1      30.312 -13.444  -3.300  0.00  0.00    -0.043 NA
ATOM     36  N   UNL d   1      29.678 -14.522  -2.807  0.00  0.00    -0.223 N 
BRANCH  36  37
ATOM     37  C   UNL d   1      29.420 -15.602  -3.752  0.00  0.00     0.048 C 
ATOM     38  C   UNL d   1      30.136 -15.553  -5.088  0.00  0.00     0.040 C 
ATOM     39  C   UNL d   1      29.693 -16.965  -3.036  0.00  0.00     0.040 C 
ATOM     40  C   UNL d   1      28.045 -15.398  -4.318  0.00  0.00     0.040 C 
ENDBRANCH  36  37
ENDBRANCH   1  32
TORSDOF 6
ENDMDL
MODEL 4
REMARK VINA RESULT:    -9.765      1.845      3.183
REMARK INTER + INTRA:         -14.373
REMARK INTER:                 -11.555
REMARK INTRA:                  -2.818
REMARK CONF_INDEPENDENT:        1.790
REMARK UNBOUND:                -2.818
REMARK  6 active torsions:
REMARK  status: ('A' for Active; 'I' for Inactive)
REMARK    1  A    between atoms: O_2  and  C_3 
REMARK    2  A    between atoms: C_8  and  N_9 
REMARK    3  A    between atoms: N_12  and  C_13 
REMARK    4  A    between atoms: C_13  and  C_14 
REMARK    5  A    between atoms: C_13  and  C_28 
REMARK    6  A    between atoms: N_32  and  C_33 
ROOT
ATOM      1  C   UNL d   1      28.516 -14.363   0.430  0.00  0.00     0.298 C 
ENDROOT
BRANCH   1   2
ATOM      2  N   UNL d   1      29.094 -14.827   2.052  0.00  0.00    -0.052 N 
ATOM      3  C   UNL d   1      30.418 -14.152   2.486  0.00  0.00     0.256 C 
ATOM      4  C   UNL d   1      30.781 -14.328   3.976  0.00  0.00     0.150 C 
ATOM      5  N   UNL d   1      29.679 -14.157   4.919  0.00  0.00    -0.375 N 
ATOM      6  C   UNL d   1      28.598 -15.098   4.685  0.00  0.00     0.150 C 
ATOM      7  C   UNL d   1      28.131 -14.806   3.284  0.00  0.00     0.256 C 
ATOM      8  H   UNL d   1      29.294 -15.817   1.889  0.00  0.00     0.281 HD
BRANCH   5   9
ATOM      9  C   UNL d   1      29.408 -13.049   5.719  0.00  0.00     0.064 A 
ATOM     10  C   UNL d   1      28.512 -13.281   6.790  0.00  0.00     0.032 A 
ATOM     11  C   UNL d   1      28.226 -12.326   7.770  0.00  0.00     0.002 A 
ATOM     12  C   UNL d   1      28.811 -11.074   7.695  0.00  0.00     0.003 A 
ATOM     13  C   UNL d   1      29.610 -10.760   6.600  0.00  0.00     0.039 A 
ATOM     14  C   UNL d   1      29.924 -11.731   5.625  0.00  0.00     0.094 A 
BRANCH  14  15
ATOM     15  O   UNL d   1      30.824 -11.265   4.694  0.00  0.00    -0.354 OA
ATOM     16  C   UNL d   1      32.146 -11.163   5.176  0.00  0.00     0.210 C 
ENDBRANCH  14  15
ENDBRANCH   5   9
ENDBRANCH   1   2
BRANCH   1  17
ATOM     17  C   UNL d   1      27.225 -15.167   0.046  0.00  0.00     0.043 C 
ATOM     18  C   UNL d   1      26.940 -16.475   0.335  0.00  0.00     0.028 C 
ATOM     19  C   UNL d   1      25.677 -17.125  -0.056  0.00  0.00    -0.011 C 
ATOM     20  C   UNL d   1      24.932 -18.128   0.605  0.00  0.00     0.053 C 
ATOM     21  C   UNL d   1      25.162 -16.619  -1.233  0.00  0.00     0.028 C 
ATOM     22  C   UNL d   1      23.607 -18.340   0.158  0.00  0.00     0.105 C 
ATOM     23  C   UNL d   1      23.024 -17.361  -0.590  0.00  0.00     0.106 C 
ATOM     24  O   UNL d   1      23.115 -19.522  -0.524  0.00  0.00    -0.323 OA
ATOM     25  C   UNL d   1      23.848 -16.826  -1.556  0.00  0.00     0.064 C 
ATOM     26  O   UNL d   1      21.723 -17.664  -0.894  0.00  0.00    -0.323 OA
ATOM     27  C   UNL d   1      22.047 -18.950  -1.393  0.00  0.00     0.352 C 
ATOM     28  N   UNL d   1      25.866 -15.610  -1.905  0.00  0.00    -0.224 NA
ATOM     29  C   UNL d   1      26.318 -14.656  -1.030  0.00  0.00     0.234 C 
ATOM     30  H   UNL d   1      25.384 -15.238  -2.717  0.00  0.00     0.137 HD
ATOM     31  O   UNL d   1      25.927 -13.475  -1.139  0.00  0.00    -0.274 OA
ENDBRANCH   1  17
BRANCH   1  32
ATOM     32  C   UNL d   1      28.628 -12.757   0.080  0.00  0.00     0.184 C 
ATOM     33  N   UNL d   1      29.376 -12.223  -0.876  0.00  0.00    -0.111 NA
ATOM     34  N   UNL d   1      29.261 -10.861  -0.847  0.00  0.00    -0.023 NA
ATOM     35  N   UNL d   1      28.433 -10.497   0.104  0.00  0.00    -0.043 NA
ATOM     36  N   UNL d   1      28.110 -11.628   0.756  0.00  0.00    -0.223 N 
BRANCH  36  37
ATOM     37  C   UNL d   1      27.165 -11.486   1.857  0.00  0.00     0.048 C 
ATOM     38  C   UNL d   1      26.506 -10.133   2.048  0.00  0.00     0.040 C 
ATOM     39  C   UNL d   1      26.082 -12.607   1.730  0.00  0.00     0.040 C 
ATOM     40  C   UNL d   1      27.952 -11.445   3.134  0.00  0.00     0.040 C 
ENDBRANCH  36  37
ENDBRANCH   1  32
TORSDOF 6
ENDMDL
MODEL 5
REMARK VINA RESULT:    -9.692      1.768      2.462
REMARK INTER + INTRA:         -13.808
REMARK INTER:                 -11.482
REMARK INTRA:                  -2.326
REMARK CONF_INDEPENDENT:        1.790
REMARK UNBOUND:                -2.326
REMARK  6 active torsions:
REMARK  status: ('A' for Active; 'I' for Inactive)
REMARK    1  A    between atoms: O_2  and  C_3 
REMARK    2  A    between atoms: C_8  and  N_9 
REMARK    3  A    between atoms: N_12  and  C_13 
REMARK    4  A    between atoms: C_13  and  C_14 
REMARK    5  A    between atoms: C_13  and  C_28 
REMARK    6  A    between atoms: N_32  and  C_33 
ROOT
ATOM      1  C   UNL d   1      28.936 -15.469  -0.311  0.00  0.00     0.298 C 
ENDROOT
BRANCH   1   2
ATOM      2  N   UNL d   1      29.226 -15.057   1.400  0.00  0.00    -0.052 N 
ATOM      3  C   UNL d   1      30.319 -13.984   1.632  0.00  0.00     0.256 C 
ATOM      4  C   UNL d   1      30.386 -13.423   3.068  0.00  0.00     0.150 C 
ATOM      5  N   UNL d   1      29.100 -13.119   3.688  0.00  0.00    -0.375 N 
ATOM      6  C   UNL d   1      28.240 -14.285   3.784  0.00  0.00     0.150 C 
ATOM      7  C   UNL d   1      28.037 -14.729   2.360  0.00  0.00     0.256 C 
ATOM      8  H   UNL d   1      29.598 -15.950   1.734  0.00  0.00     0.281 HD
BRANCH   5   9
ATOM      9  C   UNL d   1      28.511 -11.866   3.853  0.00  0.00     0.064 A 
ATOM     10  C   UNL d   1      27.769 -11.397   2.742  0.00  0.00     0.032 A 
ATOM     11  C   UNL d   1      27.003 -10.227   2.772  0.00  0.00     0.002 A 
ATOM     12  C   UNL d   1      26.978  -9.456   3.921  0.00  0.00     0.003 A 
ATOM     13  C   UNL d   1      27.780  -9.816   5.000  0.00  0.00     0.039 A 
ATOM     14  C   UNL d   1      28.530 -11.011   4.984  0.00  0.00     0.094 A 
BRANCH  14  15
ATOM     15  O   UNL d   1      29.155 -11.252   6.187  0.00  0.00    -0.354 OA
ATOM     16  C   UNL d   1      28.552 -12.271   6.953  0.00  0.00     0.210 C 
ENDBRANCH  14  15
ENDBRANCH   5   9
ENDBRANCH   1   2
BRANCH   1  17
ATOM     17  C   UNL d   1      27.479 -16.012  -0.515  0.00  0.00     0.043 C 
ATOM     18  C   UNL d   1      27.012 -17.271  -0.245  0.00  0.00     0.028 C 
ATOM     19  C   UNL d   1      25.608 -17.666  -0.454  0.00  0.00    -0.011 C 
ATOM     20  C   UNL d   1      24.806 -18.575   0.272  0.00  0.00     0.053 C 
ATOM     21  C   UNL d   1      25.018 -16.993  -1.505  0.00  0.00     0.028 C 
ATOM     22  C   UNL d   1      23.412 -18.526   0.039  0.00  0.00     0.105 C 
ATOM     23  C   UNL d   1      22.906 -17.408  -0.556  0.00  0.00     0.106 C 
ATOM     24  O   UNL d   1      22.617 -19.552  -0.607  0.00  0.00    -0.323 OA
ATOM     25  C   UNL d   1      23.655 -16.950  -1.618  0.00  0.00     0.064 C 
ATOM     26  O   UNL d   1      21.540 -17.463  -0.656  0.00  0.00    -0.323 OA
ATOM     27  C   UNL d   1      21.549 -18.744  -1.261  0.00  0.00     0.352 C 
ATOM     28  N   UNL d   1      25.780 -16.070  -2.236  0.00  0.00    -0.224 NA
ATOM     29  C   UNL d   1      26.525 -15.275  -1.403  0.00  0.00     0.234 C 
ATOM     30  H   UNL d   1      25.254 -15.562  -2.939  0.00  0.00     0.137 HD
ATOM     31  O   UNL d   1      26.339 -14.041  -1.390  0.00  0.00    -0.274 OA
ENDBRANCH   1  17
BRANCH   1  32
ATOM     32  C   UNL d   1      29.594 -14.426  -1.403  0.00  0.00     0.184 C 
ATOM     33  N   UNL d   1      29.980 -13.182  -1.151  0.00  0.00    -0.111 NA
ATOM     34  N   UNL d   1      30.432 -12.597  -2.301  0.00  0.00    -0.023 NA
ATOM     35  N   UNL d   1      30.364 -13.446  -3.299  0.00  0.00    -0.043 NA
ATOM     36  N   UNL d   1      29.759 -14.539  -2.803  0.00  0.00    -0.223 N 
BRANCH  36  37
ATOM     37  C   UNL d   1      29.589 -15.654  -3.729  0.00  0.00     0.048 C 
ATOM     38  C   UNL d   1      29.633 -17.057  -3.155  0.00  0.00     0.040 C 
ATOM     39  C   UNL d   1      28.267 -15.433  -4.535  0.00  0.00     0.040 C 
ATOM     40  C   UNL d   1      30.854 -15.785  -4.525  0.00  0.00     0.040 C 
ENDBRANCH  36  37
ENDBRANCH   1  32
TORSDOF 6
ENDMDL
MODEL 6
REMARK VINA RESULT:    -9.443      4.021      6.413
REMARK INTER + INTRA:         -13.718
REMARK INTER:                 -11.233
REMARK INTRA:                  -2.485
REMARK CONF_INDEPENDENT:        1.790
REMARK UNBOUND:                -2.485
REMARK  6 active torsions:
REMARK  status: ('A' for Active; 'I' for Inactive)
REMARK    1  A    between atoms: O_2  and  C_3 
REMARK    2  A    between atoms: C_8  and  N_9 
REMARK    3  A    between atoms: N_12  and  C_13 
REMARK    4  A    between atoms: C_13  and  C_14 
REMARK    5  A    between atoms: C_13  and  C_28 
REMARK    6  A    between atoms: N_32  and  C_33 
ROOT
ATOM      1  C   UNL d   1      28.072 -15.077  -3.472  0.00  0.00     0.298 C 
ENDROOT
BRANCH   1   2
ATOM      2  N   UNL d   1      28.247 -15.728  -1.821  0.00  0.00    -0.052 N 
ATOM      3  C   UNL d   1      29.487 -15.211  -1.049  0.00  0.00     0.256 C 
ATOM      4  C   UNL d   1      29.501 -15.546   0.457  0.00  0.00     0.150 C 
ATOM      5  N   UNL d   1      28.234 -15.360   1.158  0.00  0.00    -0.375 N 
ATOM      6  C   UNL d   1      27.170 -16.179   0.605  0.00  0.00     0.150 C 
ATOM      7  C   UNL d   1      27.042 -15.727  -0.825  0.00  0.00     0.256 C 
ATOM      8  H   UNL d   1      28.411 -16.714  -2.039  0.00  0.00     0.281 HD
BRANCH   5   9
ATOM      9  C   UNL d   1      27.870 -14.305   1.992  0.00  0.00     0.064 A 
ATOM     10  C   UNL d   1      28.218 -14.464   3.356  0.00  0.00     0.032 A 
ATOM     11  C   UNL d   1      28.052 -13.457   4.311  0.00  0.00     0.002 A 
ATOM     12  C   UNL d   1      27.492 -12.247   3.939  0.00  0.00     0.003 A 
ATOM     13  C   UNL d   1      27.030 -12.084   2.636  0.00  0.00     0.039 A 
ATOM     14  C   UNL d   1      27.223 -13.086   1.663  0.00  0.00     0.094 A 
BRANCH  14  15
ATOM     15  O   UNL d   1      26.811 -12.686   0.412  0.00  0.00    -0.354 OA
ATOM     16  C   UNL d   1      27.807 -12.027  -0.338  0.00  0.00     0.210 C 
ENDBRANCH  14  15
ENDBRANCH   5   9
ENDBRANCH   1   2
BRANCH   1  17
ATOM     17  C   UNL d   1      28.866 -15.952  -4.504  0.00  0.00     0.043 C 
ATOM     18  C   UNL d   1      29.827 -16.891  -4.237  0.00  0.00     0.028 C 
ATOM     19  C   UNL d   1      30.494 -17.676  -5.289  0.00  0.00    -0.011 C 
ATOM     20  C   UNL d   1      30.972 -19.006  -5.262  0.00  0.00     0.053 C 
ATOM     21  C   UNL d   1      30.615 -16.979  -6.475  0.00  0.00     0.028 C 
ATOM     22  C   UNL d   1      31.286 -19.599  -6.507  0.00  0.00     0.105 C 
ATOM     23  C   UNL d   1      30.778 -19.021  -7.632  0.00  0.00     0.106 C 
ATOM     24  O   UNL d   1      32.612 -19.961  -6.970  0.00  0.00    -0.323 OA
ATOM     25  C   UNL d   1      30.863 -17.646  -7.645  0.00  0.00     0.064 C 
ATOM     26  O   UNL d   1      31.100 -19.735  -8.757  0.00  0.00    -0.323 OA
ATOM     27  C   UNL d   1      32.482 -19.772  -8.443  0.00  0.00     0.352 C 
ATOM     28  N   UNL d   1      30.135 -15.664  -6.543  0.00  0.00    -0.224 NA
ATOM     29  C   UNL d   1      28.904 -15.555  -5.947  0.00  0.00     0.234 C 
ATOM     30  H   UNL d   1      30.189 -15.249  -7.468  0.00  0.00     0.137 HD
ATOM     31  O   UNL d   1      27.915 -15.200  -6.621  0.00  0.00    -0.274 OA
ENDBRANCH   1  17
BRANCH   1  32
ATOM     32  C   UNL d   1      26.570 -14.512  -3.846  0.00  0.00     0.184 C 
ATOM     33  N   UNL d   1      25.461 -15.237  -3.899  0.00  0.00    -0.111 NA
ATOM     34  N   UNL d   1      24.413 -14.450  -4.288  0.00  0.00    -0.023 NA
ATOM     35  N   UNL d   1      24.817 -13.215  -4.473  0.00  0.00    -0.043 NA
ATOM     36  N   UNL d   1      26.152 -13.244  -4.311  0.00  0.00    -0.223 N 
BRANCH  36  37
ATOM     37  C   UNL d   1      26.840 -11.965  -4.442  0.00  0.00     0.048 C 
ATOM     38  C   UNL d   1      28.221 -11.843  -3.825  0.00  0.00     0.040 C 
ATOM     39  C   UNL d   1      26.882 -11.576  -5.956  0.00  0.00     0.040 C 
ATOM     40  C   UNL d   1      26.181 -10.991  -3.510  0.00  0.00     0.040 C 
ENDBRANCH  36  37
ENDBRANCH   1  32
TORSDOF 6
ENDMDL
MODEL 7
REMARK VINA RESULT:    -9.310      2.422      8.279
REMARK INTER + INTRA:         -13.690
REMARK INTER:                 -11.100
REMARK INTRA:                  -2.590
REMARK CONF_INDEPENDENT:        1.790
REMARK UNBOUND:                -2.590
REMARK  6 active torsions:
REMARK  status: ('A' for Active; 'I' for Inactive)
REMARK    1  A    between atoms: O_2  and  C_3 
REMARK    2  A    between atoms: C_8  and  N_9 
REMARK    3  A    between atoms: N_12  and  C_13 
REMARK    4  A    between atoms: C_13  and  C_14 
REMARK    5  A    between atoms: C_13  and  C_28 
REMARK    6  A    between atoms: N_32  and  C_33 
ROOT
ATOM      1  C   UNL d   1      29.005 -13.901   2.515  0.00  0.00     0.298 C 
ENDROOT
BRANCH   1   2
ATOM      2  N   UNL d   1      28.860 -15.225   1.329  0.00  0.00    -0.052 N 
ATOM      3  C   UNL d   1      27.422 -15.768   1.137  0.00  0.00     0.256 C 
ATOM      4  C   UNL d   1      27.239 -16.712  -0.071  0.00  0.00     0.150 C 
ATOM      5  N   UNL d   1      27.896 -16.292  -1.306  0.00  0.00    -0.375 N 
ATOM      6  C   UNL d   1      29.333 -16.160  -1.151  0.00  0.00     0.150 C 
ATOM      7  C   UNL d   1      29.510 -15.109  -0.088  0.00  0.00     0.256 C 
ATOM      8  H   UNL d   1      29.400 -15.950   1.809  0.00  0.00     0.281 HD
BRANCH   5   9
ATOM      9  C   UNL d   1      27.308 -15.701  -2.423  0.00  0.00     0.064 A 
ATOM     10  C   UNL d   1      28.168 -15.522  -3.534  0.00  0.00     0.032 A 
ATOM     11  C   UNL d   1      27.724 -15.068  -4.780  0.00  0.00     0.002 A 
ATOM     12  C   UNL d   1      26.390 -14.741  -4.952  0.00  0.00     0.003 A 
ATOM     13  C   UNL d   1      25.530 -14.791  -3.859  0.00  0.00     0.039 A 
ATOM     14  C   UNL d   1      25.967 -15.277  -2.609  0.00  0.00     0.094 A 
BRANCH  14  15
ATOM     15  O   UNL d   1      24.942 -15.367  -1.695  0.00  0.00    -0.354 OA
ATOM     16  C   UNL d   1      24.335 -16.639  -1.636  0.00  0.00     0.210 C 
ENDBRANCH  14  15
ENDBRANCH   5   9
ENDBRANCH   1   2
BRANCH   1  17
ATOM     17  C   UNL d   1      28.389 -12.575   1.949  0.00  0.00     0.043 C 
ATOM     18  C   UNL d   1      27.210 -11.981   2.313  0.00  0.00     0.028 C 
ATOM     19  C   UNL d   1      26.738 -10.714   1.729  0.00  0.00    -0.011 C 
ATOM     20  C   UNL d   1      25.992  -9.667   2.317  0.00  0.00     0.053 C 
ATOM     21  C   UNL d   1      27.140 -10.551   0.418  0.00  0.00     0.028 C 
ATOM     22  C   UNL d   1      25.947  -8.440   1.615  0.00  0.00     0.105 C 
ATOM     23  C   UNL d   1      26.888  -8.224   0.652  0.00  0.00     0.106 C 
ATOM     24  O   UNL d   1      24.780  -7.861   0.979  0.00  0.00    -0.323 OA
ATOM     25  C   UNL d   1      27.118  -9.312  -0.162  0.00  0.00     0.064 C 
ATOM     26  O   UNL d   1      26.774  -6.973   0.105  0.00  0.00    -0.323 OA
ATOM     27  C   UNL d   1      25.390  -7.122  -0.162  0.00  0.00     0.352 C 
ATOM     28  N   UNL d   1      27.897 -11.562  -0.192  0.00  0.00    -0.224 NA
ATOM     29  C   UNL d   1      28.880 -12.018   0.649  0.00  0.00     0.234 C 
ATOM     30  H   UNL d   1      28.219 -11.333  -1.126  0.00  0.00     0.137 HD
ATOM     31  O   UNL d   1      30.080 -11.902   0.325  0.00  0.00    -0.274 OA
ENDBRANCH   1  17
BRANCH   1  32
ATOM     32  C   UNL d   1      28.744 -14.335   4.083  0.00  0.00     0.184 C 
ATOM     33  N   UNL d   1      28.254 -15.497   4.494  0.00  0.00    -0.111 NA
ATOM     34  N   UNL d   1      28.128 -15.490   5.855  0.00  0.00    -0.023 NA
ATOM     35  N   UNL d   1      28.545 -14.346   6.343  0.00  0.00    -0.043 NA
ATOM     36  N   UNL d   1      28.831 -13.580   5.275  0.00  0.00    -0.223 N 
BRANCH  36  37
ATOM     37  C   UNL d   1      29.349 -12.247   5.563  0.00  0.00     0.048 C 
ATOM     38  C   UNL d   1      30.436 -11.704   4.655  0.00  0.00     0.040 C 
ATOM     39  C   UNL d   1      28.145 -11.251   5.629  0.00  0.00     0.040 C 
ATOM     40  C   UNL d   1      30.216 -12.345   6.783  0.00  0.00     0.040 C 
ENDBRANCH  36  37
ENDBRANCH   1  32
TORSDOF 6
ENDMDL
MODEL 8
REMARK VINA RESULT:    -9.033      2.928      8.087
REMARK INTER + INTRA:         -13.763
REMARK INTER:                 -10.822
REMARK INTRA:                  -2.940
REMARK CONF_INDEPENDENT:        1.790
REMARK UNBOUND:                -2.940
REMARK  6 active torsions:
REMARK  status: ('A' for Active; 'I' for Inactive)
REMARK    1  A    between atoms: O_2  and  C_3 
REMARK    2  A    between atoms: C_8  and  N_9 
REMARK    3  A    between atoms: N_12  and  C_13 
REMARK    4  A    between atoms: C_13  and  C_14 
REMARK    5  A    between atoms: C_13  and  C_28 
REMARK    6  A    between atoms: N_32  and  C_33 
ROOT
ATOM      1  C   UNL d   1      27.083 -15.165   0.177  0.00  0.00     0.298 C 
ENDROOT
BRANCH   1   2
ATOM      2  N   UNL d   1      28.635 -16.007  -0.073  0.00  0.00    -0.052 N 
ATOM      3  C   UNL d   1      28.509 -17.515  -0.402  0.00  0.00     0.256 C 
ATOM      4  C   UNL d   1      29.811 -18.186  -0.887  0.00  0.00     0.150 C 
ATOM      5  N   UNL d   1      30.594 -17.421  -1.853  0.00  0.00    -0.375 N 
ATOM      6  C   UNL d   1      31.012 -16.133  -1.332  0.00  0.00     0.150 C 
ATOM      7  C   UNL d   1      29.728 -15.411  -1.018  0.00  0.00     0.256 C 
ATOM      8  H   UNL d   1      29.029 -15.930   0.868  0.00  0.00     0.281 HD
BRANCH   5   9
ATOM      9  C   UNL d   1      30.670 -17.616  -3.231  0.00  0.00     0.064 A 
ATOM     10  C   UNL d   1      31.224 -18.855  -3.637  0.00  0.00     0.032 A 
ATOM     11  C   UNL d   1      31.260 -19.278  -4.969  0.00  0.00     0.002 A 
ATOM     12  C   UNL d   1      30.764 -18.452  -5.962  0.00  0.00     0.003 A 
ATOM     13  C   UNL d   1      30.313 -17.179  -5.626  0.00  0.00     0.039 A 
ATOM     14  C   UNL d   1      30.248 -16.760  -4.280  0.00  0.00     0.094 A 
BRANCH  14  15
ATOM     15  O   UNL d   1      29.660 -15.523  -4.146  0.00  0.00    -0.354 OA
ATOM     16  C   UNL d   1      28.432 -15.394  -4.828  0.00  0.00     0.210 C 
ENDBRANCH  14  15
ENDBRANCH   5   9
ENDBRANCH   1   2
BRANCH   1  17
ATOM     17  C   UNL d   1      27.286 -13.861   1.026  0.00  0.00     0.043 C 
ATOM     18  C   UNL d   1      26.626 -12.668   0.893  0.00  0.00     0.028 C 
ATOM     19  C   UNL d   1      26.881 -11.510   1.767  0.00  0.00    -0.011 C 
ATOM     20  C   UNL d   1      25.995 -10.512   2.230  0.00  0.00     0.053 C 
ATOM     21  C   UNL d   1      28.190 -11.455   2.205  0.00  0.00     0.028 C 
ATOM     22  C   UNL d   1      26.444  -9.703   3.300  0.00  0.00     0.105 C 
ATOM     23  C   UNL d   1      27.497 -10.155   4.039  0.00  0.00     0.106 C 
ATOM     24  O   UNL d   1      26.758  -8.289   3.230  0.00  0.00    -0.323 OA
ATOM     25  C   UNL d   1      28.522 -10.688   3.289  0.00  0.00     0.064 C 
ATOM     26  O   UNL d   1      27.780  -9.313   5.083  0.00  0.00    -0.323 OA
ATOM     27  C   UNL d   1      27.832  -8.164   4.255  0.00  0.00     0.352 C 
ATOM     28  N   UNL d   1      29.092 -12.440   1.780  0.00  0.00    -0.224 NA
ATOM     29  C   UNL d   1      28.527 -13.689   1.845  0.00  0.00     0.234 C 
ATOM     30  H   UNL d   1      30.010 -12.375   2.207  0.00  0.00     0.137 HD
ATOM     31  O   UNL d   1      29.023 -14.559   2.590  0.00  0.00    -0.274 OA
ENDBRANCH   1  17
BRANCH   1  32
ATOM     32  C   UNL d   1      26.072 -15.160  -1.124  0.00  0.00     0.184 C 
ATOM     33  N   UNL d   1      26.102 -14.290  -2.124  0.00  0.00    -0.111 NA
ATOM     34  N   UNL d   1      25.088 -14.559  -3.001  0.00  0.00    -0.023 NA
ATOM     35  N   UNL d   1      24.405 -15.604  -2.597  0.00  0.00    -0.043 NA
ATOM     36  N   UNL d   1      24.919 -15.931  -1.398  0.00  0.00    -0.223 N 
BRANCH  36  37
ATOM     37  C   UNL d   1      24.335 -17.097  -0.747  0.00  0.00     0.048 C 
ATOM     38  C   UNL d   1      23.748 -18.178  -1.635  0.00  0.00     0.040 C 
ATOM     39  C   UNL d   1      25.396 -17.706   0.227  0.00  0.00     0.040 C 
ATOM     40  C   UNL d   1      23.025 -16.679  -0.145  0.00  0.00     0.040 C 
ENDBRANCH  36  37
ENDBRANCH   1  32
TORSDOF 6
ENDMDL
MODEL 9
REMARK VINA RESULT:    -9.012      3.207      5.519
REMARK INTER + INTRA:         -13.689
REMARK INTER:                 -10.801
REMARK INTRA:                  -2.887
REMARK CONF_INDEPENDENT:        1.790
REMARK UNBOUND:                -2.887
REMARK  6 active torsions:
REMARK  status: ('A' for Active; 'I' for Inactive)
REMARK    1  A    between atoms: O_2  and  C_3 
REMARK    2  A    between atoms: C_8  and  N_9 
REMARK    3  A    between atoms: N_12  and  C_13 
REMARK    4  A    between atoms: C_13  and  C_14 
REMARK    5  A    between atoms: C_13  and  C_28 
REMARK    6  A    between atoms: N_32  and  C_33 
ROOT
ATOM      1  C   UNL d   1      28.132 -12.511   1.916  0.00  0.00     0.298 C 
ENDROOT
BRANCH   1   2
ATOM      2  N   UNL d   1      28.610 -13.745   3.112  0.00  0.00    -0.052 N 
ATOM      3  C   UNL d   1      30.058 -13.605   3.645  0.00  0.00     0.256 C 
ATOM      4  C   UNL d   1      30.390 -14.486   4.867  0.00  0.00     0.150 C 
ATOM      5  N   UNL d   1      29.366 -14.534   5.908  0.00  0.00    -0.375 N 
ATOM      6  C   UNL d   1      28.099 -15.043   5.415  0.00  0.00     0.150 C 
ATOM      7  C   UNL d   1      27.693 -14.078   4.333  0.00  0.00     0.256 C 
ATOM      8  H   UNL d   1      28.580 -14.580   2.522  0.00  0.00     0.281 HD
BRANCH   5   9
ATOM      9  C   UNL d   1      29.362 -13.861   7.128  0.00  0.00     0.064 A 
ATOM     10  C   UNL d   1      28.393 -12.835   7.249  0.00  0.00     0.032 A 
ATOM     11  C   UNL d   1      28.155 -12.145   8.441  0.00  0.00     0.002 A 
ATOM     12  C   UNL d   1      28.910 -12.437   9.564  0.00  0.00     0.003 A 
ATOM     13  C   UNL d   1      29.949 -13.357   9.464  0.00  0.00     0.039 A 
ATOM     14  C   UNL d   1      30.174 -14.077   8.271  0.00  0.00     0.094 A 
BRANCH  14  15
ATOM     15  O   UNL d   1      31.161 -15.025   8.411  0.00  0.00    -0.354 OA
ATOM     16  C   UNL d   1      32.003 -14.818   9.524  0.00  0.00     0.210 C 
ENDBRANCH  14  15
ENDBRANCH   5   9
ENDBRANCH   1   2
BRANCH   1  17
ATOM     17  C   UNL d   1      27.707 -13.181   0.563  0.00  0.00     0.043 C 
ATOM     18  C   UNL d   1      26.719 -12.775  -0.295  0.00  0.00     0.028 C 
ATOM     19  C   UNL d   1      26.421 -13.470  -1.559  0.00  0.00    -0.011 C 
ATOM     20  C   UNL d   1      25.970 -12.951  -2.793  0.00  0.00     0.053 C 
ATOM     21  C   UNL d   1      26.670 -14.827  -1.489  0.00  0.00     0.028 C 
ATOM     22  C   UNL d   1      26.064 -13.803  -3.919  0.00  0.00     0.105 C 
ATOM     23  C   UNL d   1      26.893 -14.882  -3.831  0.00  0.00     0.106 C 
ATOM     24  O   UNL d   1      24.953 -14.381  -4.648  0.00  0.00    -0.323 OA
ATOM     25  C   UNL d   1      26.805 -15.562  -2.636  0.00  0.00     0.064 C 
ATOM     26  O   UNL d   1      26.944 -15.577  -5.011  0.00  0.00    -0.323 OA
ATOM     27  C   UNL d   1      25.534 -15.671  -5.117  0.00  0.00     0.352 C 
ATOM     28  N   UNL d   1      27.136 -15.373  -0.285  0.00  0.00    -0.224 NA
ATOM     29  C   UNL d   1      28.118 -14.589   0.265  0.00  0.00     0.234 C 
ATOM     30  H   UNL d   1      27.369 -16.359  -0.339  0.00  0.00     0.137 HD
ATOM     31  O   UNL d   1      29.265 -15.053   0.431  0.00  0.00    -0.274 OA
ENDBRANCH   1  17
BRANCH   1  32
ATOM     32  C   UNL d   1      27.269 -11.246   2.523  0.00  0.00     0.184 C 
ATOM     33  N   UNL d   1      26.007 -10.960   2.233  0.00  0.00    -0.111 NA
ATOM     34  N   UNL d   1      25.633  -9.815   2.880  0.00  0.00    -0.023 NA
ATOM     35  N   UNL d   1      26.627  -9.357   3.604  0.00  0.00    -0.043 NA
ATOM     36  N   UNL d   1      27.674 -10.154   3.325  0.00  0.00    -0.223 N 
BRANCH  36  37
ATOM     37  C   UNL d   1      28.911  -9.860   4.039  0.00  0.00     0.048 C 
ATOM     38  C   UNL d   1      29.143 -10.563   5.363  0.00  0.00     0.040 C 
ATOM     39  C   UNL d   1      30.114 -10.107   3.071  0.00  0.00     0.040 C 
ATOM     40  C   UNL d   1      28.785  -8.485   4.627  0.00  0.00     0.040 C 
ENDBRANCH  36  37
ENDBRANCH   1  32
TORSDOF 6
ENDMDL
