MODEL 1
REMARK VINA RESULT:    -7.796      0.000      0.000
REMARK INTER + INTRA:         -12.766
REMARK INTER:                 -10.481
REMARK INTRA:                  -2.285
REMARK CONF_INDEPENDENT:        2.685
REMARK UNBOUND:                -2.285
REMARK  9 active torsions:
REMARK  status: ('A' for Active; 'I' for Inactive)
REMARK    1  A    between atoms: C_8  and  N_9 
REMARK       I    between atoms: N_9  and  C_10 
REMARK    2  A    between atoms: C_10  and  C_12 
REMARK       I    between atoms: C_12  and  N_14 
REMARK    3  A    between atoms: N_14  and  N_15 
REMARK    4  A    between atoms: C_16  and  C_17 
REMARK    5  A    between atoms: C_20  and  O_21 
REMARK    6  A    between atoms: O_21  and  C_22 
REMARK    7  A    between atoms: C_22  and  C_23 
REMARK       I    between atoms: C_23  and  N_25 
REMARK    8  A    between atoms: N_25  and  C_26 
REMARK    9  A    between atoms: C_26  and  C_27 
ROOT
ATOM      1  C   UNL d   1      27.473 -15.132   1.182  0.00  0.00    -0.017 A 
ATOM      2  C   UNL d   1      27.630 -16.502   0.961  0.00  0.00     0.015 A 
ATOM      3  C   UNL d   1      26.989 -17.103  -0.141  0.00  0.00     0.037 A 
ATOM      4  C   UNL d   1      26.163 -16.358  -0.998  0.00  0.00     0.069 A 
ATOM      5  C   UNL d   1      26.024 -14.991  -0.770  0.00  0.00     0.037 A 
ATOM      6  C   UNL d   1      26.671 -14.384   0.314  0.00  0.00     0.015 A 
ENDROOT
BRANCH   1   7
ATOM      7  C   UNL d   1      28.147 -14.422   2.302  0.00  0.00     0.150 C 
ATOM      8  N   UNL d   1      27.617 -14.457   3.487  0.00  0.00    -0.183 NA
BRANCH   8   9
ATOM      9  N   UNL d   1      28.234 -13.777   4.496  0.00  0.00    -0.239 N 
ATOM     10  C   UNL d   1      28.494 -14.374   5.744  0.00  0.00     0.329 C 
ATOM     11  O   UNL d   1      28.245 -15.511   6.120  0.00  0.00    -0.261 OA
ATOM     12  H   UNL d   1      28.527 -12.804   4.375  0.00  0.00     0.192 HD
BRANCH  10  13
ATOM     13  C   UNL d   1      29.190 -13.383   6.683  0.00  0.00     0.315 C 
ATOM     14  N   UNL d   1      29.707 -13.831   7.913  0.00  0.00    -0.318 N 
ATOM     15  H   UNL d   1      29.587 -14.828   8.082  0.00  0.00     0.169 HD
ATOM     16  O   UNL d   1      29.196 -12.257   6.189  0.00  0.00    -0.262 OA
BRANCH  14  17
ATOM     17  C   UNL d   1      30.368 -13.074   8.963  0.00  0.00     0.041 A 
ATOM     18  C   UNL d   1      31.787 -13.040   8.990  0.00  0.00     0.032 A 
ATOM     19  C   UNL d   1      32.505 -12.335   9.992  0.00  0.00     0.026 A 
ATOM     20  C   UNL d   1      31.826 -11.659  10.995  0.00  0.00     0.034 A 
ATOM     21  C   UNL d   1      30.447 -11.675  10.993  0.00  0.00     0.032 A 
ATOM     22 CL   UNL d   1      32.654 -10.794  12.230  0.00  0.00    -0.084 Cl
ATOM     23  C   UNL d   1      29.719 -12.354   9.991  0.00  0.00    -0.034 A 
ATOM     24  C   UNL d   1      28.243 -12.212  10.132  0.00  0.00     0.050 C 
ENDBRANCH  14  17
ENDBRANCH  10  13
ENDBRANCH   8   9
ENDBRANCH   1   7
BRANCH   4  25
ATOM     25  O   UNL d   1      25.546 -17.060  -2.000  0.00  0.00    -0.342 OA
BRANCH  25  26
ATOM     26  C   UNL d   1      24.117 -17.158  -1.988  0.00  0.00     0.278 C 
BRANCH  26  27
ATOM     27  C   UNL d   1      23.635 -18.145  -0.901  0.00  0.00     0.241 C 
ATOM     28  O   UNL d   1      24.300 -18.424   0.093  0.00  0.00    -0.271 OA
ATOM     29  N   UNL d   1      22.382 -18.705  -1.117  0.00  0.00    -0.357 N 
ATOM     30  H   UNL d   1      21.844 -18.454  -1.936  0.00  0.00     0.162 HD
BRANCH  29  31
ATOM     31  C   UNL d   1      21.820 -19.647  -0.150  0.00  0.00     0.154 C 
BRANCH  31  32
ATOM     32  C   UNL d   1      20.363 -19.368   0.247  0.00  0.00     0.139 C 
ATOM     33  C   UNL d   1      19.959 -20.043   1.549  0.00  0.00     0.035 C 
ATOM     34  C   UNL d   1      18.493 -20.326   1.348  0.00  0.00     0.029 C 
ATOM     35  C   UNL d   1      18.406 -20.601  -0.136  0.00  0.00     0.168 C 
ATOM     36  O   UNL d   1      19.461 -19.860  -0.764  0.00  0.00    -0.384 OA
ENDBRANCH  31  32
ENDBRANCH  29  31
ENDBRANCH  26  27
ENDBRANCH  25  26
ENDBRANCH   4  25
TORSDOF 9
ENDMDL
MODEL 2
REMARK VINA RESULT:    -7.350      3.927      5.670
REMARK INTER + INTRA:         -13.709
REMARK INTER:                 -10.035
REMARK INTRA:                  -3.674
REMARK CONF_INDEPENDENT:        2.685
REMARK UNBOUND:                -3.674
REMARK  9 active torsions:
REMARK  status: ('A' for Active; 'I' for Inactive)
REMARK    1  A    between atoms: C_8  and  N_9 
REMARK       I    between atoms: N_9  and  C_10 
REMARK    2  A    between atoms: C_10  and  C_12 
REMARK       I    between atoms: C_12  and  N_14 
REMARK    3  A    between atoms: N_14  and  N_15 
REMARK    4  A    between atoms: C_16  and  C_17 
REMARK    5  A    between atoms: C_20  and  O_21 
REMARK    6  A    between atoms: O_21  and  C_22 
REMARK    7  A    between atoms: C_22  and  C_23 
REMARK       I    between atoms: C_23  and  N_25 
REMARK    8  A    between atoms: N_25  and  C_26 
REMARK    9  A    between atoms: C_26  and  C_27 
ROOT
ATOM      1  C   UNL d   1      27.034 -15.268   0.151  0.00  0.00    -0.017 A 
ATOM      2  C   UNL d   1      26.921 -14.022  -0.471  0.00  0.00     0.015 A 
ATOM      3  C   UNL d   1      26.171 -13.906  -1.658  0.00  0.00     0.037 A 
ATOM      4  C   UNL d   1      25.567 -15.028  -2.250  0.00  0.00     0.069 A 
ATOM      5  C   UNL d   1      25.681 -16.261  -1.613  0.00  0.00     0.037 A 
ATOM      6  C   UNL d   1      26.411 -16.380  -0.424  0.00  0.00     0.015 A 
ENDROOT
BRANCH   1   7
ATOM      7  C   UNL d   1      27.778 -15.460   1.424  0.00  0.00     0.150 C 
ATOM      8  N   UNL d   1      27.625 -14.600   2.386  0.00  0.00    -0.183 NA
BRANCH   8   9
ATOM      9  N   UNL d   1      28.337 -14.775   3.535  0.00  0.00    -0.239 N 
ATOM     10  C   UNL d   1      27.983 -14.129   4.735  0.00  0.00     0.329 C 
ATOM     11  O   UNL d   1      27.052 -13.365   4.952  0.00  0.00    -0.261 OA
ATOM     12  H   UNL d   1      29.158 -15.386   3.560  0.00  0.00     0.192 HD
BRANCH  10  13
ATOM     13  C   UNL d   1      28.954 -14.504   5.859  0.00  0.00     0.315 C 
ATOM     14  N   UNL d   1      28.835 -13.891   7.120  0.00  0.00    -0.318 N 
ATOM     15  H   UNL d   1      28.066 -13.227   7.194  0.00  0.00     0.169 HD
ATOM     16  O   UNL d   1      29.756 -15.351   5.467  0.00  0.00    -0.262 OA
BRANCH  14  17
ATOM     17  C   UNL d   1      29.653 -14.065   8.308  0.00  0.00     0.041 A 
ATOM     18  C   UNL d   1      31.038 -14.331   8.152  0.00  0.00     0.032 A 
ATOM     19  C   UNL d   1      31.899 -14.527   9.264  0.00  0.00     0.026 A 
ATOM     20  C   UNL d   1      31.397 -14.474  10.555  0.00  0.00     0.034 A 
ATOM     21  C   UNL d   1      30.054 -14.218  10.738  0.00  0.00     0.032 A 
ATOM     22 CL   UNL d   1      32.401 -14.708  11.932  0.00  0.00    -0.084 Cl
ATOM     23  C   UNL d   1      29.190 -13.999   9.642  0.00  0.00    -0.034 A 
ATOM     24  C   UNL d   1      27.790 -13.687  10.045  0.00  0.00     0.050 C 
ENDBRANCH  14  17
ENDBRANCH  10  13
ENDBRANCH   8   9
ENDBRANCH   1   7
BRANCH   4  25
ATOM     25  O   UNL d   1      24.913 -14.805  -3.432  0.00  0.00    -0.342 OA
BRANCH  25  26
ATOM     26  C   UNL d   1      25.607 -14.115  -4.479  0.00  0.00     0.278 C 
BRANCH  26  27
ATOM     27  C   UNL d   1      26.773 -14.967  -5.029  0.00  0.00     0.241 C 
ATOM     28  O   UNL d   1      26.720 -15.563  -6.101  0.00  0.00    -0.271 OA
ATOM     29  N   UNL d   1      27.906 -15.016  -4.226  0.00  0.00    -0.357 N 
ATOM     30  H   UNL d   1      27.935 -14.510  -3.351  0.00  0.00     0.162 HD
BRANCH  29  31
ATOM     31  C   UNL d   1      29.076 -15.786  -4.650  0.00  0.00     0.154 C 
BRANCH  31  32
ATOM     32  C   UNL d   1      30.104 -16.053  -3.541  0.00  0.00     0.139 C 
ATOM     33  C   UNL d   1      30.228 -17.526  -3.184  0.00  0.00     0.035 C 
ATOM     34  C   UNL d   1      30.580 -17.495  -1.720  0.00  0.00     0.029 C 
ATOM     35  C   UNL d   1      29.839 -16.275  -1.223  0.00  0.00     0.168 C 
ATOM     36  O   UNL d   1      29.730 -15.369  -2.329  0.00  0.00    -0.384 OA
ENDBRANCH  31  32
ENDBRANCH  29  31
ENDBRANCH  26  27
ENDBRANCH  25  26
ENDBRANCH   4  25
TORSDOF 9
ENDMDL
MODEL 3
REMARK VINA RESULT:    -7.215      4.494      6.860
REMARK INTER + INTRA:         -13.401
REMARK INTER:                  -9.900
REMARK INTRA:                  -3.501
REMARK CONF_INDEPENDENT:        2.685
REMARK UNBOUND:                -3.501
REMARK  9 active torsions:
REMARK  status: ('A' for Active; 'I' for Inactive)
REMARK    1  A    between atoms: C_8  and  N_9 
REMARK       I    between atoms: N_9  and  C_10 
REMARK    2  A    between atoms: C_10  and  C_12 
REMARK       I    between atoms: C_12  and  N_14 
REMARK    3  A    between atoms: N_14  and  N_15 
REMARK    4  A    between atoms: C_16  and  C_17 
REMARK    5  A    between atoms: C_20  and  O_21 
REMARK    6  A    between atoms: O_21  and  C_22 
REMARK    7  A    between atoms: C_22  and  C_23 
REMARK       I    between atoms: C_23  and  N_25 
REMARK    8  A    between atoms: N_25  and  C_26 
REMARK    9  A    between atoms: C_26  and  C_27 
ROOT
ATOM      1  C   UNL d   1      27.287 -15.518  -0.832  0.00  0.00    -0.017 A 
ATOM      2  C   UNL d   1      28.427 -15.797  -1.590  0.00  0.00     0.015 A 
ATOM      3  C   UNL d   1      28.345 -15.775  -2.997  0.00  0.00     0.037 A 
ATOM      4  C   UNL d   1      27.130 -15.517  -3.652  0.00  0.00     0.069 A 
ATOM      5  C   UNL d   1      26.005 -15.231  -2.882  0.00  0.00     0.037 A 
ATOM      6  C   UNL d   1      26.083 -15.235  -1.484  0.00  0.00     0.015 A 
ENDROOT
BRANCH   1   7
ATOM      7  C   UNL d   1      27.305 -15.488   0.655  0.00  0.00     0.150 C 
ATOM      8  N   UNL d   1      28.222 -14.799   1.265  0.00  0.00    -0.183 NA
BRANCH   8   9
ATOM      9  N   UNL d   1      28.242 -14.806   2.628  0.00  0.00    -0.239 N 
ATOM     10  C   UNL d   1      28.170 -13.616   3.379  0.00  0.00     0.329 C 
ATOM     11  O   UNL d   1      28.078 -12.462   2.984  0.00  0.00    -0.261 OA
ATOM     12  H   UNL d   1      28.310 -15.683   3.152  0.00  0.00     0.192 HD
BRANCH  10  13
ATOM     13  C   UNL d   1      28.215 -13.920   4.880  0.00  0.00     0.315 C 
ATOM     14  N   UNL d   1      28.672 -12.939   5.778  0.00  0.00    -0.318 N 
ATOM     15  H   UNL d   1      28.935 -12.057   5.341  0.00  0.00     0.169 HD
ATOM     16  O   UNL d   1      27.813 -15.062   5.098  0.00  0.00    -0.262 OA
BRANCH  14  17
ATOM     17  C   UNL d   1      28.830 -13.014   7.221  0.00  0.00     0.041 A 
ATOM     18  C   UNL d   1      28.904 -14.292   7.834  0.00  0.00     0.032 A 
ATOM     19  C   UNL d   1      29.044 -14.447   9.239  0.00  0.00     0.026 A 
ATOM     20  C   UNL d   1      29.100 -13.334  10.064  0.00  0.00     0.034 A 
ATOM     21  C   UNL d   1      29.030 -12.079   9.495  0.00  0.00     0.032 A 
ATOM     22 CL   UNL d   1      29.266 -13.473  11.770  0.00  0.00    -0.084 Cl
ATOM     23  C   UNL d   1      28.913 -11.909   8.097  0.00  0.00    -0.034 A 
ATOM     24  C   UNL d   1      28.905 -10.481   7.673  0.00  0.00     0.050 C 
ENDBRANCH  14  17
ENDBRANCH  10  13
ENDBRANCH   8   9
ENDBRANCH   1   7
BRANCH   4  25
ATOM     25  O   UNL d   1      27.159 -15.579  -5.020  0.00  0.00    -0.342 OA
BRANCH  25  26
ATOM     26  C   UNL d   1      27.550 -14.410  -5.749  0.00  0.00     0.278 C 
BRANCH  26  27
ATOM     27  C   UNL d   1      28.852 -14.658  -6.543  0.00  0.00     0.241 C 
ATOM     28  O   UNL d   1      29.321 -13.843  -7.334  0.00  0.00    -0.271 OA
ATOM     29  N   UNL d   1      29.475 -15.877  -6.302  0.00  0.00    -0.357 N 
ATOM     30  H   UNL d   1      29.080 -16.530  -5.639  0.00  0.00     0.162 HD
BRANCH  29  31
ATOM     31  C   UNL d   1      30.720 -16.217  -6.991  0.00  0.00     0.154 C 
BRANCH  31  32
ATOM     32  C   UNL d   1      31.330 -17.566  -6.586  0.00  0.00     0.139 C 
ATOM     33  C   UNL d   1      31.031 -18.678  -7.580  0.00  0.00     0.035 C 
ATOM     34  C   UNL d   1      30.974 -19.908  -6.712  0.00  0.00     0.029 C 
ATOM     35  C   UNL d   1      30.409 -19.377  -5.415  0.00  0.00     0.168 C 
ATOM     36  O   UNL d   1      30.799 -18.000  -5.318  0.00  0.00    -0.384 OA
ENDBRANCH  31  32
ENDBRANCH  29  31
ENDBRANCH  26  27
ENDBRANCH  25  26
ENDBRANCH   4  25
TORSDOF 9
ENDMDL
MODEL 4
REMARK VINA RESULT:    -7.194      3.881      6.175
REMARK INTER + INTRA:         -13.509
REMARK INTER:                  -9.879
REMARK INTRA:                  -3.630
REMARK CONF_INDEPENDENT:        2.685
REMARK UNBOUND:                -3.630
REMARK  9 active torsions:
REMARK  status: ('A' for Active; 'I' for Inactive)
REMARK    1  A    between atoms: C_8  and  N_9 
REMARK       I    between atoms: N_9  and  C_10 
REMARK    2  A    between atoms: C_10  and  C_12 
REMARK       I    between atoms: C_12  and  N_14 
REMARK    3  A    between atoms: N_14  and  N_15 
REMARK    4  A    between atoms: C_16  and  C_17 
REMARK    5  A    between atoms: C_20  and  O_21 
REMARK    6  A    between atoms: O_21  and  C_22 
REMARK    7  A    between atoms: C_22  and  C_23 
REMARK       I    between atoms: C_23  and  N_25 
REMARK    8  A    between atoms: N_25  and  C_26 
REMARK    9  A    between atoms: C_26  and  C_27 
ROOT
ATOM      1  C   UNL d   1      27.044 -15.304   0.102  0.00  0.00    -0.017 A 
ATOM      2  C   UNL d   1      27.205 -14.165  -0.691  0.00  0.00     0.015 A 
ATOM      3  C   UNL d   1      26.449 -14.030  -1.872  0.00  0.00     0.037 A 
ATOM      4  C   UNL d   1      25.566 -15.039  -2.290  0.00  0.00     0.069 A 
ATOM      5  C   UNL d   1      25.410 -16.165  -1.484  0.00  0.00     0.037 A 
ATOM      6  C   UNL d   1      26.146 -16.297  -0.300  0.00  0.00     0.015 A 
ENDROOT
BRANCH   1   7
ATOM      7  C   UNL d   1      27.781 -15.498   1.379  0.00  0.00     0.150 C 
ATOM      8  N   UNL d   1      27.610 -14.648   2.346  0.00  0.00    -0.183 NA
BRANCH   8   9
ATOM      9  N   UNL d   1      28.315 -14.825   3.500  0.00  0.00    -0.239 N 
ATOM     10  C   UNL d   1      27.958 -14.174   4.697  0.00  0.00     0.329 C 
ATOM     11  O   UNL d   1      27.030 -13.405   4.907  0.00  0.00    -0.261 OA
ATOM     12  H   UNL d   1      29.132 -15.441   3.531  0.00  0.00     0.192 HD
BRANCH  10  13
ATOM     13  C   UNL d   1      28.921 -14.552   5.827  0.00  0.00     0.315 C 
ATOM     14  N   UNL d   1      28.829 -13.901   7.070  0.00  0.00    -0.318 N 
ATOM     15  H   UNL d   1      28.084 -13.209   7.130  0.00  0.00     0.169 HD
ATOM     16  O   UNL d   1      29.690 -15.437   5.455  0.00  0.00    -0.262 OA
BRANCH  14  17
ATOM     17  C   UNL d   1      29.647 -14.071   8.260  0.00  0.00     0.041 A 
ATOM     18  C   UNL d   1      31.033 -14.331   8.106  0.00  0.00     0.032 A 
ATOM     19  C   UNL d   1      31.893 -14.523   9.219  0.00  0.00     0.026 A 
ATOM     20  C   UNL d   1      31.389 -14.472  10.509  0.00  0.00     0.034 A 
ATOM     21  C   UNL d   1      30.045 -14.221  10.690  0.00  0.00     0.032 A 
ATOM     22 CL   UNL d   1      32.393 -14.701  11.888  0.00  0.00    -0.084 Cl
ATOM     23  C   UNL d   1      29.182 -14.006   9.593  0.00  0.00    -0.034 A 
ATOM     24  C   UNL d   1      27.780 -13.700   9.994  0.00  0.00     0.050 C 
ENDBRANCH  14  17
ENDBRANCH  10  13
ENDBRANCH   8   9
ENDBRANCH   1   7
BRANCH   4  25
ATOM     25  O   UNL d   1      24.929 -14.825  -3.483  0.00  0.00    -0.342 OA
BRANCH  25  26
ATOM     26  C   UNL d   1      24.786 -13.478  -3.950  0.00  0.00     0.278 C 
BRANCH  26  27
ATOM     27  C   UNL d   1      25.907 -13.113  -4.948  0.00  0.00     0.241 C 
ATOM     28  O   UNL d   1      25.970 -12.027  -5.518  0.00  0.00    -0.271 OA
ATOM     29  N   UNL d   1      26.860 -14.102  -5.164  0.00  0.00    -0.357 N 
ATOM     30  H   UNL d   1      26.797 -14.986  -4.677  0.00  0.00     0.162 HD
BRANCH  29  31
ATOM     31  C   UNL d   1      27.972 -13.864  -6.083  0.00  0.00     0.154 C 
BRANCH  31  32
ATOM     32  C   UNL d   1      29.273 -14.594  -5.718  0.00  0.00     0.139 C 
ATOM     33  C   UNL d   1      29.887 -15.341  -6.892  0.00  0.00     0.035 C 
ATOM     34  C   UNL d   1      30.564 -16.516  -6.235  0.00  0.00     0.029 C 
ATOM     35  C   UNL d   1      29.656 -16.812  -5.063  0.00  0.00     0.168 C 
ATOM     36  O   UNL d   1      29.031 -15.576  -4.692  0.00  0.00    -0.384 OA
ENDBRANCH  31  32
ENDBRANCH  29  31
ENDBRANCH  26  27
ENDBRANCH  25  26
ENDBRANCH   4  25
TORSDOF 9
ENDMDL
MODEL 5
REMARK VINA RESULT:    -7.046      3.129      4.038
REMARK INTER + INTRA:         -13.233
REMARK INTER:                  -9.730
REMARK INTRA:                  -3.503
REMARK CONF_INDEPENDENT:        2.685
REMARK UNBOUND:                -3.503
REMARK  9 active torsions:
REMARK  status: ('A' for Active; 'I' for Inactive)
REMARK    1  A    between atoms: C_8  and  N_9 
REMARK       I    between atoms: N_9  and  C_10 
REMARK    2  A    between atoms: C_10  and  C_12 
REMARK       I    between atoms: C_12  and  N_14 
REMARK    3  A    between atoms: N_14  and  N_15 
REMARK    4  A    between atoms: C_16  and  C_17 
REMARK    5  A    between atoms: C_20  and  O_21 
REMARK    6  A    between atoms: O_21  and  C_22 
REMARK    7  A    between atoms: C_22  and  C_23 
REMARK       I    between atoms: C_23  and  N_25 
REMARK    8  A    between atoms: N_25  and  C_26 
REMARK    9  A    between atoms: C_26  and  C_27 
ROOT
ATOM      1  C   UNL d   1      28.606 -14.667  -0.473  0.00  0.00    -0.017 A 
ATOM      2  C   UNL d   1      28.704 -15.896  -1.129  0.00  0.00     0.015 A 
ATOM      3  C   UNL d   1      28.455 -15.964  -2.514  0.00  0.00     0.037 A 
ATOM      4  C   UNL d   1      28.071 -14.825  -3.241  0.00  0.00     0.069 A 
ATOM      5  C   UNL d   1      27.987 -13.605  -2.574  0.00  0.00     0.037 A 
ATOM      6  C   UNL d   1      28.249 -13.528  -1.201  0.00  0.00     0.015 A 
ENDROOT
BRANCH   1   7
ATOM      7  C   UNL d   1      28.889 -14.512   0.980  0.00  0.00     0.150 C 
ATOM      8  N   UNL d   1      28.072 -15.032   1.845  0.00  0.00    -0.183 NA
BRANCH   8   9
ATOM      9  N   UNL d   1      28.332 -14.856   3.172  0.00  0.00    -0.239 N 
ATOM     10  C   UNL d   1      27.801 -13.771   3.897  0.00  0.00     0.329 C 
ATOM     11  O   UNL d   1      27.071 -12.870   3.508  0.00  0.00    -0.261 OA
ATOM     12  H   UNL d   1      28.926 -15.513   3.686  0.00  0.00     0.192 HD
BRANCH  10  13
ATOM     13  C   UNL d   1      28.256 -13.822   5.359  0.00  0.00     0.315 C 
ATOM     14  N   UNL d   1      28.235 -12.652   6.138  0.00  0.00    -0.318 N 
ATOM     15  H   UNL d   1      27.887 -11.827   5.652  0.00  0.00     0.169 HD
ATOM     16  O   UNL d   1      28.599 -14.964   5.661  0.00  0.00    -0.262 OA
BRANCH  14  17
ATOM     17  C   UNL d   1      28.646 -12.458   7.519  0.00  0.00     0.041 A 
ATOM     18  C   UNL d   1      28.537 -13.546   8.423  0.00  0.00     0.032 A 
ATOM     19  C   UNL d   1      28.905 -13.431   9.790  0.00  0.00     0.026 A 
ATOM     20  C   UNL d   1      29.377 -12.227  10.288  0.00  0.00     0.034 A 
ATOM     21  C   UNL d   1      29.494 -11.152   9.432  0.00  0.00     0.032 A 
ATOM     22 CL   UNL d   1      29.832 -12.039  11.937  0.00  0.00    -0.084 Cl
ATOM     23  C   UNL d   1      29.153 -11.258   8.065  0.00  0.00    -0.034 A 
ATOM     24  C   UNL d   1      29.396 -10.005   7.295  0.00  0.00     0.050 C 
ENDBRANCH  14  17
ENDBRANCH  10  13
ENDBRANCH   8   9
ENDBRANCH   1   7
BRANCH   4  25
ATOM     25  O   UNL d   1      27.800 -15.023  -4.568  0.00  0.00    -0.342 OA
BRANCH  25  26
ATOM     26  C   UNL d   1      26.535 -14.587  -5.080  0.00  0.00     0.278 C 
BRANCH  26  27
ATOM     27  C   UNL d   1      25.413 -14.788  -4.037  0.00  0.00     0.241 C 
ATOM     28  O   UNL d   1      24.409 -14.082  -3.987  0.00  0.00    -0.271 OA
ATOM     29  N   UNL d   1      25.608 -15.837  -3.146  0.00  0.00    -0.357 N 
ATOM     30  H   UNL d   1      26.435 -16.414  -3.209  0.00  0.00     0.162 HD
BRANCH  29  31
ATOM     31  C   UNL d   1      24.607 -16.126  -2.119  0.00  0.00     0.154 C 
BRANCH  31  32
ATOM     32  C   UNL d   1      24.863 -17.410  -1.317  0.00  0.00     0.139 C 
ATOM     33  C   UNL d   1      24.386 -17.318   0.125  0.00  0.00     0.035 C 
ATOM     34  C   UNL d   1      25.356 -18.202   0.864  0.00  0.00     0.029 C 
ATOM     35  C   UNL d   1      26.640 -18.012   0.089  0.00  0.00     0.168 C 
ATOM     36  O   UNL d   1      26.274 -17.698  -1.262  0.00  0.00    -0.384 OA
ENDBRANCH  31  32
ENDBRANCH  29  31
ENDBRANCH  26  27
ENDBRANCH  25  26
ENDBRANCH   4  25
TORSDOF 9
ENDMDL
MODEL 6
REMARK VINA RESULT:    -7.027      4.270      5.330
REMARK INTER + INTRA:         -12.906
REMARK INTER:                  -9.712
REMARK INTRA:                  -3.194
REMARK CONF_INDEPENDENT:        2.685
REMARK UNBOUND:                -3.194
REMARK  9 active torsions:
REMARK  status: ('A' for Active; 'I' for Inactive)
REMARK    1  A    between atoms: C_8  and  N_9 
REMARK       I    between atoms: N_9  and  C_10 
REMARK    2  A    between atoms: C_10  and  C_12 
REMARK       I    between atoms: C_12  and  N_14 
REMARK    3  A    between atoms: N_14  and  N_15 
REMARK    4  A    between atoms: C_16  and  C_17 
REMARK    5  A    between atoms: C_20  and  O_21 
REMARK    6  A    between atoms: O_21  and  C_22 
REMARK    7  A    between atoms: C_22  and  C_23 
REMARK       I    between atoms: C_23  and  N_25 
REMARK    8  A    between atoms: N_25  and  C_26 
REMARK    9  A    between atoms: C_26  and  C_27 
ROOT
ATOM      1  C   UNL d   1      29.201 -15.732  -0.890  0.00  0.00    -0.017 A 
ATOM      2  C   UNL d   1      29.158 -16.912  -1.636  0.00  0.00     0.015 A 
ATOM      3  C   UNL d   1      29.318 -16.853  -3.035  0.00  0.00     0.037 A 
ATOM      4  C   UNL d   1      29.479 -15.625  -3.698  0.00  0.00     0.069 A 
ATOM      5  C   UNL d   1      29.529 -14.459  -2.939  0.00  0.00     0.037 A 
ATOM      6  C   UNL d   1      29.387 -14.512  -1.547  0.00  0.00     0.015 A 
ENDROOT
BRANCH   1   7
ATOM      7  C   UNL d   1      29.076 -15.720   0.592  0.00  0.00     0.150 C 
ATOM      8  N   UNL d   1      28.706 -14.629   1.190  0.00  0.00    -0.183 NA
BRANCH   8   9
ATOM      9  N   UNL d   1      28.625 -14.627   2.552  0.00  0.00    -0.239 N 
ATOM     10  C   UNL d   1      28.588 -13.431   3.293  0.00  0.00     0.329 C 
ATOM     11  O   UNL d   1      28.614 -12.276   2.892  0.00  0.00    -0.261 OA
ATOM     12  H   UNL d   1      28.588 -15.504   3.079  0.00  0.00     0.192 HD
BRANCH  10  13
ATOM     13  C   UNL d   1      28.499 -13.727   4.794  0.00  0.00     0.315 C 
ATOM     14  N   UNL d   1      28.857 -12.735   5.725  0.00  0.00    -0.318 N 
ATOM     15  H   UNL d   1      29.145 -11.851   5.308  0.00  0.00     0.169 HD
ATOM     16  O   UNL d   1      28.097 -14.875   4.981  0.00  0.00    -0.262 OA
BRANCH  14  17
ATOM     17  C   UNL d   1      28.882 -12.802   7.176  0.00  0.00     0.041 A 
ATOM     18  C   UNL d   1      28.905 -14.075   7.802  0.00  0.00     0.032 A 
ATOM     19  C   UNL d   1      28.916 -14.222   9.214  0.00  0.00     0.026 A 
ATOM     20  C   UNL d   1      28.892 -13.104  10.034  0.00  0.00     0.034 A 
ATOM     21  C   UNL d   1      28.869 -11.853   9.454  0.00  0.00     0.032 A 
ATOM     22 CL   UNL d   1      28.901 -13.232  11.749  0.00  0.00    -0.084 Cl
ATOM     23  C   UNL d   1      28.881 -11.691   8.050  0.00  0.00    -0.034 A 
ATOM     24  C   UNL d   1      28.905 -10.265   7.618  0.00  0.00     0.050 C 
ENDBRANCH  14  17
ENDBRANCH  10  13
ENDBRANCH   8   9
ENDBRANCH   1   7
BRANCH   4  25
ATOM     25  O   UNL d   1      29.567 -15.686  -5.063  0.00  0.00    -0.342 OA
BRANCH  25  26
ATOM     26  C   UNL d   1      28.988 -14.626  -5.834  0.00  0.00     0.278 C 
BRANCH  26  27
ATOM     27  C   UNL d   1      27.477 -14.486  -5.543  0.00  0.00     0.241 C 
ATOM     28  O   UNL d   1      26.656 -15.355  -5.825  0.00  0.00    -0.271 OA
ATOM     29  N   UNL d   1      27.095 -13.300  -4.927  0.00  0.00    -0.357 N 
ATOM     30  H   UNL d   1      27.787 -12.600  -4.693  0.00  0.00     0.162 HD
BRANCH  29  31
ATOM     31  C   UNL d   1      25.691 -13.061  -4.596  0.00  0.00     0.154 C 
BRANCH  31  32
ATOM     32  C   UNL d   1      25.179 -13.835  -3.373  0.00  0.00     0.139 C 
ATOM     33  C   UNL d   1      26.052 -13.649  -2.141  0.00  0.00     0.035 C 
ATOM     34  C   UNL d   1      25.907 -14.962  -1.417  0.00  0.00     0.029 C 
ATOM     35  C   UNL d   1      25.753 -15.953  -2.547  0.00  0.00     0.168 C 
ATOM     36  O   UNL d   1      25.154 -15.250  -3.645  0.00  0.00    -0.384 OA
ENDBRANCH  31  32
ENDBRANCH  29  31
ENDBRANCH  26  27
ENDBRANCH  25  26
ENDBRANCH   4  25
TORSDOF 9
ENDMDL
MODEL 7
REMARK VINA RESULT:    -6.851      4.034      6.468
REMARK INTER + INTRA:         -13.209
REMARK INTER:                  -9.536
REMARK INTRA:                  -3.673
REMARK CONF_INDEPENDENT:        2.685
REMARK UNBOUND:                -3.673
REMARK  9 active torsions:
REMARK  status: ('A' for Active; 'I' for Inactive)
REMARK    1  A    between atoms: C_8  and  N_9 
REMARK       I    between atoms: N_9  and  C_10 
REMARK    2  A    between atoms: C_10  and  C_12 
REMARK       I    between atoms: C_12  and  N_14 
REMARK    3  A    between atoms: N_14  and  N_15 
REMARK    4  A    between atoms: C_16  and  C_17 
REMARK    5  A    between atoms: C_20  and  O_21 
REMARK    6  A    between atoms: O_21  and  C_22 
REMARK    7  A    between atoms: C_22  and  C_23 
REMARK       I    between atoms: C_23  and  N_25 
REMARK    8  A    between atoms: N_25  and  C_26 
REMARK    9  A    between atoms: C_26  and  C_27 
ROOT
ATOM      1  C   UNL d   1      26.679 -14.218   0.004  0.00  0.00    -0.017 A 
ATOM      2  C   UNL d   1      26.656 -13.200  -0.953  0.00  0.00     0.015 A 
ATOM      3  C   UNL d   1      26.088 -13.452  -2.218  0.00  0.00     0.037 A 
ATOM      4  C   UNL d   1      25.580 -14.719  -2.548  0.00  0.00     0.069 A 
ATOM      5  C   UNL d   1      25.601 -15.720  -1.580  0.00  0.00     0.037 A 
ATOM      6  C   UNL d   1      26.150 -15.472  -0.316  0.00  0.00     0.015 A 
ENDROOT
BRANCH   1   7
ATOM      7  C   UNL d   1      27.229 -14.014   1.371  0.00  0.00     0.150 C 
ATOM      8  N   UNL d   1      27.748 -15.023   2.004  0.00  0.00    -0.183 NA
BRANCH   8   9
ATOM      9  N   UNL d   1      28.222 -14.825   3.267  0.00  0.00    -0.239 N 
ATOM     10  C   UNL d   1      27.816 -13.728   4.050  0.00  0.00     0.329 C 
ATOM     11  O   UNL d   1      27.030 -12.832   3.772  0.00  0.00    -0.261 OA
ATOM     12  H   UNL d   1      28.893 -15.474   3.687  0.00  0.00     0.192 HD
BRANCH  10  13
ATOM     13  C   UNL d   1      28.505 -13.754   5.418  0.00  0.00     0.315 C 
ATOM     14  N   UNL d   1      28.063 -12.895   6.441  0.00  0.00    -0.318 N 
ATOM     15  H   UNL d   1      27.272 -12.307   6.184  0.00  0.00     0.169 HD
ATOM     16  O   UNL d   1      29.411 -14.586   5.425  0.00  0.00    -0.262 OA
BRANCH  14  17
ATOM     17  C   UNL d   1      28.580 -12.727   7.789  0.00  0.00     0.041 A 
ATOM     18  C   UNL d   1      28.554 -13.835   8.674  0.00  0.00     0.032 A 
ATOM     19  C   UNL d   1      29.027 -13.745  10.010  0.00  0.00     0.026 A 
ATOM     20  C   UNL d   1      29.525 -12.546  10.496  0.00  0.00     0.034 A 
ATOM     21  C   UNL d   1      29.562 -11.451   9.658  0.00  0.00     0.032 A 
ATOM     22 CL   UNL d   1      30.106 -12.388  12.107  0.00  0.00    -0.084 Cl
ATOM     23  C   UNL d   1      29.115 -11.532   8.320  0.00  0.00    -0.034 A 
ATOM     24  C   UNL d   1      29.284 -10.260   7.562  0.00  0.00     0.050 C 
ENDBRANCH  14  17
ENDBRANCH  10  13
ENDBRANCH   8   9
ENDBRANCH   1   7
BRANCH   4  25
ATOM     25  O   UNL d   1      25.106 -14.863  -3.825  0.00  0.00    -0.342 OA
BRANCH  25  26
ATOM     26  C   UNL d   1      25.905 -15.575  -4.776  0.00  0.00     0.278 C 
BRANCH  26  27
ATOM     27  C   UNL d   1      26.887 -14.626  -5.500  0.00  0.00     0.241 C 
ATOM     28  O   UNL d   1      27.848 -15.025  -6.152  0.00  0.00    -0.271 OA
ATOM     29  N   UNL d   1      26.611 -13.270  -5.371  0.00  0.00    -0.357 N 
ATOM     30  H   UNL d   1      25.808 -12.960  -4.839  0.00  0.00     0.162 HD
BRANCH  29  31
ATOM     31  C   UNL d   1      27.468 -12.279  -6.020  0.00  0.00     0.154 C 
BRANCH  31  32
ATOM     32  C   UNL d   1      26.993 -10.826  -5.874  0.00  0.00     0.139 C 
ATOM     33  C   UNL d   1      27.868 -10.004  -4.939  0.00  0.00     0.035 C 
ATOM     34  C   UNL d   1      26.898  -9.020  -4.338  0.00  0.00     0.029 C 
ATOM     35  C   UNL d   1      25.615  -9.816  -4.270  0.00  0.00     0.168 C 
ATOM     36  O   UNL d   1      25.660 -10.782  -5.329  0.00  0.00    -0.384 OA
ENDBRANCH  31  32
ENDBRANCH  29  31
ENDBRANCH  26  27
ENDBRANCH  25  26
ENDBRANCH   4  25
TORSDOF 9
ENDMDL
MODEL 8
REMARK VINA RESULT:    -6.463      4.030      6.236
REMARK INTER + INTRA:         -12.801
REMARK INTER:                  -9.148
REMARK INTRA:                  -3.653
REMARK CONF_INDEPENDENT:        2.685
REMARK UNBOUND:                -3.653
REMARK  9 active torsions:
REMARK  status: ('A' for Active; 'I' for Inactive)
REMARK    1  A    between atoms: C_8  and  N_9 
REMARK       I    between atoms: N_9  and  C_10 
REMARK    2  A    between atoms: C_10  and  C_12 
REMARK       I    between atoms: C_12  and  N_14 
REMARK    3  A    between atoms: N_14  and  N_15 
REMARK    4  A    between atoms: C_16  and  C_17 
REMARK    5  A    between atoms: C_20  and  O_21 
REMARK    6  A    between atoms: O_21  and  C_22 
REMARK    7  A    between atoms: C_22  and  C_23 
REMARK       I    between atoms: C_23  and  N_25 
REMARK    8  A    between atoms: N_25  and  C_26 
REMARK    9  A    between atoms: C_26  and  C_27 
ROOT
ATOM      1  C   UNL d   1      27.066 -15.356   0.125  0.00  0.00    -0.017 A 
ATOM      2  C   UNL d   1      26.544 -16.438  -0.589  0.00  0.00     0.015 A 
ATOM      3  C   UNL d   1      25.902 -16.208  -1.822  0.00  0.00     0.037 A 
ATOM      4  C   UNL d   1      25.739 -14.908  -2.327  0.00  0.00     0.069 A 
ATOM      5  C   UNL d   1      26.273 -13.841  -1.609  0.00  0.00     0.037 A 
ATOM      6  C   UNL d   1      26.927 -14.064  -0.391  0.00  0.00     0.015 A 
ENDROOT
BRANCH   1   7
ATOM      7  C   UNL d   1      27.788 -15.525   1.414  0.00  0.00     0.150 C 
ATOM      8  N   UNL d   1      27.747 -14.572   2.295  0.00  0.00    -0.183 NA
BRANCH   8   9
ATOM      9  N   UNL d   1      28.438 -14.732   3.460  0.00  0.00    -0.239 N 
ATOM     10  C   UNL d   1      28.040 -14.100   4.654  0.00  0.00     0.329 C 
ATOM     11  O   UNL d   1      27.084 -13.364   4.853  0.00  0.00    -0.261 OA
ATOM     12  H   UNL d   1      29.275 -15.320   3.501  0.00  0.00     0.192 HD
BRANCH  10  13
ATOM     13  C   UNL d   1      28.997 -14.453   5.797  0.00  0.00     0.315 C 
ATOM     14  N   UNL d   1      28.813 -13.874   7.066  0.00  0.00    -0.318 N 
ATOM     15  H   UNL d   1      28.011 -13.249   7.132  0.00  0.00     0.169 HD
ATOM     16  O   UNL d   1      29.850 -15.251   5.411  0.00  0.00    -0.262 OA
BRANCH  14  17
ATOM     17  C   UNL d   1      29.606 -14.034   8.274  0.00  0.00     0.041 A 
ATOM     18  C   UNL d   1      30.960 -14.442   8.154  0.00  0.00     0.032 A 
ATOM     19  C   UNL d   1      31.792 -14.634   9.288  0.00  0.00     0.026 A 
ATOM     20  C   UNL d   1      31.292 -14.435  10.566  0.00  0.00     0.034 A 
ATOM     21  C   UNL d   1      29.979 -14.039  10.713  0.00  0.00     0.032 A 
ATOM     22 CL   UNL d   1      32.263 -14.658  11.968  0.00  0.00    -0.084 Cl
ATOM     23  C   UNL d   1      29.145 -13.822   9.593  0.00  0.00    -0.034 A 
ATOM     24  C   UNL d   1      27.780 -13.348   9.955  0.00  0.00     0.050 C 
ENDBRANCH  14  17
ENDBRANCH  10  13
ENDBRANCH   8   9
ENDBRANCH   1   7
BRANCH   4  25
ATOM     25  O   UNL d   1      25.048 -14.803  -3.505  0.00  0.00    -0.342 OA
BRANCH  25  26
ATOM     26  C   UNL d   1      25.543 -15.500  -4.654  0.00  0.00     0.278 C 
BRANCH  26  27
ATOM     27  C   UNL d   1      26.683 -14.711  -5.336  0.00  0.00     0.241 C 
ATOM     28  O   UNL d   1      27.428 -15.203  -6.180  0.00  0.00    -0.271 OA
ATOM     29  N   UNL d   1      26.816 -13.387  -4.934  0.00  0.00    -0.357 N 
ATOM     30  H   UNL d   1      26.186 -12.996  -4.246  0.00  0.00     0.162 HD
BRANCH  29  31
ATOM     31  C   UNL d   1      27.857 -12.541  -5.519  0.00  0.00     0.154 C 
BRANCH  31  32
ATOM     32  C   UNL d   1      28.872 -11.984  -4.510  0.00  0.00     0.139 C 
ATOM     33  C   UNL d   1      30.113 -12.853  -4.372  0.00  0.00     0.035 C 
ATOM     34  C   UNL d   1      30.520 -12.643  -2.937  0.00  0.00     0.029 C 
ATOM     35  C   UNL d   1      29.194 -12.456  -2.237  0.00  0.00     0.168 C 
ATOM     36  O   UNL d   1      28.285 -11.899  -3.197  0.00  0.00    -0.384 OA
ENDBRANCH  31  32
ENDBRANCH  29  31
ENDBRANCH  26  27
ENDBRANCH  25  26
ENDBRANCH   4  25
TORSDOF 9
ENDMDL
MODEL 9
REMARK VINA RESULT:    -5.874      4.873      6.829
REMARK INTER + INTRA:         -12.664
REMARK INTER:                  -8.559
REMARK INTRA:                  -4.105
REMARK CONF_INDEPENDENT:        2.685
REMARK UNBOUND:                -4.105
REMARK  9 active torsions:
REMARK  status: ('A' for Active; 'I' for Inactive)
REMARK    1  A    between atoms: C_8  and  N_9 
REMARK       I    between atoms: N_9  and  C_10 
REMARK    2  A    between atoms: C_10  and  C_12 
REMARK       I    between atoms: C_12  and  N_14 
REMARK    3  A    between atoms: N_14  and  N_15 
REMARK    4  A    between atoms: C_16  and  C_17 
REMARK    5  A    between atoms: C_20  and  O_21 
REMARK    6  A    between atoms: O_21  and  C_22 
REMARK    7  A    between atoms: C_22  and  C_23 
REMARK       I    between atoms: C_23  and  N_25 
REMARK    8  A    between atoms: N_25  and  C_26 
REMARK    9  A    between atoms: C_26  and  C_27 
ROOT
ATOM      1  C   UNL d   1      27.128 -14.520  -1.732  0.00  0.00    -0.017 A 
ATOM      2  C   UNL d   1      26.012 -14.652  -2.561  0.00  0.00     0.015 A 
ATOM      3  C   UNL d   1      26.189 -15.035  -3.905  0.00  0.00     0.037 A 
ATOM      4  C   UNL d   1      27.471 -15.249  -4.438  0.00  0.00     0.069 A 
ATOM      5  C   UNL d   1      28.574 -15.123  -3.596  0.00  0.00     0.037 A 
ATOM      6  C   UNL d   1      28.403 -14.758  -2.255  0.00  0.00     0.015 A 
ENDROOT
BRANCH   1   7
ATOM      7  C   UNL d   1      27.015 -14.154  -0.294  0.00  0.00     0.150 C 
ATOM      8  N   UNL d   1      27.703 -14.816   0.586  0.00  0.00    -0.183 NA
BRANCH   8   9
ATOM      9  N   UNL d   1      27.566 -14.487   1.902  0.00  0.00    -0.239 N 
ATOM     10  C   UNL d   1      28.680 -14.293   2.741  0.00  0.00     0.329 C 
ATOM     11  O   UNL d   1      29.870 -14.370   2.469  0.00  0.00    -0.261 OA
ATOM     12  H   UNL d   1      26.640 -14.370   2.323  0.00  0.00     0.192 HD
BRANCH  10  13
ATOM     13  C   UNL d   1      28.233 -13.935   4.162  0.00  0.00     0.315 C 
ATOM     14  N   UNL d   1      29.195 -13.723   5.165  0.00  0.00    -0.318 N 
ATOM     15  H   UNL d   1      30.160 -13.811   4.849  0.00  0.00     0.169 HD
ATOM     16  O   UNL d   1      27.005 -13.882   4.223  0.00  0.00    -0.262 OA
BRANCH  14  17
ATOM     17  C   UNL d   1      29.005 -13.410   6.572  0.00  0.00     0.041 A 
ATOM     18  C   UNL d   1      29.181 -14.441   7.531  0.00  0.00     0.032 A 
ATOM     19  C   UNL d   1      28.999 -14.217   8.921  0.00  0.00     0.026 A 
ATOM     20  C   UNL d   1      28.624 -12.965   9.385  0.00  0.00     0.034 A 
ATOM     21  C   UNL d   1      28.445 -11.944   8.475  0.00  0.00     0.032 A 
ATOM     22 CL   UNL d   1      28.389 -12.647  11.059  0.00  0.00    -0.084 Cl
ATOM     23  C   UNL d   1      28.645 -12.146   7.091  0.00  0.00    -0.034 A 
ATOM     24  C   UNL d   1      28.453 -10.912   6.278  0.00  0.00     0.050 C 
ENDBRANCH  14  17
ENDBRANCH  10  13
ENDBRANCH   8   9
ENDBRANCH   1   7
BRANCH   4  25
ATOM     25  O   UNL d   1      27.525 -15.561  -5.771  0.00  0.00    -0.342 OA
BRANCH  25  26
ATOM     26  C   UNL d   1      28.650 -15.112  -6.534  0.00  0.00     0.278 C 
BRANCH  26  27
ATOM     27  C   UNL d   1      28.532 -13.608  -6.869  0.00  0.00     0.241 C 
ATOM     28  O   UNL d   1      29.365 -13.002  -7.537  0.00  0.00    -0.271 OA
ATOM     29  N   UNL d   1      27.405 -12.971  -6.363  0.00  0.00    -0.357 N 
ATOM     30  H   UNL d   1      26.724 -13.489  -5.823  0.00  0.00     0.162 HD
BRANCH  29  31
ATOM     31  C   UNL d   1      27.184 -11.549  -6.623  0.00  0.00     0.154 C 
BRANCH  31  32
ATOM     32  C   UNL d   1      26.156 -10.879  -5.700  0.00  0.00     0.139 C 
ATOM     33  C   UNL d   1      26.767  -9.820  -4.795  0.00  0.00     0.035 C 
ATOM     34  C   UNL d   1      25.910  -9.889  -3.558  0.00  0.00     0.029 C 
ATOM     35  C   UNL d   1      25.542 -11.353  -3.487  0.00  0.00     0.168 C 
ATOM     36  O   UNL d   1      25.547 -11.855  -4.831  0.00  0.00    -0.384 OA
ENDBRANCH  31  32
ENDBRANCH  29  31
ENDBRANCH  26  27
ENDBRANCH  25  26
ENDBRANCH   4  25
TORSDOF 9
ENDMDL
