MODEL 1
REMARK VINA RESULT:    -9.687      0.000      0.000
REMARK INTER + INTRA:         -13.690
REMARK INTER:                 -12.371
REMARK INTRA:                  -1.319
REMARK CONF_INDEPENDENT:        2.685
REMARK UNBOUND:                -1.319
REMARK  9 active torsions:
REMARK  status: ('A' for Active; 'I' for Inactive)
REMARK    1  A    between atoms: C_6  and  N_7 
REMARK       I    between atoms: N_7  and  C_8 
REMARK    2  A    between atoms: C_8  and  C_10 
REMARK    3  A    between atoms: C_10  and  S_11 
REMARK    4  A    between atoms: S_11  and  C_12 
REMARK    5  A    between atoms: C_14  and  C_15 
REMARK    6  A    between atoms: C_15  and  C_16 
REMARK       I    between atoms: C_16  and  N_18 
REMARK    7  A    between atoms: N_18  and  C_19 
REMARK    8  A    between atoms: C_19  and  C_20 
REMARK    9  A    between atoms: C_20  and  C_21 
ROOT
ATOM      1  C   UNL d   1      25.574 -14.404  -2.369  0.00  0.00     0.169 A 
ATOM      2  N   UNL d   1      25.219 -15.523  -1.831  0.00  0.00    -0.229 NA
ATOM      3  C   UNL d   1      25.821 -15.835  -0.624  0.00  0.00     0.051 A 
ATOM      4  C   UNL d   1      26.761 -15.043  -0.078  0.00  0.00     0.102 A 
ATOM      5  C   UNL d   1      27.139 -13.776  -0.694  0.00  0.00     0.249 A 
ATOM      6  O   UNL d   1      27.953 -13.038  -0.184  0.00  0.00    -0.268 OA
ATOM      7  N   UNL d   1      26.482 -13.529  -1.854  0.00  0.00    -0.302 N 
ATOM      8  H   UNL d   1      26.699 -12.664  -2.321  0.00  0.00     0.171 HD
ENDROOT
BRANCH   1   9
ATOM      9  S   UNL d   1      24.920 -13.807  -3.836  0.00  0.00    -0.083 SA
BRANCH   9  10
ATOM     10  C   UNL d   1      26.380 -13.325  -4.879  0.00  0.00     0.185 C 
BRANCH  10  11
ATOM     11  C   UNL d   1      27.184 -14.625  -5.095  0.00  0.00     0.231 C 
ATOM     12  N   UNL d   1      28.565 -14.637  -4.844  0.00  0.00    -0.326 N 
ATOM     13  H   UNL d   1      29.025 -13.737  -4.850  0.00  0.00     0.169 HD
ATOM     14  O   UNL d   1      26.562 -15.579  -5.569  0.00  0.00    -0.272 OA
BRANCH  12  15
ATOM     15  C   UNL d   1      29.460 -15.798  -4.801  0.00  0.00     0.046 A 
ATOM     16  C   UNL d   1      29.458 -16.669  -3.670  0.00  0.00    -0.034 A 
ATOM     17  C   UNL d   1      30.296 -17.833  -3.641  0.00  0.00     0.015 A 
ATOM     18  C   UNL d   1      28.576 -16.421  -2.469  0.00  0.00     0.050 C 
ATOM     19  C   UNL d   1      31.155 -18.141  -4.700  0.00  0.00    -0.061 A 
ATOM     20  C   UNL d   1      32.040 -19.347  -4.790  0.00  0.00     0.048 C 
ATOM     21  C   UNL d   1      31.158 -17.296  -5.793  0.00  0.00     0.015 A 
ATOM     22  C   UNL d   1      30.301 -16.186  -5.874  0.00  0.00    -0.034 A 
ATOM     23  C   UNL d   1      30.307 -15.544  -7.218  0.00  0.00     0.050 C 
ENDBRANCH  12  15
ENDBRANCH  10  11
ENDBRANCH   9  10
ENDBRANCH   1   9
BRANCH   3  24
ATOM     24  C   UNL d   1      25.311 -17.119   0.017  0.00  0.00     0.162 C 
BRANCH  24  25
ATOM     25  C   UNL d   1      24.241 -17.850  -0.791  0.00  0.00     0.223 C 
ATOM     26  O   UNL d   1      24.126 -17.804  -2.013  0.00  0.00    -0.273 OA
ATOM     27  N   UNL d   1      23.339 -18.618  -0.100  0.00  0.00    -0.360 N 
ATOM     28  H   UNL d   1      23.360 -18.729   0.903  0.00  0.00     0.162 HD
BRANCH  27  29
ATOM     29  C   UNL d   1      22.342 -19.248  -0.929  0.00  0.00     0.127 C 
BRANCH  29  30
ATOM     30  C   UNL d   1      20.967 -18.625  -0.862  0.00  0.00     0.058 C 
BRANCH  30  31
ATOM     31  C   UNL d   1      20.014 -19.420   0.002  0.00  0.00    -0.057 A 
ATOM     32  C   UNL d   1      20.306 -19.576   1.360  0.00  0.00     0.007 A 
ATOM     33  C   UNL d   1      19.530 -20.428   2.149  0.00  0.00     0.001 A 
ATOM     34  C   UNL d   1      18.405 -21.054   1.616  0.00  0.00     0.000 A 
ATOM     35  C   UNL d   1      18.073 -20.866   0.281  0.00  0.00     0.001 A 
ATOM     36  C   UNL d   1      18.872 -20.057  -0.518  0.00  0.00     0.007 A 
ENDBRANCH  30  31
ENDBRANCH  29  30
ENDBRANCH  27  29
ENDBRANCH  24  25
ENDBRANCH   3  24
TORSDOF 9
ENDMDL
MODEL 2
REMARK VINA RESULT:    -9.099      2.844      5.402
REMARK INTER + INTRA:         -13.934
REMARK INTER:                 -11.783
REMARK INTRA:                  -2.150
REMARK CONF_INDEPENDENT:        2.685
REMARK UNBOUND:                -2.150
REMARK  9 active torsions:
REMARK  status: ('A' for Active; 'I' for Inactive)
REMARK    1  A    between atoms: C_6  and  N_7 
REMARK       I    between atoms: N_7  and  C_8 
REMARK    2  A    between atoms: C_8  and  C_10 
REMARK    3  A    between atoms: C_10  and  S_11 
REMARK    4  A    between atoms: S_11  and  C_12 
REMARK    5  A    between atoms: C_14  and  C_15 
REMARK    6  A    between atoms: C_15  and  C_16 
REMARK       I    between atoms: C_16  and  N_18 
REMARK    7  A    between atoms: N_18  and  C_19 
REMARK    8  A    between atoms: C_19  and  C_20 
REMARK    9  A    between atoms: C_20  and  C_21 
ROOT
ATOM      1  C   UNL d   1      26.012 -13.273  -3.128  0.00  0.00     0.169 A 
ATOM      2  N   UNL d   1      25.746 -13.985  -2.083  0.00  0.00    -0.229 NA
ATOM      3  C   UNL d   1      25.686 -15.354  -2.280  0.00  0.00     0.051 A 
ATOM      4  C   UNL d   1      25.842 -15.899  -3.499  0.00  0.00     0.102 A 
ATOM      5  C   UNL d   1      26.155 -15.080  -4.665  0.00  0.00     0.249 A 
ATOM      6  O   UNL d   1      26.340 -15.570  -5.757  0.00  0.00    -0.268 OA
ATOM      7  N   UNL d   1      26.228 -13.756  -4.382  0.00  0.00    -0.302 N 
ATOM      8  H   UNL d   1      26.447 -13.142  -5.150  0.00  0.00     0.171 HD
ENDROOT
BRANCH   1   9
ATOM      9  S   UNL d   1      26.175 -11.568  -3.097  0.00  0.00    -0.083 SA
BRANCH   9  10
ATOM     10  C   UNL d   1      27.969 -11.241  -2.742  0.00  0.00     0.185 C 
BRANCH  10  11
ATOM     11  C   UNL d   1      28.134 -11.433  -1.218  0.00  0.00     0.231 C 
ATOM     12  N   UNL d   1      27.270 -12.298  -0.530  0.00  0.00    -0.326 N 
ATOM     13  H   UNL d   1      26.391 -12.503  -0.984  0.00  0.00     0.169 HD
ATOM     14  O   UNL d   1      28.986 -10.730  -0.669  0.00  0.00    -0.272 OA
BRANCH  12  15
ATOM     15  C   UNL d   1      27.381 -12.762   0.857  0.00  0.00     0.046 A 
ATOM     16  C   UNL d   1      27.895 -14.062   1.146  0.00  0.00    -0.034 A 
ATOM     17  C   UNL d   1      28.051 -14.504   2.501  0.00  0.00     0.015 A 
ATOM     18  C   UNL d   1      28.309 -15.019   0.053  0.00  0.00     0.050 C 
ATOM     19  C   UNL d   1      27.686 -13.692   3.580  0.00  0.00    -0.061 A 
ATOM     20  C   UNL d   1      27.842 -14.038   5.030  0.00  0.00     0.048 C 
ATOM     21  C   UNL d   1      27.185 -12.436   3.299  0.00  0.00     0.015 A 
ATOM     22  C   UNL d   1      27.083 -11.955   1.984  0.00  0.00    -0.034 A 
ATOM     23  C   UNL d   1      26.732 -10.509   1.920  0.00  0.00     0.050 C 
ENDBRANCH  12  15
ENDBRANCH  10  11
ENDBRANCH   9  10
ENDBRANCH   1   9
BRANCH   3  24
ATOM     24  C   UNL d   1      25.456 -16.160  -1.008  0.00  0.00     0.162 C 
BRANCH  24  25
ATOM     25  C   UNL d   1      24.125 -16.907  -0.962  0.00  0.00     0.223 C 
ATOM     26  O   UNL d   1      23.018 -16.383  -1.059  0.00  0.00    -0.273 OA
ATOM     27  N   UNL d   1      24.167 -18.268  -0.801  0.00  0.00    -0.360 N 
ATOM     28  H   UNL d   1      25.028 -18.790  -0.726  0.00  0.00     0.162 HD
BRANCH  27  29
ATOM     29  C   UNL d   1      22.872 -18.896  -0.734  0.00  0.00     0.127 C 
BRANCH  29  30
ATOM     30  C   UNL d   1      22.064 -18.569   0.500  0.00  0.00     0.058 C 
BRANCH  30  31
ATOM     31  C   UNL d   1      20.782 -19.366   0.580  0.00  0.00    -0.057 A 
ATOM     32  C   UNL d   1      20.035 -19.562  -0.586  0.00  0.00     0.007 A 
ATOM     33  C   UNL d   1      18.776 -20.159  -0.518  0.00  0.00     0.001 A 
ATOM     34  C   UNL d   1      18.291 -20.651   0.692  0.00  0.00     0.000 A 
ATOM     35  C   UNL d   1      19.045 -20.511   1.850  0.00  0.00     0.001 A 
ATOM     36  C   UNL d   1      20.278 -19.872   1.793  0.00  0.00     0.007 A 
ENDBRANCH  30  31
ENDBRANCH  29  30
ENDBRANCH  27  29
ENDBRANCH  24  25
ENDBRANCH   3  24
TORSDOF 9
ENDMDL
MODEL 3
REMARK VINA RESULT:    -8.901      1.660      2.782
REMARK INTER + INTRA:         -13.819
REMARK INTER:                 -11.586
REMARK INTRA:                  -2.233
REMARK CONF_INDEPENDENT:        2.685
REMARK UNBOUND:                -2.233
REMARK  9 active torsions:
REMARK  status: ('A' for Active; 'I' for Inactive)
REMARK    1  A    between atoms: C_6  and  N_7 
REMARK       I    between atoms: N_7  and  C_8 
REMARK    2  A    between atoms: C_8  and  C_10 
REMARK    3  A    between atoms: C_10  and  S_11 
REMARK    4  A    between atoms: S_11  and  C_12 
REMARK    5  A    between atoms: C_14  and  C_15 
REMARK    6  A    between atoms: C_15  and  C_16 
REMARK       I    between atoms: C_16  and  N_18 
REMARK    7  A    between atoms: N_18  and  C_19 
REMARK    8  A    between atoms: C_19  and  C_20 
REMARK    9  A    between atoms: C_20  and  C_21 
ROOT
ATOM      1  C   UNL d   1      25.886 -13.240  -3.405  0.00  0.00     0.169 A 
ATOM      2  N   UNL d   1      25.878 -13.790  -2.236  0.00  0.00    -0.229 NA
ATOM      3  C   UNL d   1      25.899 -15.174  -2.217  0.00  0.00     0.051 A 
ATOM      4  C   UNL d   1      25.873 -15.897  -3.350  0.00  0.00     0.102 A 
ATOM      5  C   UNL d   1      25.896 -15.258  -4.660  0.00  0.00     0.249 A 
ATOM      6  O   UNL d   1      25.917 -15.904  -5.684  0.00  0.00    -0.268 OA
ATOM      7  N   UNL d   1      25.907 -13.903  -4.593  0.00  0.00    -0.302 N 
ATOM      8  H   UNL d   1      25.930 -13.408  -5.470  0.00  0.00     0.171 HD
ENDROOT
BRANCH   1   9
ATOM      9  S   UNL d   1      25.908 -11.545  -3.655  0.00  0.00    -0.083 SA
BRANCH   9  10
ATOM     10  C   UNL d   1      27.639 -11.138  -4.192  0.00  0.00     0.185 C 
BRANCH  10  11
ATOM     11  C   UNL d   1      28.107 -12.344  -5.037  0.00  0.00     0.231 C 
ATOM     12  N   UNL d   1      29.062 -13.228  -4.513  0.00  0.00    -0.326 N 
ATOM     13  H   UNL d   1      29.635 -12.871  -3.762  0.00  0.00     0.169 HD
ATOM     14  O   UNL d   1      27.662 -12.410  -6.185  0.00  0.00    -0.272 OA
BRANCH  12  15
ATOM     15  C   UNL d   1      29.487 -14.520  -5.065  0.00  0.00     0.046 A 
ATOM     16  C   UNL d   1      30.011 -14.602  -6.390  0.00  0.00    -0.034 A 
ATOM     17  C   UNL d   1      30.474 -15.852  -6.919  0.00  0.00     0.015 A 
ATOM     18  C   UNL d   1      30.115 -13.390  -7.286  0.00  0.00     0.050 C 
ATOM     19  C   UNL d   1      30.408 -17.030  -6.170  0.00  0.00    -0.061 A 
ATOM     20  C   UNL d   1      30.898 -18.378  -6.608  0.00  0.00     0.048 C 
ATOM     21  C   UNL d   1      29.899 -16.950  -4.888  0.00  0.00     0.015 A 
ATOM     22  C   UNL d   1      29.499 -15.728  -4.324  0.00  0.00    -0.034 A 
ATOM     23  C   UNL d   1      29.193 -15.832  -2.870  0.00  0.00     0.050 C 
ENDBRANCH  12  15
ENDBRANCH  10  11
ENDBRANCH   9  10
ENDBRANCH   1   9
BRANCH   3  24
ATOM     24  C   UNL d   1      25.975 -15.779  -0.820  0.00  0.00     0.162 C 
BRANCH  24  25
ATOM     25  C   UNL d   1      25.095 -17.010  -0.612  0.00  0.00     0.223 C 
ATOM     26  O   UNL d   1      25.371 -17.959   0.117  0.00  0.00    -0.273 OA
ATOM     27  N   UNL d   1      23.904 -17.060  -1.290  0.00  0.00    -0.360 N 
ATOM     28  H   UNL d   1      23.584 -16.322  -1.902  0.00  0.00     0.162 HD
BRANCH  27  29
ATOM     29  C   UNL d   1      23.147 -18.265  -1.068  0.00  0.00     0.127 C 
BRANCH  29  30
ATOM     30  C   UNL d   1      22.552 -18.402   0.314  0.00  0.00     0.058 C 
BRANCH  30  31
ATOM     31  C   UNL d   1      21.157 -18.984   0.288  0.00  0.00    -0.057 A 
ATOM     32  C   UNL d   1      20.626 -19.514   1.468  0.00  0.00     0.007 A 
ATOM     33  C   UNL d   1      19.407 -20.194   1.443  0.00  0.00     0.001 A 
ATOM     34  C   UNL d   1      18.664 -20.268   0.266  0.00  0.00     0.000 A 
ATOM     35  C   UNL d   1      19.155 -19.700  -0.902  0.00  0.00     0.001 A 
ATOM     36  C   UNL d   1      20.392 -19.066  -0.889  0.00  0.00     0.007 A 
ENDBRANCH  30  31
ENDBRANCH  29  30
ENDBRANCH  27  29
ENDBRANCH  24  25
ENDBRANCH   3  24
TORSDOF 9
ENDMDL
MODEL 4
REMARK VINA RESULT:    -8.760      1.466      2.279
REMARK INTER + INTRA:         -13.900
REMARK INTER:                 -11.444
REMARK INTRA:                  -2.456
REMARK CONF_INDEPENDENT:        2.685
REMARK UNBOUND:                -2.456
REMARK  9 active torsions:
REMARK  status: ('A' for Active; 'I' for Inactive)
REMARK    1  A    between atoms: C_6  and  N_7 
REMARK       I    between atoms: N_7  and  C_8 
REMARK    2  A    between atoms: C_8  and  C_10 
REMARK    3  A    between atoms: C_10  and  S_11 
REMARK    4  A    between atoms: S_11  and  C_12 
REMARK    5  A    between atoms: C_14  and  C_15 
REMARK    6  A    between atoms: C_15  and  C_16 
REMARK       I    between atoms: C_16  and  N_18 
REMARK    7  A    between atoms: N_18  and  C_19 
REMARK    8  A    between atoms: C_19  and  C_20 
REMARK    9  A    between atoms: C_20  and  C_21 
ROOT
ATOM      1  C   UNL d   1      26.699 -13.958  -1.244  0.00  0.00     0.169 A 
ATOM      2  N   UNL d   1      26.833 -15.232  -1.078  0.00  0.00    -0.229 NA
ATOM      3  C   UNL d   1      27.517 -15.628   0.059  0.00  0.00     0.051 A 
ATOM      4  C   UNL d   1      28.054 -14.734   0.907  0.00  0.00     0.102 A 
ATOM      5  C   UNL d   1      27.880 -13.299   0.710  0.00  0.00     0.249 A 
ATOM      6  O   UNL d   1      28.324 -12.490   1.495  0.00  0.00    -0.268 OA
ATOM      7  N   UNL d   1      27.173 -12.995  -0.406  0.00  0.00    -0.302 N 
ATOM      8  H   UNL d   1      27.016 -12.018  -0.590  0.00  0.00     0.171 HD
ENDROOT
BRANCH   1   9
ATOM      9  S   UNL d   1      25.851 -13.257  -2.557  0.00  0.00    -0.083 SA
BRANCH   9  10
ATOM     10  C   UNL d   1      25.155 -14.682  -3.524  0.00  0.00     0.185 C 
BRANCH  10  11
ATOM     11  C   UNL d   1      26.324 -15.214  -4.383  0.00  0.00     0.231 C 
ATOM     12  N   UNL d   1      27.626 -15.211  -3.860  0.00  0.00    -0.326 N 
ATOM     13  H   UNL d   1      27.795 -14.576  -3.093  0.00  0.00     0.169 HD
ATOM     14  O   UNL d   1      26.046 -15.541  -5.539  0.00  0.00    -0.272 OA
BRANCH  12  15
ATOM     15  C   UNL d   1      28.823 -15.841  -4.427  0.00  0.00     0.046 A 
ATOM     16  C   UNL d   1      29.267 -15.497  -5.739  0.00  0.00    -0.034 A 
ATOM     17  C   UNL d   1      30.463 -16.072  -6.282  0.00  0.00     0.015 A 
ATOM     18  C   UNL d   1      28.518 -14.511  -6.605  0.00  0.00     0.050 C 
ATOM     19  C   UNL d   1      31.218 -17.002  -5.561  0.00  0.00    -0.061 A 
ATOM     20  C   UNL d   1      32.500 -17.633  -6.015  0.00  0.00     0.048 C 
ATOM     21  C   UNL d   1      30.786 -17.337  -4.293  0.00  0.00     0.015 A 
ATOM     22  C   UNL d   1      29.655 -16.739  -3.713  0.00  0.00    -0.034 A 
ATOM     23  C   UNL d   1      29.495 -17.075  -2.271  0.00  0.00     0.050 C 
ENDBRANCH  12  15
ENDBRANCH  10  11
ENDBRANCH   9  10
ENDBRANCH   1   9
BRANCH   3  24
ATOM     24  C   UNL d   1      27.578 -17.137   0.259  0.00  0.00     0.162 C 
BRANCH  24  25
ATOM     25  C   UNL d   1      26.238 -17.788   0.597  0.00  0.00     0.223 C 
ATOM     26  O   UNL d   1      26.050 -18.575   1.522  0.00  0.00    -0.273 OA
ATOM     27  N   UNL d   1      25.162 -17.470  -0.190  0.00  0.00    -0.360 N 
ATOM     28  H   UNL d   1      25.214 -16.824  -0.965  0.00  0.00     0.162 HD
BRANCH  27  29
ATOM     29  C   UNL d   1      23.943 -18.148   0.171  0.00  0.00     0.127 C 
BRANCH  29  30
ATOM     30  C   UNL d   1      22.881 -18.172  -0.902  0.00  0.00     0.058 C 
BRANCH  30  31
ATOM     31  C   UNL d   1      21.567 -18.731  -0.403  0.00  0.00    -0.057 A 
ATOM     32  C   UNL d   1      21.405 -18.950   0.968  0.00  0.00     0.007 A 
ATOM     33  C   UNL d   1      20.267 -19.604   1.442  0.00  0.00     0.001 A 
ATOM     34  C   UNL d   1      19.241 -19.959   0.568  0.00  0.00     0.000 A 
ATOM     35  C   UNL d   1      19.365 -19.700  -0.790  0.00  0.00     0.001 A 
ATOM     36  C   UNL d   1      20.519 -19.093  -1.270  0.00  0.00     0.007 A 
ENDBRANCH  30  31
ENDBRANCH  29  30
ENDBRANCH  27  29
ENDBRANCH  24  25
ENDBRANCH   3  24
TORSDOF 9
ENDMDL
MODEL 5
REMARK VINA RESULT:    -7.547      2.625      6.089
REMARK INTER + INTRA:         -13.666
REMARK INTER:                 -10.232
REMARK INTRA:                  -3.433
REMARK CONF_INDEPENDENT:        2.685
REMARK UNBOUND:                -3.433
REMARK  9 active torsions:
REMARK  status: ('A' for Active; 'I' for Inactive)
REMARK    1  A    between atoms: C_6  and  N_7 
REMARK       I    between atoms: N_7  and  C_8 
REMARK    2  A    between atoms: C_8  and  C_10 
REMARK    3  A    between atoms: C_10  and  S_11 
REMARK    4  A    between atoms: S_11  and  C_12 
REMARK    5  A    between atoms: C_14  and  C_15 
REMARK    6  A    between atoms: C_15  and  C_16 
REMARK       I    between atoms: C_16  and  N_18 
REMARK    7  A    between atoms: N_18  and  C_19 
REMARK    8  A    between atoms: C_19  and  C_20 
REMARK    9  A    between atoms: C_20  and  C_21 
ROOT
ATOM      1  C   UNL d   1      28.669 -15.593  -5.215  0.00  0.00     0.169 A 
ATOM      2  N   UNL d   1      28.735 -15.944  -3.973  0.00  0.00    -0.229 NA
ATOM      3  C   UNL d   1      29.839 -16.698  -3.613  0.00  0.00     0.051 A 
ATOM      4  C   UNL d   1      30.755 -17.086  -4.518  0.00  0.00     0.102 A 
ATOM      5  C   UNL d   1      30.671 -16.669  -5.912  0.00  0.00     0.249 A 
ATOM      6  O   UNL d   1      31.516 -16.978  -6.723  0.00  0.00    -0.268 OA
ATOM      7  N   UNL d   1      29.580 -15.907  -6.177  0.00  0.00    -0.302 N 
ATOM      8  H   UNL d   1      29.473 -15.584  -7.125  0.00  0.00     0.171 HD
ENDROOT
BRANCH   1   9
ATOM      9  S   UNL d   1      27.413 -14.623  -5.860  0.00  0.00    -0.083 SA
BRANCH   9  10
ATOM     10  C   UNL d   1      25.884 -15.085  -4.912  0.00  0.00     0.185 C 
BRANCH  10  11
ATOM     11  C   UNL d   1      25.800 -14.081  -3.741  0.00  0.00     0.231 C 
ATOM     12  N   UNL d   1      26.927 -13.861  -2.934  0.00  0.00    -0.326 N 
ATOM     13  H   UNL d   1      27.628 -14.589  -2.942  0.00  0.00     0.169 HD
ATOM     14  O   UNL d   1      24.693 -13.581  -3.530  0.00  0.00    -0.272 OA
BRANCH  12  15
ATOM     15  C   UNL d   1      27.111 -12.824  -1.912  0.00  0.00     0.046 A 
ATOM     16  C   UNL d   1      27.279 -11.458  -2.292  0.00  0.00    -0.034 A 
ATOM     17  C   UNL d   1      27.412 -10.433  -1.298  0.00  0.00     0.015 A 
ATOM     18  C   UNL d   1      27.311 -11.028  -3.739  0.00  0.00     0.050 C 
ATOM     19  C   UNL d   1      27.406 -10.735   0.067  0.00  0.00    -0.061 A 
ATOM     20  C   UNL d   1      27.497  -9.741   1.186  0.00  0.00     0.048 C 
ATOM     21  C   UNL d   1      27.246 -12.057   0.433  0.00  0.00     0.015 A 
ATOM     22  C   UNL d   1      27.049 -13.072  -0.518  0.00  0.00    -0.034 A 
ATOM     23  C   UNL d   1      26.680 -14.378   0.094  0.00  0.00     0.050 C 
ENDBRANCH  12  15
ENDBRANCH  10  11
ENDBRANCH   9  10
ENDBRANCH   1   9
BRANCH   3  24
ATOM     24  C   UNL d   1      29.921 -17.017  -2.125  0.00  0.00     0.162 C 
BRANCH  24  25
ATOM     25  C   UNL d   1      28.584 -16.961  -1.389  0.00  0.00     0.223 C 
ATOM     26  O   UNL d   1      27.562 -16.436  -1.823  0.00  0.00    -0.273 OA
ATOM     27  N   UNL d   1      28.519 -17.542  -0.149  0.00  0.00    -0.360 N 
ATOM     28  H   UNL d   1      29.301 -18.009   0.286  0.00  0.00     0.162 HD
BRANCH  27  29
ATOM     29  C   UNL d   1      27.235 -17.419   0.494  0.00  0.00     0.127 C 
BRANCH  29  30
ATOM     30  C   UNL d   1      26.291 -18.576   0.265  0.00  0.00     0.058 C 
BRANCH  30  31
ATOM     31  C   UNL d   1      24.926 -18.123  -0.206  0.00  0.00    -0.057 A 
ATOM     32  C   UNL d   1      24.773 -16.812  -0.668  0.00  0.00     0.007 A 
ATOM     33  C   UNL d   1      23.501 -16.319  -0.965  0.00  0.00     0.001 A 
ATOM     34  C   UNL d   1      22.387 -17.153  -0.895  0.00  0.00     0.000 A 
ATOM     35  C   UNL d   1      22.532 -18.473  -0.489  0.00  0.00     0.001 A 
ATOM     36  C   UNL d   1      23.791 -18.951  -0.146  0.00  0.00     0.007 A 
ENDBRANCH  30  31
ENDBRANCH  29  30
ENDBRANCH  27  29
ENDBRANCH  24  25
ENDBRANCH   3  24
TORSDOF 9
ENDMDL
MODEL 6
REMARK VINA RESULT:    -7.498      2.829      8.684
REMARK INTER + INTRA:         -13.500
REMARK INTER:                 -10.183
REMARK INTRA:                  -3.317
REMARK CONF_INDEPENDENT:        2.685
REMARK UNBOUND:                -3.317
REMARK  9 active torsions:
REMARK  status: ('A' for Active; 'I' for Inactive)
REMARK    1  A    between atoms: C_6  and  N_7 
REMARK       I    between atoms: N_7  and  C_8 
REMARK    2  A    between atoms: C_8  and  C_10 
REMARK    3  A    between atoms: C_10  and  S_11 
REMARK    4  A    between atoms: S_11  and  C_12 
REMARK    5  A    between atoms: C_14  and  C_15 
REMARK    6  A    between atoms: C_15  and  C_16 
REMARK       I    between atoms: C_16  and  N_18 
REMARK    7  A    between atoms: N_18  and  C_19 
REMARK    8  A    between atoms: C_19  and  C_20 
REMARK    9  A    between atoms: C_20  and  C_21 
ROOT
ATOM      1  C   UNL d   1      25.627 -17.550  -0.148  0.00  0.00     0.169 A 
ATOM      2  N   UNL d   1      25.648 -16.573  -0.993  0.00  0.00    -0.229 NA
ATOM      3  C   UNL d   1      24.417 -16.155  -1.469  0.00  0.00     0.051 A 
ATOM      4  C   UNL d   1      23.276 -16.769  -1.111  0.00  0.00     0.102 A 
ATOM      5  C   UNL d   1      23.271 -17.862  -0.144  0.00  0.00     0.249 A 
ATOM      6  O   UNL d   1      22.242 -18.390   0.216  0.00  0.00    -0.268 OA
ATOM      7  N   UNL d   1      24.511 -18.189   0.297  0.00  0.00    -0.302 N 
ATOM      8  H   UNL d   1      24.568 -18.934   0.972  0.00  0.00     0.171 HD
ENDROOT
BRANCH   1   9
ATOM      9  S   UNL d   1      27.032 -18.190   0.595  0.00  0.00    -0.083 SA
BRANCH   9  10
ATOM     10  C   UNL d   1      28.468 -17.385  -0.265  0.00  0.00     0.185 C 
BRANCH  10  11
ATOM     11  C   UNL d   1      28.347 -15.877   0.045  0.00  0.00     0.231 C 
ATOM     12  N   UNL d   1      27.612 -15.455   1.164  0.00  0.00    -0.326 N 
ATOM     13  H   UNL d   1      26.935 -16.113   1.525  0.00  0.00     0.169 HD
ATOM     14  O   UNL d   1      28.848 -15.108  -0.779  0.00  0.00    -0.272 OA
BRANCH  12  15
ATOM     15  C   UNL d   1      27.539 -14.106   1.735  0.00  0.00     0.046 A 
ATOM     16  C   UNL d   1      27.064 -13.013   0.947  0.00  0.00    -0.034 A 
ATOM     17  C   UNL d   1      26.945 -11.701   1.512  0.00  0.00     0.015 A 
ATOM     18  C   UNL d   1      26.656 -13.186  -0.497  0.00  0.00     0.050 C 
ATOM     19  C   UNL d   1      27.308 -11.440   2.837  0.00  0.00    -0.061 A 
ATOM     20  C   UNL d   1      27.187 -10.120   3.537  0.00  0.00     0.048 C 
ATOM     21  C   UNL d   1      27.771 -12.497   3.597  0.00  0.00     0.015 A 
ATOM     22  C   UNL d   1      27.836 -13.804   3.087  0.00  0.00    -0.034 A 
ATOM     23  C   UNL d   1      28.148 -14.819   4.131  0.00  0.00     0.050 C 
ENDBRANCH  12  15
ENDBRANCH  10  11
ENDBRANCH   9  10
ENDBRANCH   1   9
BRANCH   3  24
ATOM     24  C   UNL d   1      24.481 -14.947  -2.396  0.00  0.00     0.162 C 
BRANCH  24  25
ATOM     25  C   UNL d   1      25.593 -15.007  -3.441  0.00  0.00     0.223 C 
ATOM     26  O   UNL d   1      25.430 -14.884  -4.652  0.00  0.00    -0.273 OA
ATOM     27  N   UNL d   1      26.873 -15.215  -2.994  0.00  0.00    -0.360 N 
ATOM     28  H   UNL d   1      27.109 -15.314  -2.017  0.00  0.00     0.162 HD
BRANCH  27  29
ATOM     29  C   UNL d   1      27.860 -15.292  -4.041  0.00  0.00     0.127 C 
BRANCH  29  30
ATOM     30  C   UNL d   1      29.123 -16.036  -3.676  0.00  0.00     0.058 C 
BRANCH  30  31
ATOM     31  C   UNL d   1      29.763 -16.708  -4.870  0.00  0.00    -0.057 A 
ATOM     32  C   UNL d   1      30.175 -18.039  -4.753  0.00  0.00     0.007 A 
ATOM     33  C   UNL d   1      30.904 -18.639  -5.781  0.00  0.00     0.001 A 
ATOM     34  C   UNL d   1      31.146 -17.951  -6.969  0.00  0.00     0.000 A 
ATOM     35  C   UNL d   1      30.696 -16.646  -7.120  0.00  0.00     0.001 A 
ATOM     36  C   UNL d   1      30.013 -16.031  -6.077  0.00  0.00     0.007 A 
ENDBRANCH  30  31
ENDBRANCH  29  30
ENDBRANCH  27  29
ENDBRANCH  24  25
ENDBRANCH   3  24
TORSDOF 9
ENDMDL
MODEL 7
REMARK VINA RESULT:    -7.433      2.954      5.806
REMARK INTER + INTRA:         -14.041
REMARK INTER:                 -10.117
REMARK INTRA:                  -3.923
REMARK CONF_INDEPENDENT:        2.685
REMARK UNBOUND:                -3.923
REMARK  9 active torsions:
REMARK  status: ('A' for Active; 'I' for Inactive)
REMARK    1  A    between atoms: C_6  and  N_7 
REMARK       I    between atoms: N_7  and  C_8 
REMARK    2  A    between atoms: C_8  and  C_10 
REMARK    3  A    between atoms: C_10  and  S_11 
REMARK    4  A    between atoms: S_11  and  C_12 
REMARK    5  A    between atoms: C_14  and  C_15 
REMARK    6  A    between atoms: C_15  and  C_16 
REMARK       I    between atoms: C_16  and  N_18 
REMARK    7  A    between atoms: N_18  and  C_19 
REMARK    8  A    between atoms: C_19  and  C_20 
REMARK    9  A    between atoms: C_20  and  C_21 
ROOT
ATOM      1  C   UNL d   1      28.700 -14.319  -6.524  0.00  0.00     0.169 A 
ATOM      2  N   UNL d   1      27.841 -14.024  -5.605  0.00  0.00    -0.229 NA
ATOM      3  C   UNL d   1      27.147 -12.838  -5.782  0.00  0.00     0.051 A 
ATOM      4  C   UNL d   1      27.398 -12.021  -6.820  0.00  0.00     0.102 A 
ATOM      5  C   UNL d   1      28.362 -12.379  -7.853  0.00  0.00     0.249 A 
ATOM      6  O   UNL d   1      28.560 -11.668  -8.814  0.00  0.00    -0.268 OA
ATOM      7  N   UNL d   1      28.974 -13.567  -7.625  0.00  0.00    -0.302 N 
ATOM      8  H   UNL d   1      29.647 -13.869  -8.311  0.00  0.00     0.171 HD
ENDROOT
BRANCH   1   9
ATOM      9  S   UNL d   1      29.631 -15.758  -6.522  0.00  0.00    -0.083 SA
BRANCH   9  10
ATOM     10  C   UNL d   1      30.615 -15.719  -4.948  0.00  0.00     0.185 C 
BRANCH  10  11
ATOM     11  C   UNL d   1      29.576 -15.623  -3.809  0.00  0.00     0.231 C 
ATOM     12  N   UNL d   1      29.866 -14.861  -2.668  0.00  0.00    -0.326 N 
ATOM     13  H   UNL d   1      30.844 -14.679  -2.491  0.00  0.00     0.169 HD
ATOM     14  O   UNL d   1      28.560 -16.310  -3.939  0.00  0.00    -0.272 OA
BRANCH  12  15
ATOM     15  C   UNL d   1      28.953 -14.488  -1.581  0.00  0.00     0.046 A 
ATOM     16  C   UNL d   1      28.779 -15.352  -0.457  0.00  0.00    -0.034 A 
ATOM     17  C   UNL d   1      27.926 -14.974   0.632  0.00  0.00     0.015 A 
ATOM     18  C   UNL d   1      29.485 -16.684  -0.354  0.00  0.00     0.050 C 
ATOM     19  C   UNL d   1      27.223 -13.766   0.622  0.00  0.00    -0.061 A 
ATOM     20  C   UNL d   1      26.339 -13.255   1.721  0.00  0.00     0.048 C 
ATOM     21  C   UNL d   1      27.390 -12.932  -0.467  0.00  0.00     0.015 A 
ATOM     22  C   UNL d   1      28.269 -13.249  -1.515  0.00  0.00    -0.034 A 
ATOM     23  C   UNL d   1      28.465 -12.123  -2.469  0.00  0.00     0.050 C 
ENDBRANCH  12  15
ENDBRANCH  10  11
ENDBRANCH   9  10
ENDBRANCH   1   9
BRANCH   3  24
ATOM     24  C   UNL d   1      26.085 -12.571  -4.723  0.00  0.00     0.162 C 
BRANCH  24  25
ATOM     25  C   UNL d   1      25.480 -13.827  -4.099  0.00  0.00     0.223 C 
ATOM     26  O   UNL d   1      24.278 -14.074  -4.035  0.00  0.00    -0.273 OA
ATOM     27  N   UNL d   1      26.343 -14.750  -3.568  0.00  0.00    -0.360 N 
ATOM     28  H   UNL d   1      27.347 -14.643  -3.585  0.00  0.00     0.162 HD
BRANCH  27  29
ATOM     29  C   UNL d   1      25.696 -15.890  -2.970  0.00  0.00     0.127 C 
BRANCH  29  30
ATOM     30  C   UNL d   1      25.586 -15.845  -1.463  0.00  0.00     0.058 C 
BRANCH  30  31
ATOM     31  C   UNL d   1      24.498 -16.754  -0.936  0.00  0.00    -0.057 A 
ATOM     32  C   UNL d   1      24.843 -18.039  -0.507  0.00  0.00     0.007 A 
ATOM     33  C   UNL d   1      23.845 -18.952  -0.160  0.00  0.00     0.001 A 
ATOM     34  C   UNL d   1      22.507 -18.564  -0.147  0.00  0.00     0.000 A 
ATOM     35  C   UNL d   1      22.155 -17.274  -0.520  0.00  0.00     0.001 A 
ATOM     36  C   UNL d   1      23.142 -16.379  -0.913  0.00  0.00     0.007 A 
ENDBRANCH  30  31
ENDBRANCH  29  30
ENDBRANCH  27  29
ENDBRANCH  24  25
ENDBRANCH   3  24
TORSDOF 9
ENDMDL
MODEL 8
REMARK VINA RESULT:    -7.045      3.337      8.429
REMARK INTER + INTRA:         -13.544
REMARK INTER:                  -9.730
REMARK INTRA:                  -3.815
REMARK CONF_INDEPENDENT:        2.685
REMARK UNBOUND:                -3.815
REMARK  9 active torsions:
REMARK  status: ('A' for Active; 'I' for Inactive)
REMARK    1  A    between atoms: C_6  and  N_7 
REMARK       I    between atoms: N_7  and  C_8 
REMARK    2  A    between atoms: C_8  and  C_10 
REMARK    3  A    between atoms: C_10  and  S_11 
REMARK    4  A    between atoms: S_11  and  C_12 
REMARK    5  A    between atoms: C_14  and  C_15 
REMARK    6  A    between atoms: C_15  and  C_16 
REMARK       I    between atoms: C_16  and  N_18 
REMARK    7  A    between atoms: N_18  and  C_19 
REMARK    8  A    between atoms: C_19  and  C_20 
REMARK    9  A    between atoms: C_20  and  C_21 
ROOT
ATOM      1  C   UNL d   1      25.619 -17.570  -0.157  0.00  0.00     0.169 A 
ATOM      2  N   UNL d   1      25.634 -16.594  -1.004  0.00  0.00    -0.229 NA
ATOM      3  C   UNL d   1      24.399 -16.172  -1.467  0.00  0.00     0.051 A 
ATOM      4  C   UNL d   1      23.261 -16.783  -1.096  0.00  0.00     0.102 A 
ATOM      5  C   UNL d   1      23.262 -17.874  -0.129  0.00  0.00     0.249 A 
ATOM      6  O   UNL d   1      22.236 -18.399   0.242  0.00  0.00    -0.268 OA
ATOM      7  N   UNL d   1      24.506 -18.205   0.300  0.00  0.00    -0.302 N 
ATOM      8  H   UNL d   1      24.567 -18.950   0.975  0.00  0.00     0.171 HD
ENDROOT
BRANCH   1   9
ATOM      9  S   UNL d   1      27.030 -18.214   0.571  0.00  0.00    -0.083 SA
BRANCH   9  10
ATOM     10  C   UNL d   1      28.459 -17.407  -0.298  0.00  0.00     0.185 C 
BRANCH  10  11
ATOM     11  C   UNL d   1      28.333 -15.898   0.006  0.00  0.00     0.231 C 
ATOM     12  N   UNL d   1      27.614 -15.475   1.134  0.00  0.00    -0.326 N 
ATOM     13  H   UNL d   1      26.948 -16.135   1.509  0.00  0.00     0.169 HD
ATOM     14  O   UNL d   1      28.815 -15.131  -0.832  0.00  0.00    -0.272 OA
BRANCH  12  15
ATOM     15  C   UNL d   1      27.542 -14.123   1.698  0.00  0.00     0.046 A 
ATOM     16  C   UNL d   1      27.065 -13.035   0.906  0.00  0.00    -0.034 A 
ATOM     17  C   UNL d   1      26.947 -11.719   1.465  0.00  0.00     0.015 A 
ATOM     18  C   UNL d   1      26.655 -13.214  -0.537  0.00  0.00     0.050 C 
ATOM     19  C   UNL d   1      27.312 -11.452   2.787  0.00  0.00    -0.061 A 
ATOM     20  C   UNL d   1      27.192 -10.129   3.481  0.00  0.00     0.048 C 
ATOM     21  C   UNL d   1      27.776 -12.505   3.552  0.00  0.00     0.015 A 
ATOM     22  C   UNL d   1      27.841 -13.815   3.049  0.00  0.00    -0.034 A 
ATOM     23  C   UNL d   1      28.155 -14.825   4.097  0.00  0.00     0.050 C 
ENDBRANCH  12  15
ENDBRANCH  10  11
ENDBRANCH   9  10
ENDBRANCH   1   9
BRANCH   3  24
ATOM     24  C   UNL d   1      24.458 -14.966  -2.395  0.00  0.00     0.162 C 
BRANCH  24  25
ATOM     25  C   UNL d   1      25.531 -15.049  -3.479  0.00  0.00     0.223 C 
ATOM     26  O   UNL d   1      25.328 -14.918  -4.684  0.00  0.00    -0.273 OA
ATOM     27  N   UNL d   1      26.819 -15.290  -3.078  0.00  0.00    -0.360 N 
ATOM     28  H   UNL d   1      27.087 -15.399  -2.110  0.00  0.00     0.162 HD
BRANCH  27  29
ATOM     29  C   UNL d   1      27.767 -15.388  -4.159  0.00  0.00     0.127 C 
BRANCH  29  30
ATOM     30  C   UNL d   1      28.565 -14.134  -4.427  0.00  0.00     0.058 C 
BRANCH  30  31
ATOM     31  C   UNL d   1      27.689 -12.907  -4.552  0.00  0.00    -0.057 A 
ATOM     32  C   UNL d   1      27.405 -12.161  -3.404  0.00  0.00     0.007 A 
ATOM     33  C   UNL d   1      26.481 -11.117  -3.459  0.00  0.00     0.001 A 
ATOM     34  C   UNL d   1      25.905 -10.747  -4.673  0.00  0.00     0.000 A 
ATOM     35  C   UNL d   1      26.219 -11.445  -5.831  0.00  0.00     0.001 A 
ATOM     36  C   UNL d   1      27.102 -12.516  -5.769  0.00  0.00     0.007 A 
ENDBRANCH  30  31
ENDBRANCH  29  30
ENDBRANCH  27  29
ENDBRANCH  24  25
ENDBRANCH   3  24
TORSDOF 9
ENDMDL
MODEL 9
REMARK VINA RESULT:    -7.030      3.070      4.656
REMARK INTER + INTRA:         -13.496
REMARK INTER:                  -9.715
REMARK INTRA:                  -3.782
REMARK CONF_INDEPENDENT:        2.685
REMARK UNBOUND:                -3.782
REMARK  9 active torsions:
REMARK  status: ('A' for Active; 'I' for Inactive)
REMARK    1  A    between atoms: C_6  and  N_7 
REMARK       I    between atoms: N_7  and  C_8 
REMARK    2  A    between atoms: C_8  and  C_10 
REMARK    3  A    between atoms: C_10  and  S_11 
REMARK    4  A    between atoms: S_11  and  C_12 
REMARK    5  A    between atoms: C_14  and  C_15 
REMARK    6  A    between atoms: C_15  and  C_16 
REMARK       I    between atoms: C_16  and  N_18 
REMARK    7  A    between atoms: N_18  and  C_19 
REMARK    8  A    between atoms: C_19  and  C_20 
REMARK    9  A    between atoms: C_20  and  C_21 
ROOT
ATOM      1  C   UNL d   1      25.919 -12.760  -3.320  0.00  0.00     0.169 A 
ATOM      2  N   UNL d   1      27.031 -13.123  -2.771  0.00  0.00    -0.229 NA
ATOM      3  C   UNL d   1      27.867 -12.100  -2.358  0.00  0.00     0.051 A 
ATOM      4  C   UNL d   1      27.559 -10.808  -2.568  0.00  0.00     0.102 A 
ATOM      5  C   UNL d   1      26.293 -10.417  -3.177  0.00  0.00     0.249 A 
ATOM      6  O   UNL d   1      25.992  -9.254  -3.329  0.00  0.00    -0.268 OA
ATOM      7  N   UNL d   1      25.519 -11.475  -3.524  0.00  0.00    -0.302 N 
ATOM      8  H   UNL d   1      24.628 -11.264  -3.944  0.00  0.00     0.171 HD
ENDROOT
BRANCH   1   9
ATOM      9  S   UNL d   1      24.725 -13.862  -3.861  0.00  0.00    -0.083 SA
BRANCH   9  10
ATOM     10  C   UNL d   1      25.531 -15.535  -3.824  0.00  0.00     0.185 C 
BRANCH  10  11
ATOM     11  C   UNL d   1      26.654 -15.480  -4.882  0.00  0.00     0.231 C 
ATOM     12  N   UNL d   1      27.975 -15.235  -4.479  0.00  0.00    -0.326 N 
ATOM     13  H   UNL d   1      28.090 -14.788  -3.580  0.00  0.00     0.169 HD
ATOM     14  O   UNL d   1      26.299 -15.576  -6.059  0.00  0.00    -0.272 OA
BRANCH  12  15
ATOM     15  C   UNL d   1      29.194 -15.335  -5.289  0.00  0.00     0.046 A 
ATOM     16  C   UNL d   1      30.130 -16.388  -5.058  0.00  0.00    -0.034 A 
ATOM     17  C   UNL d   1      31.300 -16.521  -5.876  0.00  0.00     0.015 A 
ATOM     18  C   UNL d   1      29.931 -17.410  -3.963  0.00  0.00     0.050 C 
ATOM     19  C   UNL d   1      31.576 -15.617  -6.907  0.00  0.00    -0.061 A 
ATOM     20  C   UNL d   1      32.745 -15.685  -7.844  0.00  0.00     0.048 C 
ATOM     21  C   UNL d   1      30.672 -14.597  -7.128  0.00  0.00     0.015 A 
ATOM     22  C   UNL d   1      29.486 -14.483  -6.383  0.00  0.00    -0.034 A 
ATOM     23  C   UNL d   1      28.556 -13.455  -6.927  0.00  0.00     0.050 C 
ENDBRANCH  12  15
ENDBRANCH  10  11
ENDBRANCH   9  10
ENDBRANCH   1   9
BRANCH   3  24
ATOM     24  C   UNL d   1      29.126 -12.571  -1.640  0.00  0.00     0.162 C 
BRANCH  24  25
ATOM     25  C   UNL d   1      29.255 -14.088  -1.515  0.00  0.00     0.223 C 
ATOM     26  O   UNL d   1      30.288 -14.726  -1.704  0.00  0.00    -0.273 OA
ATOM     27  N   UNL d   1      28.133 -14.793  -1.166  0.00  0.00    -0.360 N 
ATOM     28  H   UNL d   1      27.241 -14.358  -0.977  0.00  0.00     0.162 HD
BRANCH  27  29
ATOM     29  C   UNL d   1      28.327 -16.220  -1.101  0.00  0.00     0.127 C 
BRANCH  29  30
ATOM     30  C   UNL d   1      27.659 -16.904   0.069  0.00  0.00     0.058 C 
BRANCH  30  31
ATOM     31  C   UNL d   1      26.172 -17.089  -0.141  0.00  0.00    -0.057 A 
ATOM     32  C   UNL d   1      25.594 -18.321   0.179  0.00  0.00     0.007 A 
ATOM     33  C   UNL d   1      24.260 -18.573  -0.145  0.00  0.00     0.001 A 
ATOM     34  C   UNL d   1      23.468 -17.571  -0.702  0.00  0.00     0.000 A 
ATOM     35  C   UNL d   1      24.015 -16.325  -0.976  0.00  0.00     0.001 A 
ATOM     36  C   UNL d   1      25.356 -16.089  -0.700  0.00  0.00     0.007 A 
ENDBRANCH  30  31
ENDBRANCH  29  30
ENDBRANCH  27  29
ENDBRANCH  24  25
ENDBRANCH   3  24
TORSDOF 9
ENDMDL
