MODEL 1
REMARK VINA RESULT:   -10.116      0.000      0.000
REMARK INTER + INTRA:         -13.762
REMARK INTER:                 -12.502
REMARK INTRA:                  -1.260
REMARK CONF_INDEPENDENT:        2.386
REMARK UNBOUND:                -1.260
REMARK  8 active torsions:
REMARK  status: ('A' for Active; 'I' for Inactive)
REMARK    1  A    between atoms: C_2  and  C_3 
REMARK       I    between atoms: C_3  and  N_5 
REMARK    2  A    between atoms: N_5  and  C_6 
REMARK    3  A    between atoms: C_10  and  N_11 
REMARK    4  A    between atoms: N_11  and  C_12 
REMARK    5  A    between atoms: C_12  and  C_13 
REMARK       I    between atoms: C_13  and  N_15 
REMARK    6  A    between atoms: N_15  and  C_16 
REMARK    7  A    between atoms: C_19  and  N_20 
REMARK       I    between atoms: N_20  and  C_21 
REMARK    8  A    between atoms: C_21  and  C_23 
ROOT
ATOM      1  C   UNL d   1      26.482 -14.759  -3.796  0.00  0.00     0.239 C 
ATOM      2  O   UNL d   1      25.466 -14.881  -4.486  0.00  0.00    -0.271 OA
ATOM      3  N   UNL d   1      26.603 -15.222  -2.485  0.00  0.00    -0.326 N 
ATOM      4  H   UNL d   1      27.385 -14.930  -1.912  0.00  0.00     0.169 HD
ENDROOT
BRANCH   3   5
ATOM      5  C   UNL d   1      25.604 -16.023  -1.883  0.00  0.00     0.034 A 
ATOM      6  C   UNL d   1      24.249 -15.679  -1.909  0.00  0.00     0.032 A 
ATOM      7  C   UNL d   1      23.287 -16.505  -1.270  0.00  0.00     0.032 A 
ATOM      8  C   UNL d   1      23.676 -17.688  -0.621  0.00  0.00     0.035 A 
ATOM      9  C   UNL d   1      25.038 -17.972  -0.573  0.00  0.00     0.032 A 
ATOM     10  C   UNL d   1      25.982 -17.168  -1.198  0.00  0.00     0.032 A 
BRANCH   8  11
ATOM     11  N   UNL d   1      22.710 -18.579  -0.064  0.00  0.00    -0.323 N 
ATOM     12  C   UNL d   1      21.362 -18.592  -0.407  0.00  0.00     0.256 C 
ATOM     13  O   UNL d   1      20.805 -17.880  -1.252  0.00  0.00    -0.267 OA
ATOM     14  H   UNL d   1      23.032 -19.227   0.645  0.00  0.00     0.169 HD
BRANCH  12  15
ATOM     15  C   UNL d   1      20.451 -19.527   0.284  0.00  0.00     0.032 A 
ATOM     16  C   UNL d   1      19.357 -20.030  -0.442  0.00  0.00     0.017 A 
ATOM     17  C   UNL d   1      18.332 -20.715   0.205  0.00  0.00     0.002 A 
ATOM     18  C   UNL d   1      18.422 -20.951   1.573  0.00  0.00     0.007 A 
ATOM     19  C   UNL d   1      19.506 -20.454   2.310  0.00  0.00    -0.061 A 
ATOM     20  C   UNL d   1      19.550 -20.623   3.799  0.00  0.00     0.048 C 
ATOM     21  C   UNL d   1      20.523 -19.735   1.662  0.00  0.00     0.023 A 
ENDBRANCH  12  15
ENDBRANCH   8  11
ENDBRANCH   3   5
BRANCH   1  22
ATOM     22  C   UNL d   1      27.695 -14.010  -4.349  0.00  0.00     0.223 C 
BRANCH  22  23
ATOM     23  N   UNL d   1      28.931 -14.719  -3.986  0.00  0.00    -0.381 N 
ATOM     24  H   UNL d   1      29.246 -14.595  -3.026  0.00  0.00     0.160 HD
BRANCH  23  25
ATOM     25  C   UNL d   1      29.552 -15.620  -4.822  0.00  0.00     0.030 A 
ATOM     26  C   UNL d   1      29.857 -15.303  -6.146  0.00  0.00     0.029 A 
ATOM     27  C   UNL d   1      30.535 -16.219  -6.965  0.00  0.00     0.004 A 
ATOM     28  C   UNL d   1      30.898 -17.481  -6.473  0.00  0.00     0.029 A 
ATOM     29  C   UNL d   1      30.602 -17.813  -5.154  0.00  0.00     0.036 A 
ATOM     30  C   UNL d   1      29.915 -16.887  -4.367  0.00  0.00     0.058 A 
BRANCH  29  31
ATOM     31  N   UNL d   1      31.063 -19.016  -4.565  0.00  0.00    -0.327 N 
ATOM     32  C   UNL d   1      30.670 -20.267  -5.024  0.00  0.00     0.221 C 
ATOM     33  O   UNL d   1      30.032 -20.454  -6.060  0.00  0.00    -0.273 OA
ATOM     34  H   UNL d   1      31.713 -18.936  -3.795  0.00  0.00     0.169 HD
BRANCH  32  35
ATOM     35  C   UNL d   1      31.101 -21.446  -4.169  0.00  0.00     0.098 C 
ATOM     36  C   UNL d   1      31.784 -22.489  -5.053  0.00  0.00     0.014 C 
ENDBRANCH  32  35
ENDBRANCH  29  31
ENDBRANCH  23  25
ENDBRANCH  22  23
ENDBRANCH   1  22
TORSDOF 8
ENDMDL
MODEL 2
REMARK VINA RESULT:   -10.004      3.630      6.773
REMARK INTER + INTRA:         -13.643
REMARK INTER:                 -12.391
REMARK INTRA:                  -1.253
REMARK CONF_INDEPENDENT:        2.386
REMARK UNBOUND:                -1.253
REMARK  8 active torsions:
REMARK  status: ('A' for Active; 'I' for Inactive)
REMARK    1  A    between atoms: C_2  and  C_3 
REMARK       I    between atoms: C_3  and  N_5 
REMARK    2  A    between atoms: N_5  and  C_6 
REMARK    3  A    between atoms: C_10  and  N_11 
REMARK    4  A    between atoms: N_11  and  C_12 
REMARK    5  A    between atoms: C_12  and  C_13 
REMARK       I    between atoms: C_13  and  N_15 
REMARK    6  A    between atoms: N_15  and  C_16 
REMARK    7  A    between atoms: C_19  and  N_20 
REMARK       I    between atoms: N_20  and  C_21 
REMARK    8  A    between atoms: C_21  and  C_23 
ROOT
ATOM      1  C   UNL d   1      26.192 -14.675  -3.879  0.00  0.00     0.239 C 
ATOM      2  O   UNL d   1      25.184 -14.859  -4.567  0.00  0.00    -0.271 OA
ATOM      3  N   UNL d   1      26.331 -15.104  -2.557  0.00  0.00    -0.326 N 
ATOM      4  H   UNL d   1      27.097 -14.763  -1.989  0.00  0.00     0.169 HD
ENDROOT
BRANCH   3   5
ATOM      5  C   UNL d   1      25.369 -15.938  -1.941  0.00  0.00     0.034 A 
ATOM      6  C   UNL d   1      24.011 -15.608  -1.890  0.00  0.00     0.032 A 
ATOM      7  C   UNL d   1      23.088 -16.467  -1.238  0.00  0.00     0.032 A 
ATOM      8  C   UNL d   1      23.517 -17.669  -0.653  0.00  0.00     0.035 A 
ATOM      9  C   UNL d   1      24.883 -17.941  -0.680  0.00  0.00     0.032 A 
ATOM     10  C   UNL d   1      25.789 -17.103  -1.318  0.00  0.00     0.032 A 
BRANCH   8  11
ATOM     11  N   UNL d   1      22.587 -18.591  -0.086  0.00  0.00    -0.323 N 
ATOM     12  C   UNL d   1      21.218 -18.580  -0.333  0.00  0.00     0.256 C 
ATOM     13  O   UNL d   1      20.608 -17.814  -1.091  0.00  0.00    -0.267 OA
ATOM     14  H   UNL d   1      22.954 -19.283   0.556  0.00  0.00     0.169 HD
BRANCH  12  15
ATOM     15  C   UNL d   1      20.352 -19.554   0.361  0.00  0.00     0.032 A 
ATOM     16  C   UNL d   1      19.271 -20.094  -0.357  0.00  0.00     0.017 A 
ATOM     17  C   UNL d   1      18.281 -20.823   0.296  0.00  0.00     0.002 A 
ATOM     18  C   UNL d   1      18.393 -21.064   1.662  0.00  0.00     0.007 A 
ATOM     19  C   UNL d   1      19.465 -20.529   2.391  0.00  0.00    -0.061 A 
ATOM     20  C   UNL d   1      19.530 -20.705   3.878  0.00  0.00     0.048 C 
ATOM     21  C   UNL d   1      20.446 -19.766   1.737  0.00  0.00     0.023 A 
ENDBRANCH  12  15
ENDBRANCH   8  11
ENDBRANCH   3   5
BRANCH   1  22
ATOM     22  C   UNL d   1      27.370 -13.882  -4.445  0.00  0.00     0.223 C 
BRANCH  22  23
ATOM     23  N   UNL d   1      27.420 -12.549  -3.827  0.00  0.00    -0.381 N 
ATOM     24  H   UNL d   1      28.080 -12.442  -3.059  0.00  0.00     0.160 HD
BRANCH  23  25
ATOM     25  C   UNL d   1      26.744 -11.461  -4.333  0.00  0.00     0.030 A 
ATOM     26  C   UNL d   1      26.297 -11.425  -5.654  0.00  0.00     0.029 A 
ATOM     27  C   UNL d   1      25.568 -10.326  -6.134  0.00  0.00     0.004 A 
ATOM     28  C   UNL d   1      25.296  -9.232  -5.301  0.00  0.00     0.029 A 
ATOM     29  C   UNL d   1      25.734  -9.253  -3.980  0.00  0.00     0.036 A 
ATOM     30  C   UNL d   1      26.469 -10.352  -3.534  0.00  0.00     0.058 A 
BRANCH  29  31
ATOM     31  N   UNL d   1      25.373  -8.240  -3.057  0.00  0.00    -0.327 N 
ATOM     32  C   UNL d   1      26.287  -7.311  -2.576  0.00  0.00     0.221 C 
ATOM     33  O   UNL d   1      27.430  -7.176  -3.013  0.00  0.00    -0.273 OA
ATOM     34  H   UNL d   1      24.405  -8.202  -2.766  0.00  0.00     0.169 HD
BRANCH  32  35
ATOM     35  C   UNL d   1      25.786  -6.416  -1.456  0.00  0.00     0.098 C 
ATOM     36  C   UNL d   1      25.584  -7.252  -0.191  0.00  0.00     0.014 C 
ENDBRANCH  32  35
ENDBRANCH  29  31
ENDBRANCH  23  25
ENDBRANCH  22  23
ENDBRANCH   1  22
TORSDOF 8
ENDMDL
MODEL 3
REMARK VINA RESULT:    -9.830      1.292      1.716
REMARK INTER + INTRA:         -13.682
REMARK INTER:                 -12.217
REMARK INTRA:                  -1.465
REMARK CONF_INDEPENDENT:        2.386
REMARK UNBOUND:                -1.465
REMARK  8 active torsions:
REMARK  status: ('A' for Active; 'I' for Inactive)
REMARK    1  A    between atoms: C_2  and  C_3 
REMARK       I    between atoms: C_3  and  N_5 
REMARK    2  A    between atoms: N_5  and  C_6 
REMARK    3  A    between atoms: C_10  and  N_11 
REMARK    4  A    between atoms: N_11  and  C_12 
REMARK    5  A    between atoms: C_12  and  C_13 
REMARK       I    between atoms: C_13  and  N_15 
REMARK    6  A    between atoms: N_15  and  C_16 
REMARK    7  A    between atoms: C_19  and  N_20 
REMARK       I    between atoms: N_20  and  C_21 
REMARK    8  A    between atoms: C_21  and  C_23 
ROOT
ATOM      1  C   UNL d   1      26.151 -14.640  -3.892  0.00  0.00     0.239 C 
ATOM      2  O   UNL d   1      25.089 -14.715  -4.516  0.00  0.00    -0.271 OA
ATOM      3  N   UNL d   1      26.352 -15.170  -2.615  0.00  0.00    -0.326 N 
ATOM      4  H   UNL d   1      27.174 -14.916  -2.083  0.00  0.00     0.169 HD
ENDROOT
BRANCH   3   5
ATOM      5  C   UNL d   1      25.383 -15.988  -1.989  0.00  0.00     0.034 A 
ATOM      6  C   UNL d   1      24.048 -15.596  -1.845  0.00  0.00     0.032 A 
ATOM      7  C   UNL d   1      23.118 -16.443  -1.186  0.00  0.00     0.032 A 
ATOM      8  C   UNL d   1      23.517 -17.694  -0.688  0.00  0.00     0.035 A 
ATOM      9  C   UNL d   1      24.863 -18.029  -0.805  0.00  0.00     0.032 A 
ATOM     10  C   UNL d   1      25.775 -17.203  -1.450  0.00  0.00     0.032 A 
BRANCH   8  11
ATOM     11  N   UNL d   1      22.573 -18.599  -0.116  0.00  0.00    -0.323 N 
ATOM     12  C   UNL d   1      21.217 -18.622  -0.428  0.00  0.00     0.256 C 
ATOM     13  O   UNL d   1      20.634 -17.907  -1.253  0.00  0.00    -0.267 OA
ATOM     14  H   UNL d   1      22.917 -19.251   0.578  0.00  0.00     0.169 HD
BRANCH  12  15
ATOM     15  C   UNL d   1      20.331 -19.571   0.276  0.00  0.00     0.032 A 
ATOM     16  C   UNL d   1      19.223 -20.074  -0.427  0.00  0.00     0.017 A 
ATOM     17  C   UNL d   1      18.220 -20.774   0.239  0.00  0.00     0.002 A 
ATOM     18  C   UNL d   1      18.346 -21.024   1.601  0.00  0.00     0.007 A 
ATOM     19  C   UNL d   1      19.445 -20.526   2.315  0.00  0.00    -0.061 A 
ATOM     20  C   UNL d   1      19.528 -20.711   3.801  0.00  0.00     0.048 C 
ATOM     21  C   UNL d   1      20.440 -19.793   1.649  0.00  0.00     0.023 A 
ENDBRANCH  12  15
ENDBRANCH   8  11
ENDBRANCH   3   5
BRANCH   1  22
ATOM     22  C   UNL d   1      27.336 -13.878  -4.487  0.00  0.00     0.223 C 
BRANCH  22  23
ATOM     23  N   UNL d   1      28.536 -14.100  -3.668  0.00  0.00    -0.381 N 
ATOM     24  H   UNL d   1      28.708 -13.411  -2.939  0.00  0.00     0.160 HD
BRANCH  23  25
ATOM     25  C   UNL d   1      29.306 -15.239  -3.757  0.00  0.00     0.030 A 
ATOM     26  C   UNL d   1      29.614 -16.007  -2.634  0.00  0.00     0.029 A 
ATOM     27  C   UNL d   1      30.359 -17.190  -2.757  0.00  0.00     0.004 A 
ATOM     28  C   UNL d   1      30.827 -17.610  -4.010  0.00  0.00     0.029 A 
ATOM     29  C   UNL d   1      30.528 -16.856  -5.141  0.00  0.00     0.036 A 
ATOM     30  C   UNL d   1      29.798 -15.677  -4.987  0.00  0.00     0.058 A 
BRANCH  29  31
ATOM     31  N   UNL d   1      30.858 -17.301  -6.444  0.00  0.00    -0.327 N 
ATOM     32  C   UNL d   1      30.653 -18.611  -6.858  0.00  0.00     0.221 C 
ATOM     33  O   UNL d   1      30.029 -19.451  -6.209  0.00  0.00    -0.273 OA
ATOM     34  H   UNL d   1      31.242 -16.617  -7.084  0.00  0.00     0.169 HD
BRANCH  32  35
ATOM     35  C   UNL d   1      31.233 -18.970  -8.215  0.00  0.00     0.098 C 
ATOM     36  C   UNL d   1      31.469 -20.479  -8.281  0.00  0.00     0.014 C 
ENDBRANCH  32  35
ENDBRANCH  29  31
ENDBRANCH  23  25
ENDBRANCH  22  23
ENDBRANCH   1  22
TORSDOF 8
ENDMDL
MODEL 4
REMARK VINA RESULT:    -9.775      7.638     10.200
REMARK INTER + INTRA:         -13.412
REMARK INTER:                 -12.161
REMARK INTRA:                  -1.251
REMARK CONF_INDEPENDENT:        2.386
REMARK UNBOUND:                -1.251
REMARK  8 active torsions:
REMARK  status: ('A' for Active; 'I' for Inactive)
REMARK    1  A    between atoms: C_2  and  C_3 
REMARK       I    between atoms: C_3  and  N_5 
REMARK    2  A    between atoms: N_5  and  C_6 
REMARK    3  A    between atoms: C_10  and  N_11 
REMARK    4  A    between atoms: N_11  and  C_12 
REMARK    5  A    between atoms: C_12  and  C_13 
REMARK       I    between atoms: C_13  and  N_15 
REMARK    6  A    between atoms: N_15  and  C_16 
REMARK    7  A    between atoms: C_19  and  N_20 
REMARK       I    between atoms: N_20  and  C_21 
REMARK    8  A    between atoms: C_21  and  C_23 
ROOT
ATOM      1  C   UNL d   1      27.033 -13.836   0.565  0.00  0.00     0.239 C 
ATOM      2  O   UNL d   1      25.961 -13.580   1.120  0.00  0.00    -0.271 OA
ATOM      3  N   UNL d   1      28.244 -14.014   1.237  0.00  0.00    -0.326 N 
ATOM      4  H   UNL d   1      29.115 -14.034   0.720  0.00  0.00     0.169 HD
ENDROOT
BRANCH   3   5
ATOM      5  C   UNL d   1      28.310 -14.070   2.649  0.00  0.00     0.034 A 
ATOM      6  C   UNL d   1      27.233 -13.713   3.466  0.00  0.00     0.032 A 
ATOM      7  C   UNL d   1      27.357 -13.764   4.879  0.00  0.00     0.032 A 
ATOM      8  C   UNL d   1      28.552 -14.193   5.479  0.00  0.00     0.035 A 
ATOM      9  C   UNL d   1      29.618 -14.494   4.635  0.00  0.00     0.032 A 
ATOM     10  C   UNL d   1      29.500 -14.446   3.252  0.00  0.00     0.032 A 
BRANCH   8  11
ATOM     11  N   UNL d   1      28.657 -14.348   6.894  0.00  0.00    -0.323 N 
ATOM     12  C   UNL d   1      28.536 -13.308   7.810  0.00  0.00     0.256 C 
ATOM     13  O   UNL d   1      28.290 -12.122   7.556  0.00  0.00    -0.267 OA
ATOM     14  H   UNL d   1      28.854 -15.277   7.245  0.00  0.00     0.169 HD
BRANCH  12  15
ATOM     15  C   UNL d   1      28.722 -13.588   9.248  0.00  0.00     0.032 A 
ATOM     16  C   UNL d   1      28.259 -12.630  10.166  0.00  0.00     0.017 A 
ATOM     17  C   UNL d   1      28.611 -12.708  11.510  0.00  0.00     0.002 A 
ATOM     18  C   UNL d   1      29.382 -13.776  11.957  0.00  0.00     0.007 A 
ATOM     19  C   UNL d   1      29.854 -14.739  11.052  0.00  0.00    -0.061 A 
ATOM     20  C   UNL d   1      30.767 -15.832  11.518  0.00  0.00     0.048 C 
ATOM     21  C   UNL d   1      29.524 -14.641   9.690  0.00  0.00     0.023 A 
ENDBRANCH  12  15
ENDBRANCH   8  11
ENDBRANCH   3   5
BRANCH   1  22
ATOM     22  C   UNL d   1      27.104 -13.918  -0.961  0.00  0.00     0.223 C 
BRANCH  22  23
ATOM     23  N   UNL d   1      26.029 -14.784  -1.466  0.00  0.00    -0.381 N 
ATOM     24  H   UNL d   1      25.587 -14.481  -2.332  0.00  0.00     0.160 HD
BRANCH  23  25
ATOM     25  C   UNL d   1      25.726 -16.007  -0.911  0.00  0.00     0.030 A 
ATOM     26  C   UNL d   1      26.711 -16.826  -0.358  0.00  0.00     0.029 A 
ATOM     27  C   UNL d   1      26.372 -18.046   0.247  0.00  0.00     0.004 A 
ATOM     28  C   UNL d   1      25.038 -18.476   0.286  0.00  0.00     0.029 A 
ATOM     29  C   UNL d   1      24.043 -17.670  -0.261  0.00  0.00     0.036 A 
ATOM     30  C   UNL d   1      24.411 -16.469  -0.868  0.00  0.00     0.058 A 
BRANCH  29  31
ATOM     31  N   UNL d   1      22.669 -17.989  -0.131  0.00  0.00    -0.327 N 
ATOM     32  C   UNL d   1      21.985 -18.739  -1.079  0.00  0.00     0.221 C 
ATOM     33  O   UNL d   1      22.526 -19.323  -2.019  0.00  0.00    -0.273 OA
ATOM     34  H   UNL d   1      22.194 -17.662   0.700  0.00  0.00     0.169 HD
BRANCH  32  35
ATOM     35  C   UNL d   1      20.482 -18.830  -0.886  0.00  0.00     0.098 C 
ATOM     36  C   UNL d   1      20.182 -19.326   0.529  0.00  0.00     0.014 C 
ENDBRANCH  32  35
ENDBRANCH  29  31
ENDBRANCH  23  25
ENDBRANCH  22  23
ENDBRANCH   1  22
TORSDOF 8
ENDMDL
MODEL 5
REMARK VINA RESULT:    -9.716      4.112      6.220
REMARK INTER + INTRA:         -13.483
REMARK INTER:                 -12.102
REMARK INTRA:                  -1.380
REMARK CONF_INDEPENDENT:        2.386
REMARK UNBOUND:                -1.380
REMARK  8 active torsions:
REMARK  status: ('A' for Active; 'I' for Inactive)
REMARK    1  A    between atoms: C_2  and  C_3 
REMARK       I    between atoms: C_3  and  N_5 
REMARK    2  A    between atoms: N_5  and  C_6 
REMARK    3  A    between atoms: C_10  and  N_11 
REMARK    4  A    between atoms: N_11  and  C_12 
REMARK    5  A    between atoms: C_12  and  C_13 
REMARK       I    between atoms: C_13  and  N_15 
REMARK    6  A    between atoms: N_15  and  C_16 
REMARK    7  A    between atoms: C_19  and  N_20 
REMARK       I    between atoms: N_20  and  C_21 
REMARK    8  A    between atoms: C_21  and  C_23 
ROOT
ATOM      1  C   UNL d   1      28.483 -15.829  -2.141  0.00  0.00     0.239 C 
ATOM      2  O   UNL d   1      28.661 -16.983  -2.542  0.00  0.00    -0.271 OA
ATOM      3  N   UNL d   1      27.307 -15.379  -1.538  0.00  0.00    -0.326 N 
ATOM      4  H   UNL d   1      27.151 -14.387  -1.403  0.00  0.00     0.169 HD
ENDROOT
BRANCH   3   5
ATOM      5  C   UNL d   1      26.263 -16.267  -1.188  0.00  0.00     0.034 A 
ATOM      6  C   UNL d   1      26.364 -17.159  -0.115  0.00  0.00     0.032 A 
ATOM      7  C   UNL d   1      25.297 -18.048   0.180  0.00  0.00     0.032 A 
ATOM      8  C   UNL d   1      24.119 -18.033  -0.583  0.00  0.00     0.035 A 
ATOM      9  C   UNL d   1      24.074 -17.166  -1.672  0.00  0.00     0.032 A 
ATOM     10  C   UNL d   1      25.115 -16.294  -1.964  0.00  0.00     0.032 A 
BRANCH   8  11
ATOM     11  N   UNL d   1      23.000 -18.847  -0.234  0.00  0.00    -0.323 N 
ATOM     12  C   UNL d   1      21.671 -18.492  -0.447  0.00  0.00     0.256 C 
ATOM     13  O   UNL d   1      21.259 -17.459  -0.990  0.00  0.00    -0.267 OA
ATOM     14  H   UNL d   1      23.194 -19.732   0.218  0.00  0.00     0.169 HD
BRANCH  12  15
ATOM     15  C   UNL d   1      20.600 -19.399   0.011  0.00  0.00     0.032 A 
ATOM     16  C   UNL d   1      19.570 -19.703  -0.896  0.00  0.00     0.017 A 
ATOM     17  C   UNL d   1      18.413 -20.347  -0.464  0.00  0.00     0.002 A 
ATOM     18  C   UNL d   1      18.303 -20.741   0.865  0.00  0.00     0.007 A 
ATOM     19  C   UNL d   1      19.322 -20.442   1.782  0.00  0.00    -0.061 A 
ATOM     20  C   UNL d   1      19.156 -20.779   3.233  0.00  0.00     0.048 C 
ATOM     21  C   UNL d   1      20.474 -19.764   1.352  0.00  0.00     0.023 A 
ENDBRANCH  12  15
ENDBRANCH   8  11
ENDBRANCH   3   5
BRANCH   1  22
ATOM     22  C   UNL d   1      29.568 -14.771  -2.348  0.00  0.00     0.223 C 
BRANCH  22  23
ATOM     23  N   UNL d   1      30.128 -14.367  -1.050  0.00  0.00    -0.381 N 
ATOM     24  H   UNL d   1      31.144 -14.365  -0.988  0.00  0.00     0.160 HD
BRANCH  23  25
ATOM     25  C   UNL d   1      29.357 -13.869  -0.023  0.00  0.00     0.030 A 
ATOM     26  C   UNL d   1      28.411 -12.867  -0.235  0.00  0.00     0.029 A 
ATOM     27  C   UNL d   1      27.603 -12.410   0.818  0.00  0.00     0.004 A 
ATOM     28  C   UNL d   1      27.748 -12.938   2.109  0.00  0.00     0.029 A 
ATOM     29  C   UNL d   1      28.687 -13.939   2.337  0.00  0.00     0.036 A 
ATOM     30  C   UNL d   1      29.487 -14.364   1.274  0.00  0.00     0.058 A 
BRANCH  29  31
ATOM     31  N   UNL d   1      28.784 -14.602   3.585  0.00  0.00    -0.327 N 
ATOM     32  C   UNL d   1      28.207 -14.097   4.743  0.00  0.00     0.221 C 
ATOM     33  O   UNL d   1      27.435 -13.137   4.768  0.00  0.00    -0.273 OA
ATOM     34  H   UNL d   1      29.284 -15.481   3.605  0.00  0.00     0.169 HD
BRANCH  32  35
ATOM     35  C   UNL d   1      28.562 -14.826   6.027  0.00  0.00     0.098 C 
ATOM     36  C   UNL d   1      28.900 -13.804   7.112  0.00  0.00     0.014 C 
ENDBRANCH  32  35
ENDBRANCH  29  31
ENDBRANCH  23  25
ENDBRANCH  22  23
ENDBRANCH   1  22
TORSDOF 8
ENDMDL
MODEL 6
REMARK VINA RESULT:    -9.682      3.350      6.615
REMARK INTER + INTRA:         -13.405
REMARK INTER:                 -12.068
REMARK INTRA:                  -1.337
REMARK CONF_INDEPENDENT:        2.386
REMARK UNBOUND:                -1.337
REMARK  8 active torsions:
REMARK  status: ('A' for Active; 'I' for Inactive)
REMARK    1  A    between atoms: C_2  and  C_3 
REMARK       I    between atoms: C_3  and  N_5 
REMARK    2  A    between atoms: N_5  and  C_6 
REMARK    3  A    between atoms: C_10  and  N_11 
REMARK    4  A    between atoms: N_11  and  C_12 
REMARK    5  A    between atoms: C_12  and  C_13 
REMARK       I    between atoms: C_13  and  N_15 
REMARK    6  A    between atoms: N_15  and  C_16 
REMARK    7  A    between atoms: C_19  and  N_20 
REMARK       I    between atoms: N_20  and  C_21 
REMARK    8  A    between atoms: C_21  and  C_23 
ROOT
ATOM      1  C   UNL d   1      26.575 -14.982  -3.766  0.00  0.00     0.239 C 
ATOM      2  O   UNL d   1      25.542 -15.091  -4.433  0.00  0.00    -0.271 OA
ATOM      3  N   UNL d   1      26.695 -15.375  -2.432  0.00  0.00    -0.326 N 
ATOM      4  H   UNL d   1      27.500 -15.091  -1.887  0.00  0.00     0.169 HD
ENDROOT
BRANCH   3   5
ATOM      5  C   UNL d   1      25.667 -16.088  -1.771  0.00  0.00     0.034 A 
ATOM      6  C   UNL d   1      25.913 -17.248  -1.030  0.00  0.00     0.032 A 
ATOM      7  C   UNL d   1      24.843 -17.941  -0.406  0.00  0.00     0.032 A 
ATOM      8  C   UNL d   1      23.526 -17.464  -0.504  0.00  0.00     0.035 A 
ATOM      9  C   UNL d   1      23.312 -16.335  -1.290  0.00  0.00     0.032 A 
ATOM     10  C   UNL d   1      24.357 -15.654  -1.901  0.00  0.00     0.032 A 
BRANCH   8  11
ATOM     11  N   UNL d   1      22.457 -18.092   0.203  0.00  0.00    -0.323 N 
ATOM     12  C   UNL d   1      21.450 -18.842  -0.397  0.00  0.00     0.256 C 
ATOM     13  O   UNL d   1      21.343 -19.109  -1.601  0.00  0.00    -0.267 OA
ATOM     14  H   UNL d   1      22.424 -17.959   1.207  0.00  0.00     0.169 HD
BRANCH  12  15
ATOM     15  C   UNL d   1      20.365 -19.394   0.439  0.00  0.00     0.032 A 
ATOM     16  C   UNL d   1      20.559 -19.410   1.831  0.00  0.00     0.017 A 
ATOM     17  C   UNL d   1      19.697 -20.127   2.657  0.00  0.00     0.002 A 
ATOM     18  C   UNL d   1      18.604 -20.786   2.103  0.00  0.00     0.007 A 
ATOM     19  C   UNL d   1      18.401 -20.780   0.715  0.00  0.00    -0.061 A 
ATOM     20  C   UNL d   1      17.281 -21.573   0.112  0.00  0.00     0.048 C 
ATOM     21  C   UNL d   1      19.289 -20.083  -0.120  0.00  0.00     0.023 A 
ENDBRANCH  12  15
ENDBRANCH   8  11
ENDBRANCH   3   5
BRANCH   1  22
ATOM     22  C   UNL d   1      27.815 -14.328  -4.377  0.00  0.00     0.223 C 
BRANCH  22  23
ATOM     23  N   UNL d   1      28.366 -13.332  -3.447  0.00  0.00    -0.381 N 
ATOM     24  H   UNL d   1      29.284 -13.546  -3.063  0.00  0.00     0.160 HD
BRANCH  23  25
ATOM     25  C   UNL d   1      27.772 -12.111  -3.216  0.00  0.00     0.030 A 
ATOM     26  C   UNL d   1      28.177 -11.284  -2.168  0.00  0.00     0.029 A 
ATOM     27  C   UNL d   1      27.590 -10.023  -1.982  0.00  0.00     0.004 A 
ATOM     28  C   UNL d   1      26.569  -9.579  -2.834  0.00  0.00     0.029 A 
ATOM     29  C   UNL d   1      26.154 -10.391  -3.886  0.00  0.00     0.036 A 
ATOM     30  C   UNL d   1      26.745 -11.647  -4.038  0.00  0.00     0.058 A 
BRANCH  29  31
ATOM     31  N   UNL d   1      25.224  -9.941  -4.855  0.00  0.00    -0.327 N 
ATOM     32  C   UNL d   1      25.134  -8.609  -5.238  0.00  0.00     0.221 C 
ATOM     33  O   UNL d   1      25.938  -7.738  -4.904  0.00  0.00    -0.273 OA
ATOM     34  H   UNL d   1      24.627 -10.637  -5.282  0.00  0.00     0.169 HD
BRANCH  32  35
ATOM     35  C   UNL d   1      23.965  -8.263  -6.143  0.00  0.00     0.098 C 
ATOM     36  C   UNL d   1      22.909  -7.504  -5.339  0.00  0.00     0.014 C 
ENDBRANCH  32  35
ENDBRANCH  29  31
ENDBRANCH  23  25
ENDBRANCH  22  23
ENDBRANCH   1  22
TORSDOF 8
ENDMDL
MODEL 7
REMARK VINA RESULT:    -9.349      2.084      2.617
REMARK INTER + INTRA:         -13.245
REMARK INTER:                 -11.736
REMARK INTRA:                  -1.510
REMARK CONF_INDEPENDENT:        2.386
REMARK UNBOUND:                -1.510
REMARK  8 active torsions:
REMARK  status: ('A' for Active; 'I' for Inactive)
REMARK    1  A    between atoms: C_2  and  C_3 
REMARK       I    between atoms: C_3  and  N_5 
REMARK    2  A    between atoms: N_5  and  C_6 
REMARK    3  A    between atoms: C_10  and  N_11 
REMARK    4  A    between atoms: N_11  and  C_12 
REMARK    5  A    between atoms: C_12  and  C_13 
REMARK       I    between atoms: C_13  and  N_15 
REMARK    6  A    between atoms: N_15  and  C_16 
REMARK    7  A    between atoms: C_19  and  N_20 
REMARK       I    between atoms: N_20  and  C_21 
REMARK    8  A    between atoms: C_21  and  C_23 
ROOT
ATOM      1  C   UNL d   1      29.039 -16.339  -1.457  0.00  0.00     0.239 C 
ATOM      2  O   UNL d   1      29.238 -17.542  -1.265  0.00  0.00    -0.271 OA
ATOM      3  N   UNL d   1      27.773 -15.751  -1.519  0.00  0.00    -0.326 N 
ATOM      4  H   UNL d   1      27.668 -14.805  -1.863  0.00  0.00     0.169 HD
ENDROOT
BRANCH   3   5
ATOM      5  C   UNL d   1      26.600 -16.476  -1.204  0.00  0.00     0.034 A 
ATOM      6  C   UNL d   1      25.404 -16.314  -1.910  0.00  0.00     0.032 A 
ATOM      7  C   UNL d   1      24.247 -17.048  -1.539  0.00  0.00     0.032 A 
ATOM      8  C   UNL d   1      24.289 -17.962  -0.474  0.00  0.00     0.035 A 
ATOM      9  C   UNL d   1      25.482 -18.061   0.237  0.00  0.00     0.032 A 
ATOM     10  C   UNL d   1      26.617 -17.345  -0.124  0.00  0.00     0.032 A 
BRANCH   8  11
ATOM     11  N   UNL d   1      23.164 -18.781  -0.156  0.00  0.00    -0.323 N 
ATOM     12  C   UNL d   1      21.839 -18.417  -0.373  0.00  0.00     0.256 C 
ATOM     13  O   UNL d   1      21.435 -17.370  -0.895  0.00  0.00    -0.267 OA
ATOM     14  H   UNL d   1      23.352 -19.678   0.277  0.00  0.00     0.169 HD
BRANCH  12  15
ATOM     15  C   UNL d   1      20.761 -19.332   0.053  0.00  0.00     0.032 A 
ATOM     16  C   UNL d   1      19.790 -19.684  -0.900  0.00  0.00     0.017 A 
ATOM     17  C   UNL d   1      18.623 -20.338  -0.513  0.00  0.00     0.002 A 
ATOM     18  C   UNL d   1      18.445 -20.695   0.819  0.00  0.00     0.007 A 
ATOM     19  C   UNL d   1      19.405 -20.347   1.781  0.00  0.00    -0.061 A 
ATOM     20  C   UNL d   1      19.164 -20.643   3.231  0.00  0.00     0.048 C 
ATOM     21  C   UNL d   1      20.566 -19.659   1.395  0.00  0.00     0.023 A 
ENDBRANCH  12  15
ENDBRANCH   8  11
ENDBRANCH   3   5
BRANCH   1  22
ATOM     22  C   UNL d   1      30.218 -15.398  -1.707  0.00  0.00     0.223 C 
BRANCH  22  23
ATOM     23  N   UNL d   1      29.798 -14.285  -2.570  0.00  0.00    -0.381 N 
ATOM     24  H   UNL d   1      30.068 -13.356  -2.256  0.00  0.00     0.160 HD
BRANCH  23  25
ATOM     25  C   UNL d   1      29.216 -14.472  -3.804  0.00  0.00     0.030 A 
ATOM     26  C   UNL d   1      27.981 -13.908  -4.125  0.00  0.00     0.029 A 
ATOM     27  C   UNL d   1      27.429 -14.070  -5.406  0.00  0.00     0.004 A 
ATOM     28  C   UNL d   1      28.100 -14.822  -6.380  0.00  0.00     0.029 A 
ATOM     29  C   UNL d   1      29.334 -15.391  -6.076  0.00  0.00     0.036 A 
ATOM     30  C   UNL d   1      29.851 -15.225  -4.790  0.00  0.00     0.058 A 
BRANCH  29  31
ATOM     31  N   UNL d   1      30.117 -16.046  -7.059  0.00  0.00    -0.327 N 
ATOM     32  C   UNL d   1      30.669 -17.303  -6.855  0.00  0.00     0.221 C 
ATOM     33  O   UNL d   1      30.406 -18.026  -5.893  0.00  0.00    -0.273 OA
ATOM     34  H   UNL d   1      30.250 -15.566  -7.940  0.00  0.00     0.169 HD
BRANCH  32  35
ATOM     35  C   UNL d   1      31.632 -17.780  -7.927  0.00  0.00     0.098 C 
ATOM     36  C   UNL d   1      31.153 -19.124  -8.478  0.00  0.00     0.014 C 
ENDBRANCH  32  35
ENDBRANCH  29  31
ENDBRANCH  23  25
ENDBRANCH  22  23
ENDBRANCH   1  22
TORSDOF 8
ENDMDL
MODEL 8
REMARK VINA RESULT:    -9.205      2.613      4.516
REMARK INTER + INTRA:         -13.889
REMARK INTER:                 -11.591
REMARK INTRA:                  -2.298
REMARK CONF_INDEPENDENT:        2.386
REMARK UNBOUND:                -2.298
REMARK  8 active torsions:
REMARK  status: ('A' for Active; 'I' for Inactive)
REMARK    1  A    between atoms: C_2  and  C_3 
REMARK       I    between atoms: C_3  and  N_5 
REMARK    2  A    between atoms: N_5  and  C_6 
REMARK    3  A    between atoms: C_10  and  N_11 
REMARK    4  A    between atoms: N_11  and  C_12 
REMARK    5  A    between atoms: C_12  and  C_13 
REMARK       I    between atoms: C_13  and  N_15 
REMARK    6  A    between atoms: N_15  and  C_16 
REMARK    7  A    between atoms: C_19  and  N_20 
REMARK       I    between atoms: N_20  and  C_21 
REMARK    8  A    between atoms: C_21  and  C_23 
ROOT
ATOM      1  C   UNL d   1      26.328 -14.803  -3.411  0.00  0.00     0.239 C 
ATOM      2  O   UNL d   1      25.539 -15.278  -4.233  0.00  0.00    -0.271 OA
ATOM      3  N   UNL d   1      26.246 -15.009  -2.033  0.00  0.00    -0.326 N 
ATOM      4  H   UNL d   1      26.803 -14.447  -1.400  0.00  0.00     0.169 HD
ENDROOT
BRANCH   3   5
ATOM      5  C   UNL d   1      25.325 -15.923  -1.470  0.00  0.00     0.034 A 
ATOM      6  C   UNL d   1      25.731 -17.073  -0.785  0.00  0.00     0.032 A 
ATOM      7  C   UNL d   1      24.766 -17.973  -0.260  0.00  0.00     0.032 A 
ATOM      8  C   UNL d   1      23.393 -17.714  -0.400  0.00  0.00     0.035 A 
ATOM      9  C   UNL d   1      23.027 -16.586  -1.130  0.00  0.00     0.032 A 
ATOM     10  C   UNL d   1      23.968 -15.703  -1.644  0.00  0.00     0.032 A 
BRANCH   8  11
ATOM     11  N   UNL d   1      22.415 -18.554   0.211  0.00  0.00    -0.323 N 
ATOM     12  C   UNL d   1      21.309 -19.083  -0.448  0.00  0.00     0.256 C 
ATOM     13  O   UNL d   1      21.024 -18.944  -1.644  0.00  0.00    -0.267 OA
ATOM     14  H   UNL d   1      22.529 -18.756   1.197  0.00  0.00     0.169 HD
BRANCH  12  15
ATOM     15  C   UNL d   1      20.337 -19.894   0.312  0.00  0.00     0.032 A 
ATOM     16  C   UNL d   1      19.152 -20.274  -0.342  0.00  0.00     0.017 A 
ATOM     17  C   UNL d   1      18.093 -20.825   0.375  0.00  0.00     0.002 A 
ATOM     18  C   UNL d   1      18.232 -21.050   1.740  0.00  0.00     0.007 A 
ATOM     19  C   UNL d   1      19.407 -20.673   2.406  0.00  0.00    -0.061 A 
ATOM     20  C   UNL d   1      19.516 -20.825   3.893  0.00  0.00     0.048 C 
ATOM     21  C   UNL d   1      20.463 -20.089   1.687  0.00  0.00     0.023 A 
ENDBRANCH  12  15
ENDBRANCH   8  11
ENDBRANCH   3   5
BRANCH   1  22
ATOM     22  C   UNL d   1      27.453 -13.878  -3.877  0.00  0.00     0.223 C 
BRANCH  22  23
ATOM     23  N   UNL d   1      28.746 -14.570  -3.778  0.00  0.00    -0.381 N 
ATOM     24  H   UNL d   1      29.440 -14.314  -4.477  0.00  0.00     0.160 HD
BRANCH  23  25
ATOM     25  C   UNL d   1      29.075 -15.399  -2.728  0.00  0.00     0.030 A 
ATOM     26  C   UNL d   1      29.601 -16.674  -2.936  0.00  0.00     0.029 A 
ATOM     27  C   UNL d   1      29.975 -17.481  -1.850  0.00  0.00     0.004 A 
ATOM     28  C   UNL d   1      29.805 -17.028  -0.535  0.00  0.00     0.029 A 
ATOM     29  C   UNL d   1      29.282 -15.758  -0.309  0.00  0.00     0.036 A 
ATOM     30  C   UNL d   1      28.906 -14.983  -1.408  0.00  0.00     0.058 A 
BRANCH  29  31
ATOM     31  N   UNL d   1      29.214 -15.198   0.990  0.00  0.00    -0.327 N 
ATOM     32  C   UNL d   1      28.308 -14.200   1.324  0.00  0.00     0.221 C 
ATOM     33  O   UNL d   1      27.389 -13.829   0.593  0.00  0.00    -0.273 OA
ATOM     34  H   UNL d   1      29.848 -15.567   1.687  0.00  0.00     0.169 HD
BRANCH  32  35
ATOM     35  C   UNL d   1      28.490 -13.579   2.698  0.00  0.00     0.098 C 
ATOM     36  C   UNL d   1      27.779 -14.440   3.742  0.00  0.00     0.014 C 
ENDBRANCH  32  35
ENDBRANCH  29  31
ENDBRANCH  23  25
ENDBRANCH  22  23
ENDBRANCH   1  22
TORSDOF 8
ENDMDL
MODEL 9
REMARK VINA RESULT:    -9.179      2.429      3.151
REMARK INTER + INTRA:         -13.276
REMARK INTER:                 -11.565
REMARK INTRA:                  -1.711
REMARK CONF_INDEPENDENT:        2.386
REMARK UNBOUND:                -1.711
REMARK  8 active torsions:
REMARK  status: ('A' for Active; 'I' for Inactive)
REMARK    1  A    between atoms: C_2  and  C_3 
REMARK       I    between atoms: C_3  and  N_5 
REMARK    2  A    between atoms: N_5  and  C_6 
REMARK    3  A    between atoms: C_10  and  N_11 
REMARK    4  A    between atoms: N_11  and  C_12 
REMARK    5  A    between atoms: C_12  and  C_13 
REMARK       I    between atoms: C_13  and  N_15 
REMARK    6  A    between atoms: N_15  and  C_16 
REMARK    7  A    between atoms: C_19  and  N_20 
REMARK       I    between atoms: N_20  and  C_21 
REMARK    8  A    between atoms: C_21  and  C_23 
ROOT
ATOM      1  C   UNL d   1      26.602 -15.236  -4.037  0.00  0.00     0.239 C 
ATOM      2  O   UNL d   1      25.531 -15.113  -4.638  0.00  0.00    -0.271 OA
ATOM      3  N   UNL d   1      26.719 -15.697  -2.724  0.00  0.00    -0.326 N 
ATOM      4  H   UNL d   1      27.594 -15.598  -2.226  0.00  0.00     0.169 HD
ENDROOT
BRANCH   3   5
ATOM      5  C   UNL d   1      25.610 -16.219  -2.018  0.00  0.00     0.034 A 
ATOM      6  C   UNL d   1      24.359 -15.593  -2.013  0.00  0.00     0.032 A 
ATOM      7  C   UNL d   1      23.284 -16.145  -1.269  0.00  0.00     0.032 A 
ATOM      8  C   UNL d   1      23.450 -17.335  -0.544  0.00  0.00     0.035 A 
ATOM      9  C   UNL d   1      24.721 -17.904  -0.532  0.00  0.00     0.032 A 
ATOM     10  C   UNL d   1      25.776 -17.368  -1.260  0.00  0.00     0.032 A 
BRANCH   8  11
ATOM     11  N   UNL d   1      22.352 -17.956   0.124  0.00  0.00    -0.323 N 
ATOM     12  C   UNL d   1      21.483 -18.866  -0.469  0.00  0.00     0.256 C 
ATOM     13  O   UNL d   1      21.541 -19.300  -1.627  0.00  0.00    -0.267 OA
ATOM     14  H   UNL d   1      22.189 -17.694   1.089  0.00  0.00     0.169 HD
BRANCH  12  15
ATOM     15  C   UNL d   1      20.348 -19.396   0.314  0.00  0.00     0.032 A 
ATOM     16  C   UNL d   1      20.459 -19.381   1.715  0.00  0.00     0.017 A 
ATOM     17  C   UNL d   1      19.547 -20.077   2.505  0.00  0.00     0.002 A 
ATOM     18  C   UNL d   1      18.487 -20.745   1.902  0.00  0.00     0.007 A 
ATOM     19  C   UNL d   1      18.365 -20.770   0.505  0.00  0.00    -0.061 A 
ATOM     20  C   UNL d   1      17.280 -21.573  -0.145  0.00  0.00     0.048 C 
ATOM     21  C   UNL d   1      19.304 -20.094  -0.292  0.00  0.00     0.023 A 
ENDBRANCH  12  15
ENDBRANCH   8  11
ENDBRANCH   3   5
BRANCH   1  22
ATOM     22  C   UNL d   1      27.909 -14.815  -4.710  0.00  0.00     0.223 C 
BRANCH  22  23
ATOM     23  N   UNL d   1      27.627 -14.214  -6.021  0.00  0.00    -0.381 N 
ATOM     24  H   UNL d   1      26.643 -14.084  -6.246  0.00  0.00     0.160 HD
BRANCH  23  25
ATOM     25  C   UNL d   1      28.611 -13.709  -6.843  0.00  0.00     0.030 A 
ATOM     26  C   UNL d   1      28.400 -12.575  -7.628  0.00  0.00     0.029 A 
ATOM     27  C   UNL d   1      29.433 -12.050  -8.420  0.00  0.00     0.004 A 
ATOM     28  C   UNL d   1      30.690 -12.670  -8.455  0.00  0.00     0.029 A 
ATOM     29  C   UNL d   1      30.916 -13.802  -7.677  0.00  0.00     0.036 A 
ATOM     30  C   UNL d   1      29.867 -14.310  -6.910  0.00  0.00     0.058 A 
BRANCH  29  31
ATOM     31  N   UNL d   1      32.201 -14.389  -7.569  0.00  0.00    -0.327 N 
ATOM     32  C   UNL d   1      32.388 -15.763  -7.497  0.00  0.00     0.221 C 
ATOM     33  O   UNL d   1      31.496 -16.593  -7.679  0.00  0.00    -0.273 OA
ATOM     34  H   UNL d   1      32.997 -13.764  -7.563  0.00  0.00     0.169 HD
BRANCH  32  35
ATOM     35  C   UNL d   1      33.805 -16.219  -7.195  0.00  0.00     0.098 C 
ATOM     36  C   UNL d   1      33.900 -17.734  -7.382  0.00  0.00     0.014 C 
ENDBRANCH  32  35
ENDBRANCH  29  31
ENDBRANCH  23  25
ENDBRANCH  22  23
ENDBRANCH   1  22
TORSDOF 8
ENDMDL
