MODEL 1
REMARK VINA RESULT:   -26.448      0.000      0.000
REMARK INTER + INTRA:         -29.167
REMARK INTER:                 -28.238
REMARK INTRA:                  -0.929
REMARK CONF_INDEPENDENT:        1.790
REMARK UNBOUND:                -0.929
REMARK  6 active torsions:
REMARK  status: ('A' for Active; 'I' for Inactive)
REMARK    1  A    between atoms: C_2  and  C_3 
REMARK       I    between atoms: C_2  and  N_16 
REMARK    2  A    between atoms: C_3  and  C_4 
REMARK    3  A    between atoms: C_4  and  C_5 
REMARK    4  A    between atoms: C_7  and  C_8 
REMARK    5  A    between atoms: N_16  and  N_17 
REMARK       I    between atoms: N_17  and  C_18 
REMARK       I    between atoms: C_18  and  N_20 
REMARK    6  A    between atoms: N_20  and  C_21 
ROOT
ATOM      1  O   UNL d   1      24.740 -17.441  -2.796  0.00  0.00    -0.272 OA
ATOM      2  C   UNL d   1      25.124 -17.402  -1.627  0.00  0.00     0.236 C 
ATOM      3  N   UNL d   1      26.374 -16.908  -1.323  0.00  0.00    -0.266 N 
ATOM      4  H   UNL d   1      26.951 -16.573  -2.100  0.00  0.00     0.190 HD
ENDROOT
BRANCH   2   5
ATOM      5  C   UNL d   1      24.251 -17.893  -0.488  0.00  0.00     0.112 C 
BRANCH   5   6
ATOM      6  C   UNL d   1      23.011 -17.013  -0.286  0.00  0.00     0.098 C 
BRANCH   6   7
ATOM      7  C   UNL d   1      21.769 -17.823  -0.345  0.00  0.00     0.173 A 
ATOM      8  N   UNL d   1      21.309 -18.689   0.527  0.00  0.00    -0.204 NA
ATOM      9  C   UNL d   1      20.155 -19.133  -0.073  0.00  0.00     0.189 A 
ATOM     10  N   UNL d   1      19.905 -18.575  -1.270  0.00  0.00    -0.106 NA
ATOM     11  O   UNL d   1      20.973 -17.688  -1.445  0.00  0.00    -0.196 OA
BRANCH   9  12
ATOM     12  C   UNL d   1      19.294 -20.120   0.552  0.00  0.00     0.014 A 
ATOM     13  C   UNL d   1      19.456 -20.453   1.903  0.00  0.00     0.015 A 
ATOM     14  C   UNL d   1      18.667 -21.451   2.480  0.00  0.00     0.001 A 
ATOM     15  C   UNL d   1      17.671 -22.074   1.730  0.00  0.00     0.000 A 
ATOM     16  C   UNL d   1      17.487 -21.732   0.391  0.00  0.00     0.001 A 
ATOM     17  C   UNL d   1      18.299 -20.760  -0.199  0.00  0.00     0.015 A 
ENDBRANCH   9  12
ENDBRANCH   6   7
ENDBRANCH   5   6
ENDBRANCH   2   5
BRANCH   3  18
ATOM     18  N   UNL d   1      26.946 -16.786  -0.034  0.00  0.00    -0.249 N 
ATOM     19  C   UNL d   1      27.170 -15.510   0.473  0.00  0.00     0.335 C 
ATOM     20  O   UNL d   1      26.899 -14.493  -0.171  0.00  0.00    -0.246 OA
ATOM     21  N   UNL d   1      27.715 -15.489   1.747  0.00  0.00    -0.337 N 
ATOM     22  H   UNL d   1      27.978 -16.357   2.191  0.00  0.00     0.164 HD
ATOM     23  H   UNL d   1      27.173 -17.621   0.488  0.00  0.00     0.192 HD
BRANCH  21  24
ATOM     24  C   UNL d   1      28.053 -14.258   2.423  0.00  0.00     0.086 A 
ATOM     25  C   UNL d   1      26.977 -13.380   3.012  0.00  0.00     0.027 A 
ATOM     26  C   UNL d   1      27.933 -14.090   3.920  0.00  0.00     0.027 A 
ENDBRANCH  21  24
ENDBRANCH   3  18
TORSDOF 6
ENDMDL
MODEL 2
REMARK VINA RESULT:   -26.285      3.044      4.022
REMARK INTER + INTRA:         -29.322
REMARK INTER:                 -28.075
REMARK INTRA:                  -1.247
REMARK CONF_INDEPENDENT:        1.790
REMARK UNBOUND:                -1.247
REMARK  6 active torsions:
REMARK  status: ('A' for Active; 'I' for Inactive)
REMARK    1  A    between atoms: C_2  and  C_3 
REMARK       I    between atoms: C_2  and  N_16 
REMARK    2  A    between atoms: C_3  and  C_4 
REMARK    3  A    between atoms: C_4  and  C_5 
REMARK    4  A    between atoms: C_7  and  C_8 
REMARK    5  A    between atoms: N_16  and  N_17 
REMARK       I    between atoms: N_17  and  C_18 
REMARK       I    between atoms: C_18  and  N_20 
REMARK    6  A    between atoms: N_20  and  C_21 
ROOT
ATOM      1  O   UNL d   1      22.243 -15.932  -0.571  0.00  0.00    -0.272 OA
ATOM      2  C   UNL d   1      23.366 -16.257  -0.956  0.00  0.00     0.236 C 
ATOM      3  N   UNL d   1      24.035 -15.483  -1.879  0.00  0.00    -0.266 N 
ATOM      4  H   UNL d   1      23.566 -14.638  -2.215  0.00  0.00     0.190 HD
ENDROOT
BRANCH   2   5
ATOM      5  C   UNL d   1      24.051 -17.508  -0.438  0.00  0.00     0.112 C 
BRANCH   5   6
ATOM      6  C   UNL d   1      23.511 -18.782  -1.102  0.00  0.00     0.098 C 
BRANCH   6   7
ATOM      7  C   UNL d   1      22.057 -18.940  -0.843  0.00  0.00     0.173 A 
ATOM      8  N   UNL d   1      21.460 -19.667   0.071  0.00  0.00    -0.204 NA
ATOM      9  C   UNL d   1      20.129 -19.440  -0.190  0.00  0.00     0.189 A 
ATOM     10  N   UNL d   1      19.903 -18.613  -1.224  0.00  0.00    -0.106 NA
ATOM     11  O   UNL d   1      21.189 -18.265  -1.651  0.00  0.00    -0.196 OA
BRANCH   9  12
ATOM     12  C   UNL d   1      19.076 -20.050   0.600  0.00  0.00     0.014 A 
ATOM     13  C   UNL d   1      18.381 -21.168   0.119  0.00  0.00     0.015 A 
ATOM     14  C   UNL d   1      17.325 -21.709   0.856  0.00  0.00     0.001 A 
ATOM     15  C   UNL d   1      17.000 -21.179   2.103  0.00  0.00     0.000 A 
ATOM     16  C   UNL d   1      17.701 -20.081   2.600  0.00  0.00     0.001 A 
ATOM     17  C   UNL d   1      18.735 -19.515   1.849  0.00  0.00     0.015 A 
ENDBRANCH   9  12
ENDBRANCH   6   7
ENDBRANCH   5   6
ENDBRANCH   2   5
BRANCH   3  18
ATOM     18  N   UNL d   1      25.330 -15.719  -2.402  0.00  0.00    -0.249 N 
ATOM     19  C   UNL d   1      25.661 -15.150  -3.628  0.00  0.00     0.335 C 
ATOM     20  O   UNL d   1      24.861 -14.465  -4.270  0.00  0.00    -0.246 OA
ATOM     21  N   UNL d   1      26.953 -15.419  -4.052  0.00  0.00    -0.337 N 
ATOM     22  H   UNL d   1      27.534 -16.045  -3.512  0.00  0.00     0.164 HD
ATOM     23  H   UNL d   1      25.981 -16.285  -1.877  0.00  0.00     0.192 HD
BRANCH  21  24
ATOM     24  C   UNL d   1      27.466 -14.947  -5.317  0.00  0.00     0.086 A 
ATOM     25  C   UNL d   1      28.520 -13.870  -5.368  0.00  0.00     0.027 A 
ATOM     26  C   UNL d   1      28.863 -15.263  -5.799  0.00  0.00     0.027 A 
ENDBRANCH  21  24
ENDBRANCH   3  18
TORSDOF 6
ENDMDL
MODEL 3
REMARK VINA RESULT:   -23.886      1.706      2.009
REMARK INTER + INTRA:         -26.603
REMARK INTER:                 -25.676
REMARK INTRA:                  -0.927
REMARK CONF_INDEPENDENT:        1.790
REMARK UNBOUND:                -0.927
REMARK  6 active torsions:
REMARK  status: ('A' for Active; 'I' for Inactive)
REMARK    1  A    between atoms: C_2  and  C_3 
REMARK       I    between atoms: C_2  and  N_16 
REMARK    2  A    between atoms: C_3  and  C_4 
REMARK    3  A    between atoms: C_4  and  C_5 
REMARK    4  A    between atoms: C_7  and  C_8 
REMARK    5  A    between atoms: N_16  and  N_17 
REMARK       I    between atoms: N_17  and  C_18 
REMARK       I    between atoms: C_18  and  N_20 
REMARK    6  A    between atoms: N_20  and  C_21 
ROOT
ATOM      1  O   UNL d   1      22.460 -16.390  -0.923  0.00  0.00    -0.272 OA
ATOM      2  C   UNL d   1      23.664 -16.647  -0.911  0.00  0.00     0.236 C 
ATOM      3  N   UNL d   1      24.583 -15.688  -1.279  0.00  0.00    -0.266 N 
ATOM      4  H   UNL d   1      24.223 -14.769  -1.549  0.00  0.00     0.190 HD
ENDROOT
BRANCH   2   5
ATOM      5  C   UNL d   1      24.180 -18.013  -0.498  0.00  0.00     0.112 C 
BRANCH   5   6
ATOM      6  C   UNL d   1      23.472 -19.150  -1.246  0.00  0.00     0.098 C 
BRANCH   6   7
ATOM      7  C   UNL d   1      22.021 -19.169  -0.933  0.00  0.00     0.173 A 
ATOM      8  N   UNL d   1      21.380 -19.898  -0.049  0.00  0.00    -0.204 NA
ATOM      9  C   UNL d   1      20.075 -19.506  -0.231  0.00  0.00     0.189 A 
ATOM     10  N   UNL d   1      19.904 -18.579  -1.188  0.00  0.00    -0.106 NA
ATOM     11  O   UNL d   1      21.204 -18.341  -1.647  0.00  0.00    -0.196 OA
BRANCH   9  12
ATOM     12  C   UNL d   1      18.990 -20.059   0.558  0.00  0.00     0.014 A 
ATOM     13  C   UNL d   1      18.639 -19.488   1.788  0.00  0.00     0.015 A 
ATOM     14  C   UNL d   1      17.638 -20.065   2.572  0.00  0.00     0.001 A 
ATOM     15  C   UNL d   1      16.938 -21.176   2.103  0.00  0.00     0.000 A 
ATOM     16  C   UNL d   1      17.265 -21.738   0.869  0.00  0.00     0.001 A 
ATOM     17  C   UNL d   1      18.290 -21.183   0.099  0.00  0.00     0.015 A 
ENDBRANCH   9  12
ENDBRANCH   6   7
ENDBRANCH   5   6
ENDBRANCH   2   5
BRANCH   3  18
ATOM     18  N   UNL d   1      25.992 -15.830  -1.302  0.00  0.00    -0.249 N 
ATOM     19  C   UNL d   1      26.770 -14.775  -0.834  0.00  0.00     0.335 C 
ATOM     20  O   UNL d   1      26.270 -13.727  -0.418  0.00  0.00    -0.246 OA
ATOM     21  N   UNL d   1      28.135 -15.010  -0.877  0.00  0.00    -0.337 N 
ATOM     22  H   UNL d   1      28.481 -15.862  -1.295  0.00  0.00     0.164 HD
ATOM     23  H   UNL d   1      26.398 -16.686  -1.649  0.00  0.00     0.192 HD
BRANCH  21  24
ATOM     24  C   UNL d   1      29.103 -14.018  -0.470  0.00  0.00     0.086 A 
ATOM     25  C   UNL d   1      29.567 -13.936   0.963  0.00  0.00     0.027 A 
ATOM     26  C   UNL d   1      30.526 -14.372  -0.102  0.00  0.00     0.027 A 
ENDBRANCH  21  24
ENDBRANCH   3  18
TORSDOF 6
ENDMDL
