MODEL 1
REMARK VINA RESULT:    -8.733      0.000      0.000
REMARK INTER + INTRA:         -15.806
REMARK INTER:                 -11.716
REMARK INTRA:                  -4.090
REMARK CONF_INDEPENDENT:        2.983
REMARK UNBOUND:                -4.090
REMARK  10 active torsions:
REMARK  status: ('A' for Active; 'I' for Inactive)
REMARK    1  A    between atoms: C_5  and  N_6 
REMARK       I    between atoms: N_6  and  C_7 
REMARK    2  A    between atoms: C_18  and  N_6 
REMARK    3  A    between atoms: C_7  and  C_9 
REMARK    4  A    between atoms: C_12  and  C_13 
REMARK       I    between atoms: C_13  and  N_14 
REMARK    5  A    between atoms: C_16  and  N_17 
REMARK    6  A    between atoms: C_18  and  C_27 
REMARK    7  A    between atoms: C_18  and  C_19 
REMARK       I    between atoms: C_19  and  N_21 
REMARK    8  A    between atoms: N_21  and  C_22 
REMARK    9  A    between atoms: C_22  and  C_23 
REMARK   10  A    between atoms: C_23  and  C_24 
ROOT
ATOM      1  N   UNL d   1      28.977 -15.587  -1.086  0.00  0.00    -0.295 N 
ATOM      2  C   UNL d   1      29.277 -14.339  -0.391  0.00  0.00     0.269 C 
ATOM      3  O   UNL d   1      30.164 -13.602  -0.834  0.00  0.00    -0.266 OA
ENDROOT
BRANCH   1   4
ATOM      4  C   UNL d   1      27.805 -16.420  -0.845  0.00  0.00     0.039 C 
ATOM      5  C   UNL d   1      27.779 -17.464   0.076  0.00  0.00     0.030 C 
ATOM      6  C   UNL d   1      26.614 -18.150   0.418  0.00  0.00     0.009 C 
ATOM      7  C   UNL d   1      25.401 -17.775  -0.136  0.00  0.00    -0.056 C 
ATOM      8  C   UNL d   1      24.149 -18.519   0.174  0.00  0.00     0.049 C 
ATOM      9  C   UNL d   1      25.386 -16.754  -1.071  0.00  0.00    -0.054 C 
ATOM     10  C   UNL d   1      26.605 -16.234  -1.507  0.00  0.00     0.037 C 
ATOM     11  C   UNL d   1      24.116 -16.208  -1.645  0.00  0.00     0.049 C 
ENDBRANCH   1   4
BRANCH   1  12
ATOM     12  C   UNL d   1      29.860 -15.987  -2.278  0.00  0.00     0.218 C 
BRANCH  12  13
ATOM     13  C   UNL d   1      30.353 -17.470  -2.195  0.00  0.00    -0.026 A 
ATOM     14  C   UNL d   1      30.679 -18.127  -0.987  0.00  0.00     0.013 A 
ATOM     15  C   UNL d   1      31.203 -19.409  -0.906  0.00  0.00     0.043 A 
ATOM     16  C   UNL d   1      31.471 -20.079  -2.071  0.00  0.00     0.116 A 
ATOM     17  F   UNL d   1      32.048 -21.284  -2.002  0.00  0.00    -0.206 F 
ATOM     18  C   UNL d   1      31.200 -19.485  -3.300  0.00  0.00     0.043 A 
ATOM     19  C   UNL d   1      30.629 -18.196  -3.369  0.00  0.00     0.013 A 
ENDBRANCH  12  13
BRANCH  12  20
ATOM     20  C   UNL d   1      29.122 -15.469  -3.591  0.00  0.00     0.245 C 
ATOM     21  O   UNL d   1      28.720 -16.275  -4.439  0.00  0.00    -0.271 OA
ATOM     22  N   UNL d   1      28.943 -14.110  -3.826  0.00  0.00    -0.359 N 
ATOM     23  H   UNL d   1      28.740 -13.511  -3.042  0.00  0.00     0.162 HD
BRANCH  22  24
ATOM     24  C   UNL d   1      28.374 -13.628  -5.065  0.00  0.00     0.123 C 
BRANCH  24  25
ATOM     25  C   UNL d   1      26.908 -13.190  -4.917  0.00  0.00     0.023 C 
BRANCH  25  26
ATOM     26  C   UNL d   1      26.081 -14.252  -4.170  0.00  0.00    -0.021 C 
ATOM     27  C   UNL d   1      24.704 -13.703  -3.787  0.00  0.00     0.009 C 
ATOM     28  C   UNL d   1      25.904 -15.514  -5.014  0.00  0.00     0.009 C 
ENDBRANCH  25  26
ENDBRANCH  24  25
ENDBRANCH  22  24
ENDBRANCH  12  20
ENDBRANCH   1  12
BRANCH   2  29
ATOM     29  C   UNL d   1      28.590 -13.967   0.870  0.00  0.00     0.115 C 
ATOM     30  S   UNL d   1      27.030 -13.231   0.856  0.00  0.00     0.019 SA
ATOM     31  N   UNL d   1      26.695 -13.418   2.494  0.00  0.00    -0.203 NA
ATOM     32  C   UNL d   1      27.775 -13.935   3.098  0.00  0.00     0.155 C 
ATOM     33  C   UNL d   1      28.904 -14.185   2.205  0.00  0.00     0.065 C 
BRANCH  32  34
ATOM     34  C   UNL d   1      27.769 -14.389   4.520  0.00  0.00     0.270 C 
ATOM     35  N   UNL d   1      28.561 -15.449   4.887  0.00  0.00    -0.365 N 
ATOM     36  H   UNL d   1      29.148 -15.949   4.239  0.00  0.00     0.159 HD
ATOM     37  H   UNL d   1      28.535 -15.713   5.866  0.00  0.00     0.159 HD
ATOM     38  O   UNL d   1      27.148 -13.807   5.400  0.00  0.00    -0.266 OA
ENDBRANCH  32  34
BRANCH  33  39
ATOM     39  N   UNL d   1      30.040 -14.814   2.614  0.00  0.00    -0.299 NA
ATOM     40  H   UNL d   1      30.029 -15.128   3.595  0.00  0.00     0.124 HD
ATOM     41  H   UNL d   1      30.400 -15.575   2.042  0.00  0.00     0.124 HD
ENDBRANCH  33  39
ENDBRANCH   2  29
TORSDOF 10
ENDMDL
MODEL 2
REMARK VINA RESULT:    -8.701      3.412      5.215
REMARK INTER + INTRA:         -15.203
REMARK INTER:                 -11.684
REMARK INTRA:                  -3.519
REMARK CONF_INDEPENDENT:        2.983
REMARK UNBOUND:                -3.519
REMARK  10 active torsions:
REMARK  status: ('A' for Active; 'I' for Inactive)
REMARK    1  A    between atoms: C_5  and  N_6 
REMARK       I    between atoms: N_6  and  C_7 
REMARK    2  A    between atoms: C_18  and  N_6 
REMARK    3  A    between atoms: C_7  and  C_9 
REMARK    4  A    between atoms: C_12  and  C_13 
REMARK       I    between atoms: C_13  and  N_14 
REMARK    5  A    between atoms: C_16  and  N_17 
REMARK    6  A    between atoms: C_18  and  C_27 
REMARK    7  A    between atoms: C_18  and  C_19 
REMARK       I    between atoms: C_19  and  N_21 
REMARK    8  A    between atoms: N_21  and  C_22 
REMARK    9  A    between atoms: C_22  and  C_23 
REMARK   10  A    between atoms: C_23  and  C_24 
ROOT
ATOM      1  N   UNL d   1      26.805 -15.024  -1.182  0.00  0.00    -0.295 N 
ATOM      2  C   UNL d   1      27.094 -15.434   0.188  0.00  0.00     0.269 C 
ATOM      3  O   UNL d   1      26.886 -16.606   0.523  0.00  0.00    -0.266 OA
ENDROOT
BRANCH   1   4
ATOM      4  C   UNL d   1      27.234 -13.772  -1.790  0.00  0.00     0.039 C 
ATOM      5  C   UNL d   1      28.557 -13.492  -2.125  0.00  0.00     0.030 C 
ATOM      6  C   UNL d   1      28.937 -12.362  -2.850  0.00  0.00     0.009 C 
ATOM      7  C   UNL d   1      27.975 -11.478  -3.311  0.00  0.00    -0.056 C 
ATOM      8  C   UNL d   1      28.355 -10.241  -4.046  0.00  0.00     0.049 C 
ATOM      9  C   UNL d   1      26.650 -11.710  -2.983  0.00  0.00    -0.054 C 
ATOM     10  C   UNL d   1      26.355 -12.750  -2.102  0.00  0.00     0.037 C 
ATOM     11  C   UNL d   1      25.531 -10.873  -3.520  0.00  0.00     0.049 C 
ENDBRANCH   1   4
BRANCH   1  12
ATOM     12  C   UNL d   1      26.143 -16.043  -2.122  0.00  0.00     0.218 C 
BRANCH  12  13
ATOM     13  C   UNL d   1      24.873 -16.709  -1.494  0.00  0.00    -0.026 A 
ATOM     14  C   UNL d   1      23.653 -16.031  -1.275  0.00  0.00     0.013 A 
ATOM     15  C   UNL d   1      22.550 -16.582  -0.637  0.00  0.00     0.043 A 
ATOM     16  C   UNL d   1      22.654 -17.856  -0.142  0.00  0.00     0.116 A 
ATOM     17  F   UNL d   1      21.622 -18.365   0.541  0.00  0.00    -0.206 F 
ATOM     18  C   UNL d   1      23.834 -18.576  -0.298  0.00  0.00     0.043 A 
ATOM     19  C   UNL d   1      24.934 -18.019  -0.984  0.00  0.00     0.013 A 
ENDBRANCH  12  13
BRANCH  12  20
ATOM     20  C   UNL d   1      26.050 -15.354  -3.556  0.00  0.00     0.245 C 
ATOM     21  O   UNL d   1      24.995 -14.825  -3.925  0.00  0.00    -0.271 OA
ATOM     22  N   UNL d   1      27.134 -15.361  -4.426  0.00  0.00    -0.359 N 
ATOM     23  H   UNL d   1      28.059 -15.260  -4.041  0.00  0.00     0.162 HD
BRANCH  22  24
ATOM     24  C   UNL d   1      27.024 -14.835  -5.770  0.00  0.00     0.123 C 
BRANCH  24  25
ATOM     25  C   UNL d   1      27.615 -13.423  -5.907  0.00  0.00     0.023 C 
BRANCH  25  26
ATOM     26  C   UNL d   1      28.990 -13.458  -6.600  0.00  0.00    -0.021 C 
ATOM     27  C   UNL d   1      29.521 -14.891  -6.688  0.00  0.00     0.009 C 
ATOM     28  C   UNL d   1      28.919 -12.858  -8.004  0.00  0.00     0.009 C 
ENDBRANCH  25  26
ENDBRANCH  24  25
ENDBRANCH  22  24
ENDBRANCH  12  20
ENDBRANCH   1  12
BRANCH   2  29
ATOM     29  C   UNL d   1      27.568 -14.465   1.207  0.00  0.00     0.115 C 
ATOM     30  S   UNL d   1      26.519 -13.252   1.844  0.00  0.00     0.019 SA
ATOM     31  N   UNL d   1      27.497 -12.786   3.131  0.00  0.00    -0.203 NA
ATOM     32  C   UNL d   1      28.661 -13.446   3.049  0.00  0.00     0.155 C 
ATOM     33  C   UNL d   1      28.760 -14.357   1.910  0.00  0.00     0.065 C 
BRANCH  32  34
ATOM     34  C   UNL d   1      29.696 -13.401   4.123  0.00  0.00     0.270 C 
ATOM     35  N   UNL d   1      30.423 -14.532   4.401  0.00  0.00    -0.365 N 
ATOM     36  H   UNL d   1      30.289 -15.405   3.917  0.00  0.00     0.159 HD
ATOM     37  H   UNL d   1      31.124 -14.451   5.129  0.00  0.00     0.159 HD
ATOM     38  O   UNL d   1      29.988 -12.373   4.721  0.00  0.00    -0.266 OA
ENDBRANCH  32  34
BRANCH  33  39
ATOM     39  N   UNL d   1      29.816 -15.197   1.729  0.00  0.00    -0.299 NA
ATOM     40  H   UNL d   1      30.408 -15.328   2.562  0.00  0.00     0.124 HD
ATOM     41  H   UNL d   1      29.636 -16.111   1.319  0.00  0.00     0.124 HD
ENDBRANCH  33  39
ENDBRANCH   2  29
TORSDOF 10
ENDMDL
MODEL 3
REMARK VINA RESULT:    -8.434      3.288      5.620
REMARK INTER + INTRA:         -15.351
REMARK INTER:                 -11.417
REMARK INTRA:                  -3.934
REMARK CONF_INDEPENDENT:        2.983
REMARK UNBOUND:                -3.934
REMARK  10 active torsions:
REMARK  status: ('A' for Active; 'I' for Inactive)
REMARK    1  A    between atoms: C_5  and  N_6 
REMARK       I    between atoms: N_6  and  C_7 
REMARK    2  A    between atoms: C_18  and  N_6 
REMARK    3  A    between atoms: C_7  and  C_9 
REMARK    4  A    between atoms: C_12  and  C_13 
REMARK       I    between atoms: C_13  and  N_14 
REMARK    5  A    between atoms: C_16  and  N_17 
REMARK    6  A    between atoms: C_18  and  C_27 
REMARK    7  A    between atoms: C_18  and  C_19 
REMARK       I    between atoms: C_19  and  N_21 
REMARK    8  A    between atoms: N_21  and  C_22 
REMARK    9  A    between atoms: C_22  and  C_23 
REMARK   10  A    between atoms: C_23  and  C_24 
ROOT
ATOM      1  N   UNL d   1      27.081 -14.830  -2.595  0.00  0.00    -0.295 N 
ATOM      2  C   UNL d   1      28.309 -14.225  -2.088  0.00  0.00     0.269 C 
ATOM      3  O   UNL d   1      28.887 -13.374  -2.772  0.00  0.00    -0.266 OA
ENDROOT
BRANCH   1   4
ATOM      4  C   UNL d   1      26.159 -15.638  -1.808  0.00  0.00     0.039 C 
ATOM      5  C   UNL d   1      24.780 -15.649  -2.009  0.00  0.00     0.030 C 
ATOM      6  C   UNL d   1      23.923 -16.542  -1.365  0.00  0.00     0.009 C 
ATOM      7  C   UNL d   1      24.438 -17.502  -0.509  0.00  0.00    -0.056 C 
ATOM      8  C   UNL d   1      23.543 -18.436   0.228  0.00  0.00     0.049 C 
ATOM      9  C   UNL d   1      25.801 -17.512  -0.267  0.00  0.00    -0.054 C 
ATOM     10  C   UNL d   1      26.578 -16.481  -0.794  0.00  0.00     0.037 C 
ATOM     11  C   UNL d   1      26.463 -18.573   0.557  0.00  0.00     0.049 C 
ENDBRANCH   1   4
BRANCH   1  12
ATOM     12  C   UNL d   1      26.622 -14.465  -4.015  0.00  0.00     0.218 C 
BRANCH  12  13
ATOM     13  C   UNL d   1      26.261 -12.949  -4.163  0.00  0.00    -0.026 A 
ATOM     14  C   UNL d   1      26.255 -12.256  -5.395  0.00  0.00     0.013 A 
ATOM     15  C   UNL d   1      26.025 -10.894  -5.529  0.00  0.00     0.043 A 
ATOM     16  C   UNL d   1      25.836 -10.150  -4.395  0.00  0.00     0.116 A 
ATOM     17  F   UNL d   1      25.692  -8.825  -4.512  0.00  0.00    -0.206 F 
ATOM     18  C   UNL d   1      25.854 -10.760  -3.144  0.00  0.00     0.043 A 
ATOM     19  C   UNL d   1      26.048 -12.153  -3.023  0.00  0.00     0.013 A 
ENDBRANCH  12  13
BRANCH  12  20
ATOM     20  C   UNL d   1      27.661 -15.135  -5.020  0.00  0.00     0.245 C 
ATOM     21  O   UNL d   1      27.405 -15.200  -6.228  0.00  0.00    -0.271 OA
ATOM     22  N   UNL d   1      28.853 -15.684  -4.560  0.00  0.00    -0.359 N 
ATOM     23  H   UNL d   1      29.334 -15.222  -3.806  0.00  0.00     0.162 HD
BRANCH  22  24
ATOM     24  C   UNL d   1      29.749 -16.390  -5.449  0.00  0.00     0.123 C 
BRANCH  24  25
ATOM     25  C   UNL d   1      30.182 -17.757  -4.896  0.00  0.00     0.023 C 
BRANCH  25  26
ATOM     26  C   UNL d   1      30.973 -18.559  -5.945  0.00  0.00    -0.021 C 
ATOM     27  C   UNL d   1      30.405 -19.973  -6.095  0.00  0.00     0.009 C 
ATOM     28  C   UNL d   1      30.957 -17.862  -7.305  0.00  0.00     0.009 C 
ENDBRANCH  25  26
ENDBRANCH  24  25
ENDBRANCH  22  24
ENDBRANCH  12  20
ENDBRANCH   1  12
BRANCH   2  29
ATOM     29  C   UNL d   1      28.914 -14.654  -0.804  0.00  0.00     0.115 C 
ATOM     30  S   UNL d   1      29.894 -16.071  -0.705  0.00  0.00     0.019 SA
ATOM     31  N   UNL d   1      30.528 -15.781   0.825  0.00  0.00    -0.203 NA
ATOM     32  C   UNL d   1      29.946 -14.684   1.332  0.00  0.00     0.155 C 
ATOM     33  C   UNL d   1      28.959 -14.063   0.452  0.00  0.00     0.065 C 
BRANCH  32  34
ATOM     34  C   UNL d   1      30.394 -14.042   2.603  0.00  0.00     0.270 C 
ATOM     35  N   UNL d   1      30.925 -14.826   3.598  0.00  0.00    -0.365 N 
ATOM     36  H   UNL d   1      31.026 -15.824   3.518  0.00  0.00     0.159 HD
ATOM     37  H   UNL d   1      31.228 -14.345   4.438  0.00  0.00     0.159 HD
ATOM     38  O   UNL d   1      30.383 -12.830   2.775  0.00  0.00    -0.266 OA
ENDBRANCH  32  34
BRANCH  33  39
ATOM     39  N   UNL d   1      28.352 -12.880   0.745  0.00  0.00    -0.299 NA
ATOM     40  H   UNL d   1      28.779 -12.360   1.525  0.00  0.00     0.124 HD
ATOM     41  H   UNL d   1      28.182 -12.227  -0.017  0.00  0.00     0.124 HD
ENDBRANCH  33  39
ENDBRANCH   2  29
TORSDOF 10
ENDMDL
MODEL 4
REMARK VINA RESULT:    -8.071      2.372      4.803
REMARK INTER + INTRA:         -14.970
REMARK INTER:                 -11.054
REMARK INTRA:                  -3.916
REMARK CONF_INDEPENDENT:        2.983
REMARK UNBOUND:                -3.916
REMARK  10 active torsions:
REMARK  status: ('A' for Active; 'I' for Inactive)
REMARK    1  A    between atoms: C_5  and  N_6 
REMARK       I    between atoms: N_6  and  C_7 
REMARK    2  A    between atoms: C_18  and  N_6 
REMARK    3  A    between atoms: C_7  and  C_9 
REMARK    4  A    between atoms: C_12  and  C_13 
REMARK       I    between atoms: C_13  and  N_14 
REMARK    5  A    between atoms: C_16  and  N_17 
REMARK    6  A    between atoms: C_18  and  C_27 
REMARK    7  A    between atoms: C_18  and  C_19 
REMARK       I    between atoms: C_19  and  N_21 
REMARK    8  A    between atoms: N_21  and  C_22 
REMARK    9  A    between atoms: C_22  and  C_23 
REMARK   10  A    between atoms: C_23  and  C_24 
ROOT
ATOM      1  N   UNL d   1      28.526 -16.094  -1.288  0.00  0.00    -0.295 N 
ATOM      2  C   UNL d   1      29.022 -14.861  -0.685  0.00  0.00     0.269 C 
ATOM      3  O   UNL d   1      29.999 -14.296  -1.187  0.00  0.00    -0.266 OA
ENDROOT
BRANCH   1   4
ATOM      4  C   UNL d   1      27.250 -16.724  -0.977  0.00  0.00     0.039 C 
ATOM      5  C   UNL d   1      27.099 -17.729  -0.024  0.00  0.00     0.030 C 
ATOM      6  C   UNL d   1      25.855 -18.213   0.383  0.00  0.00     0.009 C 
ATOM      7  C   UNL d   1      24.694 -17.664  -0.135  0.00  0.00    -0.056 C 
ATOM      8  C   UNL d   1      23.355 -18.193   0.245  0.00  0.00     0.049 C 
ATOM      9  C   UNL d   1      24.801 -16.677  -1.100  0.00  0.00    -0.054 C 
ATOM     10  C   UNL d   1      26.066 -16.367  -1.598  0.00  0.00     0.037 C 
ATOM     11  C   UNL d   1      23.609 -15.950  -1.641  0.00  0.00     0.049 C 
ENDBRANCH   1   4
BRANCH   1  12
ATOM     12  C   UNL d   1      29.315 -16.700  -2.458  0.00  0.00     0.218 C 
BRANCH  12  13
ATOM     13  C   UNL d   1      29.003 -16.003  -3.824  0.00  0.00    -0.026 A 
ATOM     14  C   UNL d   1      29.782 -16.171  -4.992  0.00  0.00     0.013 A 
ATOM     15  C   UNL d   1      29.570 -15.490  -6.182  0.00  0.00     0.043 A 
ATOM     16  C   UNL d   1      28.570 -14.554  -6.229  0.00  0.00     0.116 A 
ATOM     17  F   UNL d   1      28.411 -13.840  -7.349  0.00  0.00    -0.206 F 
ATOM     18  C   UNL d   1      27.778 -14.317  -5.109  0.00  0.00     0.043 A 
ATOM     19  C   UNL d   1      27.977 -15.045  -3.917  0.00  0.00     0.013 A 
ENDBRANCH  12  13
BRANCH  12  20
ATOM     20  C   UNL d   1      30.824 -16.846  -1.968  0.00  0.00     0.245 C 
ATOM     21  O   UNL d   1      31.722 -17.094  -2.782  0.00  0.00    -0.271 OA
ATOM     22  N   UNL d   1      31.157 -16.730  -0.624  0.00  0.00    -0.359 N 
ATOM     23  H   UNL d   1      30.664 -16.052  -0.065  0.00  0.00     0.162 HD
BRANCH  22  24
ATOM     24  C   UNL d   1      32.505 -16.969  -0.158  0.00  0.00     0.123 C 
BRANCH  24  25
ATOM     25  C   UNL d   1      32.646 -18.298   0.602  0.00  0.00     0.023 C 
BRANCH  25  26
ATOM     26  C   UNL d   1      32.789 -18.063   2.117  0.00  0.00    -0.021 C 
ATOM     27  C   UNL d   1      34.186 -18.457   2.602  0.00  0.00     0.009 C 
ATOM     28  C   UNL d   1      32.522 -16.602   2.480  0.00  0.00     0.009 C 
ENDBRANCH  25  26
ENDBRANCH  24  25
ENDBRANCH  22  24
ENDBRANCH  12  20
ENDBRANCH   1  12
BRANCH   2  29
ATOM     29  C   UNL d   1      28.424 -14.306   0.554  0.00  0.00     0.115 C 
ATOM     30  S   UNL d   1      26.842 -13.617   0.554  0.00  0.00     0.019 SA
ATOM     31  N   UNL d   1      26.645 -13.546   2.223  0.00  0.00    -0.203 NA
ATOM     32  C   UNL d   1      27.787 -13.933   2.809  0.00  0.00     0.155 C 
ATOM     33  C   UNL d   1      28.851 -14.298   1.876  0.00  0.00     0.065 C 
BRANCH  32  34
ATOM     34  C   UNL d   1      27.911 -14.151   4.280  0.00  0.00     0.270 C 
ATOM     35  N   UNL d   1      28.717 -15.162   4.742  0.00  0.00    -0.365 N 
ATOM     36  H   UNL d   1      29.232 -15.777   4.133  0.00  0.00     0.159 HD
ATOM     37  H   UNL d   1      28.781 -15.264   5.748  0.00  0.00     0.159 HD
ATOM     38  O   UNL d   1      27.386 -13.417   5.107  0.00  0.00    -0.266 OA
ENDBRANCH  32  34
BRANCH  33  39
ATOM     39  N   UNL d   1      30.038 -14.826   2.283  0.00  0.00    -0.299 NA
ATOM     40  H   UNL d   1      30.072 -15.090   3.278  0.00  0.00     0.124 HD
ATOM     41  H   UNL d   1      30.436 -15.589   1.737  0.00  0.00     0.124 HD
ENDBRANCH  33  39
ENDBRANCH   2  29
TORSDOF 10
ENDMDL
MODEL 5
REMARK VINA RESULT:    -8.000      2.902      5.094
REMARK INTER + INTRA:         -15.539
REMARK INTER:                 -10.983
REMARK INTRA:                  -4.557
REMARK CONF_INDEPENDENT:        2.983
REMARK UNBOUND:                -4.557
REMARK  10 active torsions:
REMARK  status: ('A' for Active; 'I' for Inactive)
REMARK    1  A    between atoms: C_5  and  N_6 
REMARK       I    between atoms: N_6  and  C_7 
REMARK    2  A    between atoms: C_18  and  N_6 
REMARK    3  A    between atoms: C_7  and  C_9 
REMARK    4  A    between atoms: C_12  and  C_13 
REMARK       I    between atoms: C_13  and  N_14 
REMARK    5  A    between atoms: C_16  and  N_17 
REMARK    6  A    between atoms: C_18  and  C_27 
REMARK    7  A    between atoms: C_18  and  C_19 
REMARK       I    between atoms: C_19  and  N_21 
REMARK    8  A    between atoms: N_21  and  C_22 
REMARK    9  A    between atoms: C_22  and  C_23 
REMARK   10  A    between atoms: C_23  and  C_24 
ROOT
ATOM      1  N   UNL d   1      27.382 -15.211  -2.075  0.00  0.00    -0.295 N 
ATOM      2  C   UNL d   1      27.365 -14.363  -0.887  0.00  0.00     0.269 C 
ATOM      3  O   UNL d   1      26.281 -14.063  -0.377  0.00  0.00    -0.266 OA
ENDROOT
BRANCH   1   4
ATOM      4  C   UNL d   1      28.566 -15.855  -2.627  0.00  0.00     0.039 C 
ATOM      5  C   UNL d   1      29.351 -16.762  -1.919  0.00  0.00     0.030 C 
ATOM      6  C   UNL d   1      30.385 -17.495  -2.503  0.00  0.00     0.009 C 
ATOM      7  C   UNL d   1      30.643 -17.370  -3.858  0.00  0.00    -0.056 C 
ATOM      8  C   UNL d   1      31.770 -18.103  -4.498  0.00  0.00     0.049 C 
ATOM      9  C   UNL d   1      29.899 -16.464  -4.594  0.00  0.00    -0.054 C 
ATOM     10  C   UNL d   1      29.009 -15.630  -3.919  0.00  0.00     0.037 C 
ATOM     11  C   UNL d   1      30.032 -16.334  -6.080  0.00  0.00     0.049 C 
ENDBRANCH   1   4
BRANCH   1  12
ATOM     12  C   UNL d   1      26.039 -15.600  -2.709  0.00  0.00     0.218 C 
BRANCH  12  13
ATOM     13  C   UNL d   1      25.091 -16.345  -1.711  0.00  0.00    -0.026 A 
ATOM     14  C   UNL d   1      25.468 -17.486  -0.966  0.00  0.00     0.013 A 
ATOM     15  C   UNL d   1      24.612 -18.208  -0.147  0.00  0.00     0.043 A 
ATOM     16  C   UNL d   1      23.297 -17.828  -0.082  0.00  0.00     0.116 A 
ATOM     17  F   UNL d   1      22.450 -18.567   0.644  0.00  0.00    -0.206 F 
ATOM     18  C   UNL d   1      22.847 -16.729  -0.808  0.00  0.00     0.043 A 
ATOM     19  C   UNL d   1      23.736 -15.978  -1.605  0.00  0.00     0.013 A 
ENDBRANCH  12  13
BRANCH  12  20
ATOM     20  C   UNL d   1      25.513 -14.319  -3.496  0.00  0.00     0.245 C 
ATOM     21  O   UNL d   1      24.755 -14.450  -4.465  0.00  0.00    -0.271 OA
ATOM     22  N   UNL d   1      25.915 -13.039  -3.132  0.00  0.00    -0.359 N 
ATOM     23  H   UNL d   1      26.033 -12.833  -2.154  0.00  0.00     0.162 HD
BRANCH  22  24
ATOM     24  C   UNL d   1      25.530 -11.880  -3.908  0.00  0.00     0.123 C 
BRANCH  24  25
ATOM     25  C   UNL d   1      26.494 -11.594  -5.071  0.00  0.00     0.023 C 
BRANCH  25  26
ATOM     26  C   UNL d   1      27.645 -12.615  -5.106  0.00  0.00    -0.021 C 
ATOM     27  C   UNL d   1      28.117 -12.858  -6.541  0.00  0.00     0.009 C 
ATOM     28  C   UNL d   1      28.828 -12.147  -4.258  0.00  0.00     0.009 C 
ENDBRANCH  25  26
ENDBRANCH  24  25
ENDBRANCH  22  24
ENDBRANCH  12  20
ENDBRANCH   1  12
BRANCH   2  29
ATOM     29  C   UNL d   1      28.613 -13.798  -0.317  0.00  0.00     0.115 C 
ATOM     30  S   UNL d   1      29.027 -12.137  -0.538  0.00  0.00     0.019 SA
ATOM     31  N   UNL d   1      30.261 -12.076   0.602  0.00  0.00    -0.203 NA
ATOM     32  C   UNL d   1      30.458 -13.309   1.091  0.00  0.00     0.155 C 
ATOM     33  C   UNL d   1      29.581 -14.330   0.524  0.00  0.00     0.065 C 
BRANCH  32  34
ATOM     34  C   UNL d   1      31.363 -13.589   2.245  0.00  0.00     0.270 C 
ATOM     35  N   UNL d   1      31.061 -14.622   3.097  0.00  0.00    -0.365 N 
ATOM     36  H   UNL d   1      30.247 -15.205   2.989  0.00  0.00     0.159 HD
ATOM     37  H   UNL d   1      31.711 -14.784   3.858  0.00  0.00     0.159 HD
ATOM     38  O   UNL d   1      32.414 -12.988   2.426  0.00  0.00    -0.266 OA
ENDBRANCH  32  34
BRANCH  33  39
ATOM     39  N   UNL d   1      29.554 -15.613   0.980  0.00  0.00    -0.299 NA
ATOM     40  H   UNL d   1      30.449 -15.953   1.361  0.00  0.00     0.124 HD
ATOM     41  H   UNL d   1      28.813 -15.876   1.626  0.00  0.00     0.124 HD
ENDBRANCH  33  39
ENDBRANCH   2  29
TORSDOF 10
ENDMDL
MODEL 6
REMARK VINA RESULT:    -7.724      3.227      5.056
REMARK INTER + INTRA:         -15.165
REMARK INTER:                 -10.707
REMARK INTRA:                  -4.458
REMARK CONF_INDEPENDENT:        2.983
REMARK UNBOUND:                -4.458
REMARK  10 active torsions:
REMARK  status: ('A' for Active; 'I' for Inactive)
REMARK    1  A    between atoms: C_5  and  N_6 
REMARK       I    between atoms: N_6  and  C_7 
REMARK    2  A    between atoms: C_18  and  N_6 
REMARK    3  A    between atoms: C_7  and  C_9 
REMARK    4  A    between atoms: C_12  and  C_13 
REMARK       I    between atoms: C_13  and  N_14 
REMARK    5  A    between atoms: C_16  and  N_17 
REMARK    6  A    between atoms: C_18  and  C_27 
REMARK    7  A    between atoms: C_18  and  C_19 
REMARK       I    between atoms: C_19  and  N_21 
REMARK    8  A    between atoms: N_21  and  C_22 
REMARK    9  A    between atoms: C_22  and  C_23 
REMARK   10  A    between atoms: C_23  and  C_24 
ROOT
ATOM      1  N   UNL d   1      27.972 -15.601  -1.727  0.00  0.00    -0.295 N 
ATOM      2  C   UNL d   1      29.320 -15.806  -2.250  0.00  0.00     0.269 C 
ATOM      3  O   UNL d   1      29.462 -16.366  -3.342  0.00  0.00    -0.266 OA
ENDROOT
BRANCH   1   4
ATOM      4  C   UNL d   1      27.632 -14.739  -0.602  0.00  0.00     0.039 C 
ATOM      5  C   UNL d   1      27.572 -15.183   0.717  0.00  0.00     0.030 C 
ATOM      6  C   UNL d   1      27.405 -14.324   1.803  0.00  0.00     0.009 C 
ATOM      7  C   UNL d   1      27.334 -12.956   1.600  0.00  0.00    -0.056 C 
ATOM      8  C   UNL d   1      27.109 -12.019   2.736  0.00  0.00     0.049 C 
ATOM      9  C   UNL d   1      27.370 -12.475   0.303  0.00  0.00    -0.054 C 
ATOM     10  C   UNL d   1      27.350 -13.393  -0.747  0.00  0.00     0.037 C 
ATOM     11  C   UNL d   1      27.405 -11.012  -0.012  0.00  0.00     0.049 C 
ENDBRANCH   1   4
BRANCH   1  12
ATOM     12  C   UNL d   1      26.791 -16.197  -2.507  0.00  0.00     0.218 C 
BRANCH  12  13
ATOM     13  C   UNL d   1      25.606 -16.624  -1.578  0.00  0.00    -0.026 A 
ATOM     14  C   UNL d   1      25.633 -17.758  -0.735  0.00  0.00     0.013 A 
ATOM     15  C   UNL d   1      24.559 -18.199   0.025  0.00  0.00     0.043 A 
ATOM     16  C   UNL d   1      23.370 -17.525  -0.075  0.00  0.00     0.116 A 
ATOM     17  F   UNL d   1      22.310 -17.992   0.595  0.00  0.00    -0.206 F 
ATOM     18  C   UNL d   1      23.261 -16.414  -0.905  0.00  0.00     0.043 A 
ATOM     19  C   UNL d   1      24.372 -15.951  -1.641  0.00  0.00     0.013 A 
ENDBRANCH  12  13
BRANCH  12  20
ATOM     20  C   UNL d   1      26.520 -15.228  -3.743  0.00  0.00     0.245 C 
ATOM     21  O   UNL d   1      25.372 -14.835  -3.986  0.00  0.00    -0.271 OA
ATOM     22  N   UNL d   1      27.553 -14.832  -4.584  0.00  0.00    -0.359 N 
ATOM     23  H   UNL d   1      28.457 -14.651  -4.180  0.00  0.00     0.162 HD
BRANCH  22  24
ATOM     24  C   UNL d   1      27.298 -14.043  -5.770  0.00  0.00     0.123 C 
BRANCH  24  25
ATOM     25  C   UNL d   1      27.443 -12.533  -5.524  0.00  0.00     0.023 C 
BRANCH  25  26
ATOM     26  C   UNL d   1      26.123 -11.921  -5.019  0.00  0.00    -0.021 C 
ATOM     27  C   UNL d   1      26.163 -11.708  -3.504  0.00  0.00     0.009 C 
ATOM     28  C   UNL d   1      25.830 -10.588  -5.708  0.00  0.00     0.009 C 
ENDBRANCH  25  26
ENDBRANCH  24  25
ENDBRANCH  22  24
ENDBRANCH  12  20
ENDBRANCH   1  12
BRANCH   2  29
ATOM     29  C   UNL d   1      30.522 -15.419  -1.473  0.00  0.00     0.115 C 
ATOM     30  S   UNL d   1      31.619 -14.222  -2.057  0.00  0.00     0.019 SA
ATOM     31  N   UNL d   1      32.473 -14.003  -0.625  0.00  0.00    -0.203 NA
ATOM     32  C   UNL d   1      32.029 -14.887   0.280  0.00  0.00     0.155 C 
ATOM     33  C   UNL d   1      30.966 -15.765  -0.204  0.00  0.00     0.065 C 
BRANCH  32  34
ATOM     34  C   UNL d   1      32.450 -14.862   1.712  0.00  0.00     0.270 C 
ATOM     35  N   UNL d   1      31.561 -15.265   2.678  0.00  0.00    -0.365 N 
ATOM     36  H   UNL d   1      30.625 -15.575   2.471  0.00  0.00     0.159 HD
ATOM     37  H   UNL d   1      31.894 -15.243   3.635  0.00  0.00     0.159 HD
ATOM     38  O   UNL d   1      33.585 -14.571   2.066  0.00  0.00    -0.266 OA
ENDBRANCH  32  34
BRANCH  33  39
ATOM     39  N   UNL d   1      30.312 -16.643   0.605  0.00  0.00    -0.299 NA
ATOM     40  H   UNL d   1      30.773 -17.559   0.707  0.00  0.00     0.124 HD
ATOM     41  H   UNL d   1      30.030 -16.325   1.530  0.00  0.00     0.124 HD
ENDBRANCH  33  39
ENDBRANCH   2  29
TORSDOF 10
ENDMDL
MODEL 7
REMARK VINA RESULT:    -7.572      2.907      5.727
REMARK INTER + INTRA:         -14.944
REMARK INTER:                 -10.555
REMARK INTRA:                  -4.389
REMARK CONF_INDEPENDENT:        2.983
REMARK UNBOUND:                -4.389
REMARK  10 active torsions:
REMARK  status: ('A' for Active; 'I' for Inactive)
REMARK    1  A    between atoms: C_5  and  N_6 
REMARK       I    between atoms: N_6  and  C_7 
REMARK    2  A    between atoms: C_18  and  N_6 
REMARK    3  A    between atoms: C_7  and  C_9 
REMARK    4  A    between atoms: C_12  and  C_13 
REMARK       I    between atoms: C_13  and  N_14 
REMARK    5  A    between atoms: C_16  and  N_17 
REMARK    6  A    between atoms: C_18  and  C_27 
REMARK    7  A    between atoms: C_18  and  C_19 
REMARK       I    between atoms: C_19  and  N_21 
REMARK    8  A    between atoms: N_21  and  C_22 
REMARK    9  A    between atoms: C_22  and  C_23 
REMARK   10  A    between atoms: C_23  and  C_24 
ROOT
ATOM      1  N   UNL d   1      27.494 -14.942   0.192  0.00  0.00    -0.295 N 
ATOM      2  C   UNL d   1      28.860 -14.917  -0.322  0.00  0.00     0.269 C 
ATOM      3  O   UNL d   1      29.643 -14.056   0.092  0.00  0.00    -0.266 OA
ENDROOT
BRANCH   1   4
ATOM      4  C   UNL d   1      26.548 -16.034   0.003  0.00  0.00     0.039 C 
ATOM      5  C   UNL d   1      26.782 -17.339   0.430  0.00  0.00     0.030 C 
ATOM      6  C   UNL d   1      25.811 -18.340   0.391  0.00  0.00     0.009 C 
ATOM      7  C   UNL d   1      24.530 -18.046  -0.049  0.00  0.00    -0.056 C 
ATOM      8  C   UNL d   1      23.487 -19.105  -0.146  0.00  0.00     0.049 C 
ATOM      9  C   UNL d   1      24.262 -16.766  -0.501  0.00  0.00    -0.054 C 
ATOM     10  C   UNL d   1      25.320 -15.864  -0.611  0.00  0.00     0.037 C 
ATOM     11  C   UNL d   1      22.886 -16.324  -0.896  0.00  0.00     0.049 C 
ENDBRANCH   1   4
BRANCH   1  12
ATOM     12  C   UNL d   1      27.055 -13.821   1.145  0.00  0.00     0.218 C 
BRANCH  12  13
ATOM     13  C   UNL d   1      27.764 -13.898   2.538  0.00  0.00    -0.026 A 
ATOM     14  C   UNL d   1      29.110 -14.290   2.718  0.00  0.00     0.013 A 
ATOM     15  C   UNL d   1      29.723 -14.450   3.953  0.00  0.00     0.043 A 
ATOM     16  C   UNL d   1      28.972 -14.263   5.083  0.00  0.00     0.116 A 
ATOM     17  F   UNL d   1      29.537 -14.491   6.274  0.00  0.00    -0.206 F 
ATOM     18  C   UNL d   1      27.632 -13.900   4.983  0.00  0.00     0.043 A 
ATOM     19  C   UNL d   1      27.030 -13.701   3.723  0.00  0.00     0.013 A 
ENDBRANCH  12  13
BRANCH  12  20
ATOM     20  C   UNL d   1      27.095 -12.465   0.309  0.00  0.00     0.245 C 
ATOM     21  O   UNL d   1      26.737 -11.402   0.829  0.00  0.00    -0.271 OA
ATOM     22  N   UNL d   1      27.499 -12.454  -1.021  0.00  0.00    -0.359 N 
ATOM     23  H   UNL d   1      28.248 -13.067  -1.300  0.00  0.00     0.162 HD
BRANCH  22  24
ATOM     24  C   UNL d   1      27.434 -11.249  -1.818  0.00  0.00     0.123 C 
BRANCH  24  25
ATOM     25  C   UNL d   1      26.486 -11.380  -3.021  0.00  0.00     0.023 C 
BRANCH  25  26
ATOM     26  C   UNL d   1      26.471 -12.820  -3.565  0.00  0.00    -0.021 C 
ATOM     27  C   UNL d   1      25.160 -13.525  -3.209  0.00  0.00     0.009 C 
ATOM     28  C   UNL d   1      26.661 -12.843  -5.082  0.00  0.00     0.009 C 
ENDBRANCH  25  26
ENDBRANCH  24  25
ENDBRANCH  22  24
ENDBRANCH  12  20
ENDBRANCH   1  12
BRANCH   2  29
ATOM     29  C   UNL d   1      29.311 -15.857  -1.378  0.00  0.00     0.115 C 
ATOM     30  S   UNL d   1      29.218 -15.437  -3.050  0.00  0.00     0.019 SA
ATOM     31  N   UNL d   1      30.177 -16.689  -3.634  0.00  0.00    -0.203 NA
ATOM     32  C   UNL d   1      30.496 -17.499  -2.614  0.00  0.00     0.155 C 
ATOM     33  C   UNL d   1      29.947 -17.090  -1.323  0.00  0.00     0.065 C 
BRANCH  32  34
ATOM     34  C   UNL d   1      31.476 -18.617  -2.742  0.00  0.00     0.270 C 
ATOM     35  N   UNL d   1      32.206 -18.738  -3.899  0.00  0.00    -0.365 N 
ATOM     36  H   UNL d   1      32.110 -18.108  -4.679  0.00  0.00     0.159 HD
ATOM     37  H   UNL d   1      32.869 -19.504  -3.937  0.00  0.00     0.159 HD
ATOM     38  O   UNL d   1      31.722 -19.394  -1.829  0.00  0.00    -0.266 OA
ENDBRANCH  32  34
BRANCH  33  39
ATOM     39  N   UNL d   1      30.259 -17.719  -0.157  0.00  0.00    -0.299 NA
ATOM     40  H   UNL d   1      29.631 -17.503   0.630  0.00  0.00     0.124 HD
ATOM     41  H   UNL d   1      30.404 -18.727  -0.180  0.00  0.00     0.124 HD
ENDBRANCH  33  39
ENDBRANCH   2  29
TORSDOF 10
ENDMDL
MODEL 8
REMARK VINA RESULT:    -7.398      3.150      5.658
REMARK INTER + INTRA:         -15.057
REMARK INTER:                 -10.381
REMARK INTRA:                  -4.676
REMARK CONF_INDEPENDENT:        2.983
REMARK UNBOUND:                -4.676
REMARK  10 active torsions:
REMARK  status: ('A' for Active; 'I' for Inactive)
REMARK    1  A    between atoms: C_5  and  N_6 
REMARK       I    between atoms: N_6  and  C_7 
REMARK    2  A    between atoms: C_18  and  N_6 
REMARK    3  A    between atoms: C_7  and  C_9 
REMARK    4  A    between atoms: C_12  and  C_13 
REMARK       I    between atoms: C_13  and  N_14 
REMARK    5  A    between atoms: C_16  and  N_17 
REMARK    6  A    between atoms: C_18  and  C_27 
REMARK    7  A    between atoms: C_18  and  C_19 
REMARK       I    between atoms: C_19  and  N_21 
REMARK    8  A    between atoms: N_21  and  C_22 
REMARK    9  A    between atoms: C_22  and  C_23 
REMARK   10  A    between atoms: C_23  and  C_24 
ROOT
ATOM      1  N   UNL d   1      28.054 -16.241  -1.897  0.00  0.00    -0.295 N 
ATOM      2  C   UNL d   1      27.239 -16.851  -0.851  0.00  0.00     0.269 C 
ATOM      3  O   UNL d   1      27.789 -17.543   0.013  0.00  0.00    -0.266 OA
ENDROOT
BRANCH   1   4
ATOM      4  C   UNL d   1      27.599 -15.205  -2.815  0.00  0.00     0.039 C 
ATOM      5  C   UNL d   1      27.084 -15.471  -4.081  0.00  0.00     0.030 C 
ATOM      6  C   UNL d   1      26.504 -14.492  -4.889  0.00  0.00     0.009 C 
ATOM      7  C   UNL d   1      26.380 -13.193  -4.424  0.00  0.00    -0.056 C 
ATOM      8  C   UNL d   1      25.808 -12.119  -5.282  0.00  0.00     0.049 C 
ATOM      9  C   UNL d   1      26.897 -12.883  -3.178  0.00  0.00    -0.054 C 
ATOM     10  C   UNL d   1      27.628 -13.858  -2.500  0.00  0.00     0.037 C 
ATOM     11  C   UNL d   1      26.720 -11.537  -2.546  0.00  0.00     0.049 C 
ENDBRANCH   1   4
BRANCH   1  12
ATOM     12  C   UNL d   1      29.551 -16.581  -1.944  0.00  0.00     0.218 C 
BRANCH  12  13
ATOM     13  C   UNL d   1      30.107 -16.662  -3.405  0.00  0.00    -0.026 A 
ATOM     14  C   UNL d   1      30.557 -15.542  -4.142  0.00  0.00     0.013 A 
ATOM     15  C   UNL d   1      30.967 -15.586  -5.467  0.00  0.00     0.043 A 
ATOM     16  C   UNL d   1      30.892 -16.781  -6.133  0.00  0.00     0.116 A 
ATOM     17  F   UNL d   1      31.212 -16.813  -7.432  0.00  0.00    -0.206 F 
ATOM     18  C   UNL d   1      30.434 -17.921  -5.480  0.00  0.00     0.043 A 
ATOM     19  C   UNL d   1      30.059 -17.873  -4.120  0.00  0.00     0.013 A 
ENDBRANCH  12  13
BRANCH  12  20
ATOM     20  C   UNL d   1      30.270 -15.646  -0.873  0.00  0.00     0.245 C 
ATOM     21  O   UNL d   1      30.890 -14.641  -1.240  0.00  0.00    -0.271 OA
ATOM     22  N   UNL d   1      30.241 -15.955   0.482  0.00  0.00    -0.359 N 
ATOM     23  H   UNL d   1      29.400 -16.356   0.865  0.00  0.00     0.162 HD
BRANCH  22  24
ATOM     24  C   UNL d   1      30.982 -15.173   1.448  0.00  0.00     0.123 C 
BRANCH  24  25
ATOM     25  C   UNL d   1      30.214 -13.930   1.925  0.00  0.00     0.023 C 
BRANCH  25  26
ATOM     26  C   UNL d   1      28.697 -14.102   1.727  0.00  0.00    -0.021 C 
ATOM     27  C   UNL d   1      28.004 -14.410   3.056  0.00  0.00     0.009 C 
ATOM     28  C   UNL d   1      28.072 -12.850   1.110  0.00  0.00     0.009 C 
ENDBRANCH  25  26
ENDBRANCH  24  25
ENDBRANCH  22  24
ENDBRANCH  12  20
ENDBRANCH   1  12
BRANCH   2  29
ATOM     29  C   UNL d   1      25.762 -16.717  -0.838  0.00  0.00     0.115 C 
ATOM     30  S   UNL d   1      24.963 -15.524  -1.795  0.00  0.00     0.019 SA
ATOM     31  N   UNL d   1      23.403 -16.129  -1.625  0.00  0.00    -0.203 NA
ATOM     32  C   UNL d   1      23.433 -17.164  -0.773  0.00  0.00     0.155 C 
ATOM     33  C   UNL d   1      24.760 -17.473  -0.244  0.00  0.00     0.065 C 
BRANCH  32  34
ATOM     34  C   UNL d   1      22.253 -18.043  -0.523  0.00  0.00     0.270 C 
ATOM     35  N   UNL d   1      22.414 -19.182   0.227  0.00  0.00    -0.365 N 
ATOM     36  H   UNL d   1      23.298 -19.464   0.618  0.00  0.00     0.159 HD
ATOM     37  H   UNL d   1      21.582 -19.741   0.382  0.00  0.00     0.159 HD
ATOM     38  O   UNL d   1      21.121 -17.756  -0.890  0.00  0.00    -0.266 OA
ENDBRANCH  32  34
BRANCH  33  39
ATOM     39  N   UNL d   1      25.005 -18.558   0.540  0.00  0.00    -0.299 NA
ATOM     40  H   UNL d   1      26.002 -18.796   0.645  0.00  0.00     0.124 HD
ATOM     41  H   UNL d   1      24.572 -18.592   1.461  0.00  0.00     0.124 HD
ENDBRANCH  33  39
ENDBRANCH   2  29
TORSDOF 10
ENDMDL
MODEL 9
REMARK VINA RESULT:    -7.192      3.238      6.408
REMARK INTER + INTRA:         -14.595
REMARK INTER:                 -10.175
REMARK INTRA:                  -4.420
REMARK CONF_INDEPENDENT:        2.983
REMARK UNBOUND:                -4.420
REMARK  10 active torsions:
REMARK  status: ('A' for Active; 'I' for Inactive)
REMARK    1  A    between atoms: C_5  and  N_6 
REMARK       I    between atoms: N_6  and  C_7 
REMARK    2  A    between atoms: C_18  and  N_6 
REMARK    3  A    between atoms: C_7  and  C_9 
REMARK    4  A    between atoms: C_12  and  C_13 
REMARK       I    between atoms: C_13  and  N_14 
REMARK    5  A    between atoms: C_16  and  N_17 
REMARK    6  A    between atoms: C_18  and  C_27 
REMARK    7  A    between atoms: C_18  and  C_19 
REMARK       I    between atoms: C_19  and  N_21 
REMARK    8  A    between atoms: N_21  and  C_22 
REMARK    9  A    between atoms: C_22  and  C_23 
REMARK   10  A    between atoms: C_23  and  C_24 
ROOT
ATOM      1  N   UNL d   1      26.777 -14.993  -0.297  0.00  0.00    -0.295 N 
ATOM      2  C   UNL d   1      26.450 -14.451  -1.612  0.00  0.00     0.269 C 
ATOM      3  O   UNL d   1      26.035 -15.214  -2.491  0.00  0.00    -0.266 OA
ENDROOT
BRANCH   1   4
ATOM      4  C   UNL d   1      27.023 -14.198   0.899  0.00  0.00     0.039 C 
ATOM      5  C   UNL d   1      28.006 -14.502   1.838  0.00  0.00     0.030 C 
ATOM      6  C   UNL d   1      28.343 -13.652   2.892  0.00  0.00     0.009 C 
ATOM      7  C   UNL d   1      27.718 -12.422   3.017  0.00  0.00    -0.056 C 
ATOM      8  C   UNL d   1      28.024 -11.515   4.158  0.00  0.00     0.049 C 
ATOM      9  C   UNL d   1      26.721 -12.090   2.116  0.00  0.00    -0.054 C 
ATOM     10  C   UNL d   1      26.303 -13.056   1.201  0.00  0.00     0.037 C 
ATOM     11  C   UNL d   1      26.063 -10.745   2.105  0.00  0.00     0.049 C 
ENDBRANCH   1   4
BRANCH   1  12
ATOM     12  C   UNL d   1      26.701 -16.514  -0.097  0.00  0.00     0.218 C 
BRANCH  12  13
ATOM     13  C   UNL d   1      25.261 -17.083  -0.330  0.00  0.00    -0.026 A 
ATOM     14  C   UNL d   1      24.131 -16.282  -0.611  0.00  0.00     0.013 A 
ATOM     15  C   UNL d   1      22.836 -16.764  -0.730  0.00  0.00     0.043 A 
ATOM     16  C   UNL d   1      22.615 -18.100  -0.519  0.00  0.00     0.116 A 
ATOM     17  F   UNL d   1      21.358 -18.557  -0.556  0.00  0.00    -0.206 F 
ATOM     18  C   UNL d   1      23.677 -18.946  -0.213  0.00  0.00     0.043 A 
ATOM     19  C   UNL d   1      24.996 -18.451  -0.135  0.00  0.00     0.013 A 
ENDBRANCH  12  13
BRANCH  12  20
ATOM     20  C   UNL d   1      27.939 -17.143  -0.877  0.00  0.00     0.245 C 
ATOM     21  O   UNL d   1      28.515 -18.142  -0.429  0.00  0.00    -0.271 OA
ATOM     22  N   UNL d   1      28.413 -16.570  -2.051  0.00  0.00    -0.359 N 
ATOM     23  H   UNL d   1      27.747 -16.177  -2.696  0.00  0.00     0.162 HD
BRANCH  22  24
ATOM     24  C   UNL d   1      29.603 -17.069  -2.706  0.00  0.00     0.123 C 
BRANCH  24  25
ATOM     25  C   UNL d   1      29.655 -16.712  -4.200  0.00  0.00     0.023 C 
BRANCH  25  26
ATOM     26  C   UNL d   1      29.465 -15.201  -4.420  0.00  0.00    -0.021 C 
ATOM     27  C   UNL d   1      28.009 -14.877  -4.764  0.00  0.00     0.009 C 
ATOM     28  C   UNL d   1      29.881 -14.403  -3.184  0.00  0.00     0.009 C 
ENDBRANCH  25  26
ENDBRANCH  24  25
ENDBRANCH  22  24
ENDBRANCH  12  20
ENDBRANCH   1  12
BRANCH   2  29
ATOM     29  C   UNL d   1      26.666 -13.020  -1.940  0.00  0.00     0.115 C 
ATOM     30  S   UNL d   1      27.873 -12.090  -1.131  0.00  0.00     0.019 SA
ATOM     31  N   UNL d   1      27.852 -10.770  -2.173  0.00  0.00    -0.203 NA
ATOM     32  C   UNL d   1      26.878 -10.950  -3.077  0.00  0.00     0.155 C 
ATOM     33  C   UNL d   1      26.130 -12.194  -2.918  0.00  0.00     0.065 C 
BRANCH  32  34
ATOM     34  C   UNL d   1      26.689 -10.052  -4.255  0.00  0.00     0.270 C 
ATOM     35  N   UNL d   1      25.524 -10.133  -4.977  0.00  0.00    -0.365 N 
ATOM     36  H   UNL d   1      24.782 -10.778  -4.756  0.00  0.00     0.159 HD
ATOM     37  H   UNL d   1      25.434  -9.495  -5.760  0.00  0.00     0.159 HD
ATOM     38  O   UNL d   1      27.495  -9.185  -4.565  0.00  0.00    -0.266 OA
ENDBRANCH  32  34
BRANCH  33  39
ATOM     39  N   UNL d   1      25.185 -12.604  -3.809  0.00  0.00    -0.299 NA
ATOM     40  H   UNL d   1      24.916 -13.595  -3.725  0.00  0.00     0.124 HD
ATOM     41  H   UNL d   1      24.335 -12.050  -3.895  0.00  0.00     0.124 HD
ENDBRANCH  33  39
ENDBRANCH   2  29
TORSDOF 10
ENDMDL
