MODEL 1
REMARK VINA RESULT:    -8.856      0.000      0.000
REMARK INTER + INTRA:         -11.190
REMARK INTER:                 -10.347
REMARK INTRA:                  -0.842
REMARK CONF_INDEPENDENT:        1.492
REMARK UNBOUND:                -0.842
REMARK  5 active torsions:
REMARK  status: ('A' for Active; 'I' for Inactive)
REMARK    1  A    between atoms: S_2  and  C_5 
REMARK    2  A    between atoms: C_5  and  C_6 
REMARK    3  A    between atoms: C_10  and  C_11 
REMARK       I    between atoms: C_11  and  N_13 
REMARK    4  A    between atoms: N_13  and  N_14 
REMARK    5  A    between atoms: N_14  and  C_15 
ROOT
ATOM      1  C   UNL d   1      25.295 -14.973  -3.183  0.00  0.00     0.270 C 
ATOM      2  O   UNL d   1      25.155 -15.275  -4.370  0.00  0.00    -0.266 OA
ATOM      3  N   UNL d   1      25.565 -13.665  -2.765  0.00  0.00    -0.265 N 
ATOM      4  H   UNL d   1      25.540 -13.387  -1.792  0.00  0.00     0.190 HD
ENDROOT
BRANCH   1   5
ATOM      5  C   UNL d   1      25.203 -16.037  -2.126  0.00  0.00     0.034 A 
ATOM      6  C   UNL d   1      26.359 -16.643  -1.620  0.00  0.00     0.017 A 
ATOM      7  C   UNL d   1      26.274 -17.570  -0.571  0.00  0.00     0.002 A 
ATOM      8  C   UNL d   1      25.033 -17.913  -0.022  0.00  0.00     0.008 A 
ATOM      9  C   UNL d   1      23.872 -17.283  -0.477  0.00  0.00    -0.043 A 
ATOM     10  C   UNL d   1      23.975 -16.416  -1.580  0.00  0.00     0.025 A 
BRANCH   9  11
ATOM     11  C   UNL d   1      22.531 -17.482   0.204  0.00  0.00     0.178 C 
BRANCH  11  12
ATOM     12  S   UNL d   1      21.497 -18.561  -0.841  0.00  0.00     0.144 S 
ATOM     13  C   UNL d   1      20.919 -19.835   0.244  0.00  0.00     0.161 C 
ATOM     14  O   UNL d   1      22.334 -19.237  -1.815  0.00  0.00    -0.228 OA
ATOM     15  O   UNL d   1      20.329 -17.808  -1.270  0.00  0.00    -0.228 OA
ENDBRANCH  11  12
ENDBRANCH   9  11
ENDBRANCH   1   5
BRANCH   3  16
ATOM     16  N   UNL d   1      25.272 -12.635  -3.664  0.00  0.00    -0.298 N 
ATOM     17  H   UNL d   1      24.274 -12.570  -3.892  0.00  0.00     0.187 HD
BRANCH  16  18
ATOM     18  C   UNL d   1      26.142 -12.450  -4.764  0.00  0.00     0.049 A 
ATOM     19  C   UNL d   1      25.938 -11.303  -5.549  0.00  0.00     0.031 A 
ATOM     20  C   UNL d   1      26.741 -11.016  -6.657  0.00  0.00     0.004 A 
ATOM     21  C   UNL d   1      27.802 -11.855  -6.978  0.00  0.00     0.024 A 
ATOM     22  C   UNL d   1      28.016 -13.002  -6.215  0.00  0.00     0.036 A 
ATOM     23 CL   UNL d   1      29.295 -14.070  -6.659  0.00  0.00    -0.084 Cl
ATOM     24  C   UNL d   1      27.196 -13.305  -5.118  0.00  0.00     0.054 A 
ENDBRANCH  16  18
ENDBRANCH   3  16
TORSDOF 5
ENDMDL
MODEL 2
REMARK VINA RESULT:    -8.446      1.294      1.582
REMARK INTER + INTRA:         -11.100
REMARK INTER:                  -9.937
REMARK INTRA:                  -1.163
REMARK CONF_INDEPENDENT:        1.492
REMARK UNBOUND:                -1.163
REMARK  5 active torsions:
REMARK  status: ('A' for Active; 'I' for Inactive)
REMARK    1  A    between atoms: S_2  and  C_5 
REMARK    2  A    between atoms: C_5  and  C_6 
REMARK    3  A    between atoms: C_10  and  C_11 
REMARK       I    between atoms: C_11  and  N_13 
REMARK    4  A    between atoms: N_13  and  N_14 
REMARK    5  A    between atoms: N_14  and  C_15 
ROOT
ATOM      1  C   UNL d   1      25.293 -15.390  -2.844  0.00  0.00     0.270 C 
ATOM      2  O   UNL d   1      24.295 -14.707  -3.081  0.00  0.00    -0.266 OA
ATOM      3  N   UNL d   1      26.495 -15.237  -3.545  0.00  0.00    -0.265 N 
ATOM      4  H   UNL d   1      27.354 -15.692  -3.262  0.00  0.00     0.190 HD
ENDROOT
BRANCH   1   5
ATOM      5  C   UNL d   1      25.236 -16.453  -1.784  0.00  0.00     0.034 A 
ATOM      6  C   UNL d   1      26.410 -16.950  -1.207  0.00  0.00     0.017 A 
ATOM      7  C   UNL d   1      26.349 -17.877  -0.155  0.00  0.00     0.002 A 
ATOM      8  C   UNL d   1      25.114 -18.327   0.325  0.00  0.00     0.008 A 
ATOM      9  C   UNL d   1      23.929 -17.806  -0.202  0.00  0.00    -0.043 A 
ATOM     10  C   UNL d   1      24.018 -16.939  -1.305  0.00  0.00     0.025 A 
BRANCH   9  11
ATOM     11  C   UNL d   1      22.574 -18.123   0.403  0.00  0.00     0.178 C 
BRANCH  11  12
ATOM     12  S   UNL d   1      21.430 -18.598  -0.936  0.00  0.00     0.144 S 
ATOM     13  C   UNL d   1      20.358 -19.810  -0.217  0.00  0.00     0.161 C 
ATOM     14  O   UNL d   1      22.164 -19.300  -1.973  0.00  0.00    -0.228 OA
ATOM     15  O   UNL d   1      20.605 -17.447  -1.269  0.00  0.00    -0.228 OA
ENDBRANCH  11  12
ENDBRANCH   9  11
ENDBRANCH   1   5
BRANCH   3  16
ATOM     16  N   UNL d   1      26.683 -14.035  -4.234  0.00  0.00    -0.298 N 
ATOM     17  H   UNL d   1      25.804 -13.551  -4.446  0.00  0.00     0.187 HD
BRANCH  16  18
ATOM     18  C   UNL d   1      27.636 -14.014  -5.279  0.00  0.00     0.049 A 
ATOM     19  C   UNL d   1      27.632 -12.889  -6.120  0.00  0.00     0.031 A 
ATOM     20  C   UNL d   1      28.532 -12.759  -7.182  0.00  0.00     0.004 A 
ATOM     21  C   UNL d   1      29.494 -13.740  -7.398  0.00  0.00     0.024 A 
ATOM     22  C   UNL d   1      29.509 -14.867  -6.578  0.00  0.00     0.036 A 
ATOM     23 CL   UNL d   1      30.664 -16.110  -6.892  0.00  0.00    -0.084 Cl
ATOM     24  C   UNL d   1      28.590 -15.012  -5.528  0.00  0.00     0.054 A 
ENDBRANCH  16  18
ENDBRANCH   3  16
TORSDOF 5
ENDMDL
MODEL 3
REMARK VINA RESULT:    -8.300      1.254      1.778
REMARK INTER + INTRA:         -11.002
REMARK INTER:                  -9.791
REMARK INTRA:                  -1.211
REMARK CONF_INDEPENDENT:        1.492
REMARK UNBOUND:                -1.211
REMARK  5 active torsions:
REMARK  status: ('A' for Active; 'I' for Inactive)
REMARK    1  A    between atoms: S_2  and  C_5 
REMARK    2  A    between atoms: C_5  and  C_6 
REMARK    3  A    between atoms: C_10  and  C_11 
REMARK       I    between atoms: C_11  and  N_13 
REMARK    4  A    between atoms: N_13  and  N_14 
REMARK    5  A    between atoms: N_14  and  C_15 
ROOT
ATOM      1  C   UNL d   1      25.149 -15.330  -2.710  0.00  0.00     0.270 C 
ATOM      2  O   UNL d   1      24.103 -14.808  -3.099  0.00  0.00    -0.266 OA
ATOM      3  N   UNL d   1      26.404 -14.974  -3.217  0.00  0.00    -0.265 N 
ATOM      4  H   UNL d   1      27.271 -15.294  -2.804  0.00  0.00     0.190 HD
ENDROOT
BRANCH   1   5
ATOM      5  C   UNL d   1      25.101 -16.414  -1.669  0.00  0.00     0.034 A 
ATOM      6  C   UNL d   1      26.277 -16.884  -1.074  0.00  0.00     0.017 A 
ATOM      7  C   UNL d   1      26.220 -17.831  -0.040  0.00  0.00     0.002 A 
ATOM      8  C   UNL d   1      24.989 -18.327   0.405  0.00  0.00     0.008 A 
ATOM      9  C   UNL d   1      23.801 -17.833  -0.141  0.00  0.00    -0.043 A 
ATOM     10  C   UNL d   1      23.888 -16.944  -1.227  0.00  0.00     0.025 A 
BRANCH   9  11
ATOM     11  C   UNL d   1      22.443 -18.201   0.427  0.00  0.00     0.178 C 
BRANCH  11  12
ATOM     12  S   UNL d   1      21.335 -18.655  -0.948  0.00  0.00     0.144 S 
ATOM     13  C   UNL d   1      20.264 -19.899  -0.284  0.00  0.00     0.161 C 
ATOM     14  O   UNL d   1      22.100 -19.320  -1.986  0.00  0.00    -0.228 OA
ATOM     15  O   UNL d   1      20.502 -17.506  -1.269  0.00  0.00    -0.228 OA
ENDBRANCH  11  12
ENDBRANCH   9  11
ENDBRANCH   1   5
BRANCH   3  16
ATOM     16  N   UNL d   1      26.502 -13.742  -3.871  0.00  0.00    -0.298 N 
ATOM     17  H   UNL d   1      25.606 -13.246  -3.930  0.00  0.00     0.187 HD
BRANCH  16  18
ATOM     18  C   UNL d   1      27.292 -13.676  -5.042  0.00  0.00     0.049 A 
ATOM     19  C   UNL d   1      28.025 -14.826  -5.381  0.00  0.00     0.031 A 
ATOM     20  C   UNL d   1      28.835 -14.875  -6.519  0.00  0.00     0.004 A 
ATOM     21  C   UNL d   1      28.893 -13.781  -7.375  0.00  0.00     0.024 A 
ATOM     22  C   UNL d   1      28.178 -12.628  -7.053  0.00  0.00     0.036 A 
ATOM     23 CL   UNL d   1      28.305 -11.253  -8.086  0.00  0.00    -0.084 Cl
ATOM     24  C   UNL d   1      27.384 -12.568  -5.897  0.00  0.00     0.054 A 
ENDBRANCH  16  18
ENDBRANCH   3  16
TORSDOF 5
ENDMDL
MODEL 4
REMARK VINA RESULT:    -8.249      4.638      8.596
REMARK INTER + INTRA:         -10.901
REMARK INTER:                  -9.740
REMARK INTRA:                  -1.160
REMARK CONF_INDEPENDENT:        1.492
REMARK UNBOUND:                -1.160
REMARK  5 active torsions:
REMARK  status: ('A' for Active; 'I' for Inactive)
REMARK    1  A    between atoms: S_2  and  C_5 
REMARK    2  A    between atoms: C_5  and  C_6 
REMARK    3  A    between atoms: C_10  and  C_11 
REMARK       I    between atoms: C_11  and  N_13 
REMARK    4  A    between atoms: N_13  and  N_14 
REMARK    5  A    between atoms: N_14  and  C_15 
ROOT
ATOM      1  C   UNL d   1      24.805 -17.502  -0.360  0.00  0.00     0.270 C 
ATOM      2  O   UNL d   1      25.522 -18.428   0.023  0.00  0.00    -0.266 OA
ATOM      3  N   UNL d   1      23.409 -17.541  -0.269  0.00  0.00    -0.265 N 
ATOM      4  H   UNL d   1      22.827 -16.732  -0.449  0.00  0.00     0.190 HD
ENDROOT
BRANCH   1   5
ATOM      5  C   UNL d   1      25.429 -16.282  -0.979  0.00  0.00     0.034 A 
ATOM      6  C   UNL d   1      26.211 -15.413  -0.210  0.00  0.00     0.017 A 
ATOM      7  C   UNL d   1      26.865 -14.326  -0.810  0.00  0.00     0.002 A 
ATOM      8  C   UNL d   1      26.735 -14.087  -2.183  0.00  0.00     0.008 A 
ATOM      9  C   UNL d   1      26.000 -14.971  -2.978  0.00  0.00    -0.043 A 
ATOM     10  C   UNL d   1      25.294 -16.006  -2.340  0.00  0.00     0.025 A 
BRANCH   9  11
ATOM     11  C   UNL d   1      25.978 -14.862  -4.491  0.00  0.00     0.178 C 
BRANCH  11  12
ATOM     12  S   UNL d   1      27.695 -14.877  -5.105  0.00  0.00     0.144 S 
ATOM     13  C   UNL d   1      28.233 -13.193  -5.007  0.00  0.00     0.161 C 
ATOM     14  O   UNL d   1      27.700 -15.200  -6.520  0.00  0.00    -0.228 OA
ATOM     15  O   UNL d   1      28.513 -15.637  -4.173  0.00  0.00    -0.228 OA
ENDBRANCH  11  12
ENDBRANCH   9  11
ENDBRANCH   1   5
BRANCH   3  16
ATOM     16  N   UNL d   1      22.854 -18.458   0.629  0.00  0.00    -0.298 N 
ATOM     17  H   UNL d   1      23.523 -19.168   0.945  0.00  0.00     0.187 HD
BRANCH  16  18
ATOM     18  C   UNL d   1      21.557 -18.950   0.353  0.00  0.00     0.049 A 
ATOM     19  C   UNL d   1      21.169 -18.999  -0.996  0.00  0.00     0.031 A 
ATOM     20  C   UNL d   1      19.912 -19.472  -1.385  0.00  0.00     0.004 A 
ATOM     21  C   UNL d   1      19.028 -19.954  -0.427  0.00  0.00     0.024 A 
ATOM     22  C   UNL d   1      19.392 -19.908   0.918  0.00  0.00     0.036 A 
ATOM     23 CL   UNL d   1      18.264 -20.449   2.105  0.00  0.00    -0.084 Cl
ATOM     24  C   UNL d   1      20.643 -19.409   1.312  0.00  0.00     0.054 A 
ENDBRANCH  16  18
ENDBRANCH   3  16
TORSDOF 5
ENDMDL
MODEL 5
REMARK VINA RESULT:    -8.205      1.309      1.658
REMARK INTER + INTRA:         -10.891
REMARK INTER:                  -9.697
REMARK INTRA:                  -1.194
REMARK CONF_INDEPENDENT:        1.492
REMARK UNBOUND:                -1.194
REMARK  5 active torsions:
REMARK  status: ('A' for Active; 'I' for Inactive)
REMARK    1  A    between atoms: S_2  and  C_5 
REMARK    2  A    between atoms: C_5  and  C_6 
REMARK    3  A    between atoms: C_10  and  C_11 
REMARK       I    between atoms: C_11  and  N_13 
REMARK    4  A    between atoms: N_13  and  N_14 
REMARK    5  A    between atoms: N_14  and  C_15 
ROOT
ATOM      1  C   UNL d   1      24.668 -14.688  -2.797  0.00  0.00     0.270 C 
ATOM      2  O   UNL d   1      23.548 -14.409  -3.227  0.00  0.00    -0.266 OA
ATOM      3  N   UNL d   1      25.811 -13.955  -3.138  0.00  0.00    -0.265 N 
ATOM      4  H   UNL d   1      26.703 -14.091  -2.680  0.00  0.00     0.190 HD
ENDROOT
BRANCH   1   5
ATOM      5  C   UNL d   1      24.846 -15.874  -1.891  0.00  0.00     0.034 A 
ATOM      6  C   UNL d   1      26.125 -16.296  -1.511  0.00  0.00     0.017 A 
ATOM      7  C   UNL d   1      26.284 -17.346  -0.594  0.00  0.00     0.002 A 
ATOM      8  C   UNL d   1      25.167 -17.994  -0.054  0.00  0.00     0.008 A 
ATOM      9  C   UNL d   1      23.880 -17.556  -0.381  0.00  0.00    -0.043 A 
ATOM     10  C   UNL d   1      23.749 -16.555  -1.359  0.00  0.00     0.025 A 
BRANCH   9  11
ATOM     11  C   UNL d   1      22.646 -18.101   0.312  0.00  0.00     0.178 C 
BRANCH  11  12
ATOM     12  S   UNL d   1      21.433 -18.598  -0.956  0.00  0.00     0.144 S 
ATOM     13  C   UNL d   1      20.396 -19.791  -0.159  0.00  0.00     0.161 C 
ATOM     14  O   UNL d   1      22.109 -19.323  -2.015  0.00  0.00    -0.228 OA
ATOM     15  O   UNL d   1      20.595 -17.450  -1.268  0.00  0.00    -0.228 OA
ENDBRANCH  11  12
ENDBRANCH   9  11
ENDBRANCH   1   5
BRANCH   3  16
ATOM     16  N   UNL d   1      25.615 -12.665  -3.641  0.00  0.00    -0.298 N 
ATOM     17  H   UNL d   1      24.635 -12.364  -3.607  0.00  0.00     0.187 HD
BRANCH  16  18
ATOM     18  C   UNL d   1      26.302 -12.305  -4.823  0.00  0.00     0.049 A 
ATOM     19  C   UNL d   1      27.203 -13.248  -5.348  0.00  0.00     0.031 A 
ATOM     20  C   UNL d   1      27.932 -13.001  -6.514  0.00  0.00     0.004 A 
ATOM     21  C   UNL d   1      27.741 -11.814  -7.212  0.00  0.00     0.024 A 
ATOM     22  C   UNL d   1      26.856 -10.863  -6.704  0.00  0.00     0.036 A 
ATOM     23 CL   UNL d   1      26.672  -9.366  -7.541  0.00  0.00    -0.084 Cl
ATOM     24  C   UNL d   1      26.142 -11.098  -5.519  0.00  0.00     0.054 A 
ENDBRANCH  16  18
ENDBRANCH   3  16
TORSDOF 5
ENDMDL
MODEL 6
REMARK VINA RESULT:    -8.057      4.485      5.133
REMARK INTER + INTRA:         -10.498
REMARK INTER:                  -9.548
REMARK INTRA:                  -0.950
REMARK CONF_INDEPENDENT:        1.492
REMARK UNBOUND:                -0.950
REMARK  5 active torsions:
REMARK  status: ('A' for Active; 'I' for Inactive)
REMARK    1  A    between atoms: S_2  and  C_5 
REMARK    2  A    between atoms: C_5  and  C_6 
REMARK    3  A    between atoms: C_10  and  C_11 
REMARK       I    between atoms: C_11  and  N_13 
REMARK    4  A    between atoms: N_13  and  N_14 
REMARK    5  A    between atoms: N_14  and  C_15 
ROOT
ATOM      1  C   UNL d   1      26.417 -17.999   0.148  0.00  0.00     0.270 C 
ATOM      2  O   UNL d   1      26.691 -18.895   0.949  0.00  0.00    -0.266 OA
ATOM      3  N   UNL d   1      27.399 -17.236  -0.494  0.00  0.00    -0.265 N 
ATOM      4  H   UNL d   1      27.188 -16.600  -1.253  0.00  0.00     0.190 HD
ENDROOT
BRANCH   1   5
ATOM      5  C   UNL d   1      24.980 -17.674  -0.147  0.00  0.00     0.034 A 
ATOM      6  C   UNL d   1      24.645 -16.558  -0.922  0.00  0.00     0.017 A 
ATOM      7  C   UNL d   1      23.309 -16.310  -1.270  0.00  0.00     0.002 A 
ATOM      8  C   UNL d   1      22.290 -17.167  -0.838  0.00  0.00     0.008 A 
ATOM      9  C   UNL d   1      22.607 -18.314  -0.106  0.00  0.00    -0.043 A 
ATOM     10  C   UNL d   1      23.942 -18.497   0.294  0.00  0.00     0.025 A 
BRANCH   9  11
ATOM     11  C   UNL d   1      21.567 -19.365   0.230  0.00  0.00     0.178 C 
BRANCH  11  12
ATOM     12  S   UNL d   1      20.170 -19.201  -0.931  0.00  0.00     0.144 S 
ATOM     13  C   UNL d   1      18.882 -20.205  -0.248  0.00  0.00     0.161 C 
ATOM     14  O   UNL d   1      20.515 -19.826  -2.195  0.00  0.00    -0.228 OA
ATOM     15  O   UNL d   1      19.699 -17.825  -0.895  0.00  0.00    -0.228 OA
ENDBRANCH  11  12
ENDBRANCH   9  11
ENDBRANCH   1   5
BRANCH   3  16
ATOM     16  N   UNL d   1      28.693 -17.764  -0.533  0.00  0.00    -0.298 N 
ATOM     17  H   UNL d   1      28.877 -18.437   0.219  0.00  0.00     0.187 HD
BRANCH  16  18
ATOM     18  C   UNL d   1      29.761 -16.878  -0.806  0.00  0.00     0.049 A 
ATOM     19  C   UNL d   1      30.097 -16.683  -2.156  0.00  0.00     0.031 A 
ATOM     20  C   UNL d   1      31.132 -15.826  -2.542  0.00  0.00     0.004 A 
ATOM     21  C   UNL d   1      31.828 -15.105  -1.580  0.00  0.00     0.024 A 
ATOM     22  C   UNL d   1      31.514 -15.290  -0.234  0.00  0.00     0.036 A 
ATOM     23 CL   UNL d   1      32.426 -14.439   0.958  0.00  0.00    -0.084 Cl
ATOM     24  C   UNL d   1      30.494 -16.169   0.157  0.00  0.00     0.054 A 
ENDBRANCH  16  18
ENDBRANCH   3  16
TORSDOF 5
ENDMDL
MODEL 7
REMARK VINA RESULT:    -8.042      1.813      2.088
REMARK INTER + INTRA:         -10.645
REMARK INTER:                  -9.533
REMARK INTRA:                  -1.112
REMARK CONF_INDEPENDENT:        1.492
REMARK UNBOUND:                -1.112
REMARK  5 active torsions:
REMARK  status: ('A' for Active; 'I' for Inactive)
REMARK    1  A    between atoms: S_2  and  C_5 
REMARK    2  A    between atoms: C_5  and  C_6 
REMARK    3  A    between atoms: C_10  and  C_11 
REMARK       I    between atoms: C_11  and  N_13 
REMARK    4  A    between atoms: N_13  and  N_14 
REMARK    5  A    between atoms: N_14  and  C_15 
ROOT
ATOM      1  C   UNL d   1      25.387 -15.540  -3.100  0.00  0.00     0.270 C 
ATOM      2  O   UNL d   1      25.639 -15.925  -4.244  0.00  0.00    -0.266 OA
ATOM      3  N   UNL d   1      25.098 -14.204  -2.801  0.00  0.00    -0.265 N 
ATOM      4  H   UNL d   1      24.754 -13.909  -1.895  0.00  0.00     0.190 HD
ENDROOT
BRANCH   1   5
ATOM      5  C   UNL d   1      25.412 -16.519  -1.960  0.00  0.00     0.034 A 
ATOM      6  C   UNL d   1      26.621 -16.877  -1.353  0.00  0.00     0.017 A 
ATOM      7  C   UNL d   1      26.631 -17.722  -0.233  0.00  0.00     0.002 A 
ATOM      8  C   UNL d   1      25.435 -18.228   0.288  0.00  0.00     0.008 A 
ATOM      9  C   UNL d   1      24.213 -17.843  -0.272  0.00  0.00    -0.043 A 
ATOM     10  C   UNL d   1      24.235 -17.060  -1.439  0.00  0.00     0.025 A 
BRANCH   9  11
ATOM     11  C   UNL d   1      22.887 -18.216   0.362  0.00  0.00     0.178 C 
BRANCH  11  12
ATOM     12  S   UNL d   1      21.680 -18.563  -0.961  0.00  0.00     0.144 S 
ATOM     13  C   UNL d   1      20.508 -19.673  -0.235  0.00  0.00     0.161 C 
ATOM     14  O   UNL d   1      22.325 -19.322  -2.017  0.00  0.00    -0.228 OA
ATOM     15  O   UNL d   1      20.965 -17.334  -1.268  0.00  0.00    -0.228 OA
ENDBRANCH  11  12
ENDBRANCH   9  11
ENDBRANCH   1   5
BRANCH   3  16
ATOM     16  N   UNL d   1      24.697 -13.385  -3.860  0.00  0.00    -0.298 N 
ATOM     17  H   UNL d   1      24.375 -13.914  -4.679  0.00  0.00     0.187 HD
BRANCH  16  18
ATOM     18  C   UNL d   1      25.493 -12.256  -4.163  0.00  0.00     0.049 A 
ATOM     19  C   UNL d   1      26.182 -12.274  -5.388  0.00  0.00     0.031 A 
ATOM     20  C   UNL d   1      26.994 -11.210  -5.792  0.00  0.00     0.004 A 
ATOM     21  C   UNL d   1      27.098 -10.077  -4.993  0.00  0.00     0.024 A 
ATOM     22  C   UNL d   1      26.428 -10.043  -3.771  0.00  0.00     0.036 A 
ATOM     23 CL   UNL d   1      26.614  -8.660  -2.757  0.00  0.00    -0.084 Cl
ATOM     24  C   UNL d   1      25.633 -11.120  -3.352  0.00  0.00     0.054 A 
ENDBRANCH  16  18
ENDBRANCH   3  16
TORSDOF 5
ENDMDL
MODEL 8
REMARK VINA RESULT:    -7.862      5.339      6.920
REMARK INTER + INTRA:         -10.274
REMARK INTER:                  -9.354
REMARK INTRA:                  -0.920
REMARK CONF_INDEPENDENT:        1.492
REMARK UNBOUND:                -0.920
REMARK  5 active torsions:
REMARK  status: ('A' for Active; 'I' for Inactive)
REMARK    1  A    between atoms: S_2  and  C_5 
REMARK    2  A    between atoms: C_5  and  C_6 
REMARK    3  A    between atoms: C_10  and  C_11 
REMARK       I    between atoms: C_11  and  N_13 
REMARK    4  A    between atoms: N_13  and  N_14 
REMARK    5  A    between atoms: N_14  and  C_15 
ROOT
ATOM      1  C   UNL d   1      27.545 -16.127   0.654  0.00  0.00     0.270 C 
ATOM      2  O   UNL d   1      28.567 -16.747   0.354  0.00  0.00    -0.266 OA
ATOM      3  N   UNL d   1      27.492 -15.234   1.730  0.00  0.00    -0.265 N 
ATOM      4  H   UNL d   1      26.704 -14.620   1.893  0.00  0.00     0.190 HD
ENDROOT
BRANCH   1   5
ATOM      5  C   UNL d   1      26.284 -16.340  -0.136  0.00  0.00     0.034 A 
ATOM      6  C   UNL d   1      26.025 -15.584  -1.285  0.00  0.00     0.017 A 
ATOM      7  C   UNL d   1      24.892 -15.847  -2.069  0.00  0.00     0.002 A 
ATOM      8  C   UNL d   1      23.997 -16.862  -1.708  0.00  0.00     0.008 A 
ATOM      9  C   UNL d   1      24.263 -17.661  -0.593  0.00  0.00    -0.043 A 
ATOM     10  C   UNL d   1      25.362 -17.327   0.217  0.00  0.00     0.025 A 
BRANCH   9  11
ATOM     11  C   UNL d   1      23.426 -18.884  -0.265  0.00  0.00     0.178 C 
BRANCH  11  12
ATOM     12  S   UNL d   1      21.710 -18.582  -0.802  0.00  0.00     0.144 S 
ATOM     13  C   UNL d   1      20.700 -19.341   0.438  0.00  0.00     0.161 C 
ATOM     14  O   UNL d   1      21.446 -19.325  -2.020  0.00  0.00    -0.228 OA
ATOM     15  O   UNL d   1      21.451 -17.152  -0.741  0.00  0.00    -0.228 OA
ENDBRANCH  11  12
ENDBRANCH   9  11
ENDBRANCH   1   5
BRANCH   3  16
ATOM     16  N   UNL d   1      28.710 -14.743   2.211  0.00  0.00    -0.298 N 
ATOM     17  H   UNL d   1      29.472 -15.428   2.153  0.00  0.00     0.187 HD
BRANCH  16  18
ATOM     18  C   UNL d   1      28.691 -13.982   3.403  0.00  0.00     0.049 A 
ATOM     19  C   UNL d   1      28.088 -12.714   3.338  0.00  0.00     0.031 A 
ATOM     20  C   UNL d   1      28.008 -11.878   4.455  0.00  0.00     0.004 A 
ATOM     21  C   UNL d   1      28.493 -12.315   5.683  0.00  0.00     0.024 A 
ATOM     22  C   UNL d   1      29.101 -13.567   5.766  0.00  0.00     0.036 A 
ATOM     23 CL   UNL d   1      29.757 -14.075   7.278  0.00  0.00    -0.084 Cl
ATOM     24  C   UNL d   1      29.205 -14.397   4.640  0.00  0.00     0.054 A 
ENDBRANCH  16  18
ENDBRANCH   3  16
TORSDOF 5
ENDMDL
