MODEL 1
REMARK VINA RESULT:   -33.574      0.000      0.000
REMARK INTER + INTRA:         -37.829
REMARK INTER:                 -36.557
REMARK INTRA:                  -1.273
REMARK CONF_INDEPENDENT:        2.983
REMARK UNBOUND:                -1.273
REMARK  10 active torsions:
REMARK  status: ('A' for Active; 'I' for Inactive)
REMARK    1  A    between atoms: C_2  and  C_29 
REMARK    2  A    between atoms: N_3  and  N_4 
REMARK    3  A    between atoms: N_4  and  C_5 
REMARK    4  A    between atoms: C_7  and  S_8 
REMARK    5  A    between atoms: S_8  and  C_9 
REMARK    6  A    between atoms: C_9  and  C_10 
REMARK       I    between atoms: C_10  and  N_12 
REMARK    7  A    between atoms: N_12  and  C_13 
REMARK    8  A    between atoms: C_16  and  S_17 
REMARK    9  A    between atoms: S_17  and  N_20 
REMARK   10  A    between atoms: N_20  and  C_21 
ROOT
ATOM      1  C   UNL d   1      27.603 -14.311   0.198  0.00  0.00     0.185 C 
ENDROOT
BRANCH   1   2
ATOM      2  S   UNL d   1      28.197 -16.046   0.126  0.00  0.00    -0.079 SA
BRANCH   2   3
ATOM      3  C   UNL d   1      26.798 -17.010  -0.222  0.00  0.00     0.226 A 
ATOM      4  N   UNL d   1      26.083 -16.957  -1.379  0.00  0.00    -0.034 NA
ATOM      5  C   UNL d   1      25.114 -17.827  -1.185  0.00  0.00     0.739 A 
ATOM      6  N   UNL d   1      25.273 -18.392   0.052  0.00  0.00    -0.103 N 
ATOM      7  N   UNL d   1      26.339 -17.880   0.688  0.00  0.00    -0.132 NA
ATOM      8  H   UNL d   1      24.749 -19.142   0.487  0.00  0.00     0.208 HD
BRANCH   5   9
ATOM      9  N   UNL d   1      24.099 -18.206  -2.001  0.00  0.00    -0.106 N 
ATOM     10  H   UNL d   1      24.250 -18.134  -3.002  0.00  0.00     0.208 HD
BRANCH   9  11
ATOM     11  N   UNL d   1      23.002 -18.853  -1.508  0.00  0.00    -0.163 NA
ATOM     12  C   UNL d   1      22.094 -18.223  -0.818  0.00  0.00     0.080 C 
ATOM     13  C   UNL d   1      22.110 -16.733  -0.516  0.00  0.00     0.075 C 
BRANCH  12  14
ATOM     14  C   UNL d   1      20.901 -18.986  -0.289  0.00  0.00     0.082 A 
ATOM     15  C   UNL d   1      20.843 -19.332   1.058  0.00  0.00     0.034 A 
ATOM     16  C   UNL d   1      19.714 -19.987   1.543  0.00  0.00     0.004 A 
ATOM     17  C   UNL d   1      18.676 -20.289   0.674  0.00  0.00     0.019 A 
ATOM     18  C   UNL d   1      18.818 -19.925  -0.658  0.00  0.00     0.117 A 
ATOM     19  N   UNL d   1      19.904 -19.285  -1.161  0.00  0.00    -0.259 NA
ENDBRANCH  12  14
ENDBRANCH   9  11
ENDBRANCH   5   9
ENDBRANCH   2   3
ENDBRANCH   1   2
BRANCH   1  20
ATOM     20  C   UNL d   1      27.805 -13.787   1.640  0.00  0.00     0.231 C 
ATOM     21  O   UNL d   1      27.565 -12.616   1.947  0.00  0.00    -0.272 OA
ATOM     22  N   UNL d   1      28.311 -14.694   2.577  0.00  0.00    -0.327 N 
ATOM     23  H   UNL d   1      28.713 -15.571   2.268  0.00  0.00     0.169 HD
BRANCH  22  24
ATOM     24  C   UNL d   1      28.474 -14.346   3.948  0.00  0.00     0.034 A 
ATOM     25  C   UNL d   1      29.564 -14.821   4.684  0.00  0.00     0.031 A 
ATOM     26  C   UNL d   1      29.681 -14.494   6.042  0.00  0.00     0.027 A 
ATOM     27  C   UNL d   1      28.730 -13.660   6.656  0.00  0.00     0.074 A 
ATOM     28  C   UNL d   1      27.633 -13.200   5.947  0.00  0.00     0.027 A 
ATOM     29  C   UNL d   1      27.516 -13.547   4.598  0.00  0.00     0.031 A 
BRANCH  27  30
ATOM     30  S   UNL d   1      29.058 -13.179   8.319  0.00  0.00     0.242 S 
ATOM     31  O   UNL d   1      30.326 -12.498   8.270  0.00  0.00    -0.206 OA
ATOM     32  O   UNL d   1      27.844 -12.518   8.763  0.00  0.00    -0.206 OA
BRANCH  30  33
ATOM     33  N   UNL d   1      29.277 -14.604   9.263  0.00  0.00    -0.207 NA
ATOM     34  H   UNL d   1      30.014 -15.177   8.846  0.00  0.00     0.140 HD
BRANCH  33  35
ATOM     35  C   UNL d   1      29.549 -14.390  10.743  0.00  0.00     0.014 C 
ATOM     36  C   UNL d   1      30.122 -12.987  10.968  0.00  0.00     0.032 C 
ATOM     37  C   UNL d   1      28.281 -14.608  11.574  0.00  0.00     0.032 C 
ATOM     38  C   UNL d   1      30.601 -15.404  11.233  0.00  0.00     0.032 C 
ENDBRANCH  33  35
ENDBRANCH  30  33
ENDBRANCH  27  30
ENDBRANCH  22  24
ENDBRANCH   1  20
TORSDOF 10
ENDMDL
MODEL 2
REMARK VINA RESULT:   -32.834      1.717      2.395
REMARK INTER + INTRA:         -37.132
REMARK INTER:                 -35.817
REMARK INTRA:                  -1.315
REMARK CONF_INDEPENDENT:        2.983
REMARK UNBOUND:                -1.315
REMARK  10 active torsions:
REMARK  status: ('A' for Active; 'I' for Inactive)
REMARK    1  A    between atoms: C_2  and  C_29 
REMARK    2  A    between atoms: N_3  and  N_4 
REMARK    3  A    between atoms: N_4  and  C_5 
REMARK    4  A    between atoms: C_7  and  S_8 
REMARK    5  A    between atoms: S_8  and  C_9 
REMARK    6  A    between atoms: C_9  and  C_10 
REMARK       I    between atoms: C_10  and  N_12 
REMARK    7  A    between atoms: N_12  and  C_13 
REMARK    8  A    between atoms: C_16  and  S_17 
REMARK    9  A    between atoms: S_17  and  N_20 
REMARK   10  A    between atoms: N_20  and  C_21 
ROOT
ATOM      1  C   UNL d   1      27.376 -14.321   0.544  0.00  0.00     0.185 C 
ENDROOT
BRANCH   1   2
ATOM      2  S   UNL d   1      28.000 -16.047   0.513  0.00  0.00    -0.079 SA
BRANCH   2   3
ATOM      3  C   UNL d   1      26.654 -17.026   0.025  0.00  0.00     0.226 A 
ATOM      4  N   UNL d   1      25.986 -16.901  -1.154  0.00  0.00    -0.034 NA
ATOM      5  C   UNL d   1      25.044 -17.818  -1.076  0.00  0.00     0.739 A 
ATOM      6  N   UNL d   1      25.174 -18.479   0.116  0.00  0.00    -0.103 N 
ATOM      7  N   UNL d   1      26.193 -17.986   0.838  0.00  0.00    -0.132 NA
ATOM      8  H   UNL d   1      24.662 -19.281   0.464  0.00  0.00     0.208 HD
BRANCH   5   9
ATOM      9  N   UNL d   1      24.078 -18.161  -1.964  0.00  0.00    -0.106 N 
ATOM     10  H   UNL d   1      24.285 -18.042  -2.950  0.00  0.00     0.208 HD
BRANCH   9  11
ATOM     11  N   UNL d   1      22.960 -18.836  -1.565  0.00  0.00    -0.163 NA
ATOM     12  C   UNL d   1      22.092 -18.293  -0.759  0.00  0.00     0.080 C 
ATOM     13  C   UNL d   1      22.180 -16.879  -0.209  0.00  0.00     0.075 C 
BRANCH  12  14
ATOM     14  C   UNL d   1      20.872 -19.084  -0.341  0.00  0.00     0.082 A 
ATOM     15  C   UNL d   1      20.763 -19.545   0.968  0.00  0.00     0.034 A 
ATOM     16  C   UNL d   1      19.610 -20.226   1.354  0.00  0.00     0.004 A 
ATOM     17  C   UNL d   1      18.601 -20.436   0.425  0.00  0.00     0.019 A 
ATOM     18  C   UNL d   1      18.794 -19.959  -0.863  0.00  0.00     0.117 A 
ATOM     19  N   UNL d   1      19.905 -19.292  -1.270  0.00  0.00    -0.259 NA
ENDBRANCH  12  14
ENDBRANCH   9  11
ENDBRANCH   5   9
ENDBRANCH   2   3
ENDBRANCH   1   2
BRANCH   1  20
ATOM     20  C   UNL d   1      27.753 -13.691   1.907  0.00  0.00     0.231 C 
ATOM     21  O   UNL d   1      27.762 -12.470   2.080  0.00  0.00    -0.272 OA
ATOM     22  N   UNL d   1      28.124 -14.573   2.928  0.00  0.00    -0.327 N 
ATOM     23  H   UNL d   1      28.330 -15.541   2.714  0.00  0.00     0.169 HD
BRANCH  22  24
ATOM     24  C   UNL d   1      28.425 -14.114   4.243  0.00  0.00     0.034 A 
ATOM     25  C   UNL d   1      27.771 -13.001   4.782  0.00  0.00     0.031 A 
ATOM     26  C   UNL d   1      28.113 -12.547   6.063  0.00  0.00     0.027 A 
ATOM     27  C   UNL d   1      29.080 -13.229   6.822  0.00  0.00     0.074 A 
ATOM     28  C   UNL d   1      29.752 -14.318   6.295  0.00  0.00     0.027 A 
ATOM     29  C   UNL d   1      29.417 -14.751   5.009  0.00  0.00     0.031 A 
BRANCH  27  30
ATOM     30  S   UNL d   1      29.316 -12.674   8.479  0.00  0.00     0.242 S 
ATOM     31  O   UNL d   1      28.373 -13.427   9.264  0.00  0.00    -0.206 OA
ATOM     32  O   UNL d   1      30.749 -12.761   8.700  0.00  0.00    -0.206 OA
BRANCH  30  33
ATOM     33  N   UNL d   1      28.853 -11.017   8.568  0.00  0.00    -0.207 NA
ATOM     34  H   UNL d   1      28.449 -10.828   9.488  0.00  0.00     0.140 HD
BRANCH  33  35
ATOM     35  C   UNL d   1      29.937 -10.002   8.249  0.00  0.00     0.014 C 
ATOM     36  C   UNL d   1      30.798  -9.753   9.493  0.00  0.00     0.032 C 
ATOM     37  C   UNL d   1      30.795 -10.464   7.068  0.00  0.00     0.032 C 
ATOM     38  C   UNL d   1      29.295  -8.657   7.854  0.00  0.00     0.032 C 
ENDBRANCH  33  35
ENDBRANCH  30  33
ENDBRANCH  27  30
ENDBRANCH  22  24
ENDBRANCH   1  20
TORSDOF 10
ENDMDL
MODEL 3
REMARK VINA RESULT:   -31.310      1.739      2.016
REMARK INTER + INTRA:         -35.403
REMARK INTER:                 -34.293
REMARK INTRA:                  -1.110
REMARK CONF_INDEPENDENT:        2.983
REMARK UNBOUND:                -1.110
REMARK  10 active torsions:
REMARK  status: ('A' for Active; 'I' for Inactive)
REMARK    1  A    between atoms: C_2  and  C_29 
REMARK    2  A    between atoms: N_3  and  N_4 
REMARK    3  A    between atoms: N_4  and  C_5 
REMARK    4  A    between atoms: C_7  and  S_8 
REMARK    5  A    between atoms: S_8  and  C_9 
REMARK    6  A    between atoms: C_9  and  C_10 
REMARK       I    between atoms: C_10  and  N_12 
REMARK    7  A    between atoms: N_12  and  C_13 
REMARK    8  A    between atoms: C_16  and  S_17 
REMARK    9  A    between atoms: S_17  and  N_20 
REMARK   10  A    between atoms: N_20  and  C_21 
ROOT
ATOM      1  C   UNL d   1      28.275 -14.677  -0.701  0.00  0.00     0.185 C 
ENDROOT
BRANCH   1   2
ATOM      2  S   UNL d   1      28.101 -16.380  -0.038  0.00  0.00    -0.079 SA
BRANCH   2   3
ATOM      3  C   UNL d   1      26.406 -16.740  -0.102  0.00  0.00     0.226 A 
ATOM      4  N   UNL d   1      25.471 -15.981  -0.737  0.00  0.00    -0.034 NA
ATOM      5  C   UNL d   1      24.343 -16.616  -0.498  0.00  0.00     0.739 A 
ATOM      6  N   UNL d   1      24.617 -17.734   0.243  0.00  0.00    -0.103 N 
ATOM      7  N   UNL d   1      25.928 -17.830   0.514  0.00  0.00    -0.132 NA
ATOM      8  H   UNL d   1      23.994 -18.476   0.539  0.00  0.00     0.208 HD
BRANCH   5   9
ATOM      9  N   UNL d   1      23.075 -16.329  -0.888  0.00  0.00    -0.106 N 
ATOM     10  H   UNL d   1      22.956 -15.630  -1.613  0.00  0.00     0.208 HD
BRANCH   9  11
ATOM     11  N   UNL d   1      22.021 -17.094  -0.479  0.00  0.00    -0.163 NA
ATOM     12  C   UNL d   1      21.901 -18.338  -0.848  0.00  0.00     0.080 C 
ATOM     13  C   UNL d   1      22.899 -19.089  -1.715  0.00  0.00     0.075 C 
BRANCH  12  14
ATOM     14  C   UNL d   1      20.712 -19.142  -0.372  0.00  0.00     0.082 A 
ATOM     15  C   UNL d   1      20.690 -19.641   0.927  0.00  0.00     0.034 A 
ATOM     16  C   UNL d   1      19.565 -20.333   1.370  0.00  0.00     0.004 A 
ATOM     17  C   UNL d   1      18.496 -20.517   0.506  0.00  0.00     0.019 A 
ATOM     18  C   UNL d   1      18.603 -20.003  -0.779  0.00  0.00     0.117 A 
ATOM     19  N   UNL d   1      19.684 -19.324  -1.240  0.00  0.00    -0.259 NA
ENDBRANCH  12  14
ENDBRANCH   9  11
ENDBRANCH   5   9
ENDBRANCH   2   3
ENDBRANCH   1   2
BRANCH   1  20
ATOM     20  C   UNL d   1      28.527 -13.716   0.486  0.00  0.00     0.231 C 
ATOM     21  O   UNL d   1      28.409 -12.493   0.371  0.00  0.00    -0.272 OA
ATOM     22  N   UNL d   1      28.935 -14.296   1.692  0.00  0.00    -0.327 N 
ATOM     23  H   UNL d   1      29.244 -15.260   1.713  0.00  0.00     0.169 HD
BRANCH  22  24
ATOM     24  C   UNL d   1      29.129 -13.519   2.870  0.00  0.00     0.034 A 
ATOM     25  C   UNL d   1      30.223 -13.753   3.711  0.00  0.00     0.031 A 
ATOM     26  C   UNL d   1      30.370 -13.001   4.884  0.00  0.00     0.027 A 
ATOM     27  C   UNL d   1      29.448 -11.987   5.198  0.00  0.00     0.074 A 
ATOM     28  C   UNL d   1      28.350 -11.758   4.388  0.00  0.00     0.027 A 
ATOM     29  C   UNL d   1      28.201 -12.526   3.231  0.00  0.00     0.031 A 
BRANCH  27  30
ATOM     30  S   UNL d   1      29.817 -10.994   6.607  0.00  0.00     0.242 S 
ATOM     31  O   UNL d   1      30.877 -10.118   6.181  0.00  0.00    -0.206 OA
ATOM     32  O   UNL d   1      28.531 -10.489   7.054  0.00  0.00    -0.206 OA
BRANCH  30  33
ATOM     33  N   UNL d   1      30.458 -12.015   7.838  0.00  0.00    -0.207 NA
ATOM     34  H   UNL d   1      30.938 -11.442   8.536  0.00  0.00     0.140 HD
BRANCH  33  35
ATOM     35  C   UNL d   1      29.468 -12.950   8.513  0.00  0.00     0.014 C 
ATOM     36  C   UNL d   1      30.092 -14.341   8.670  0.00  0.00     0.032 C 
ATOM     37  C   UNL d   1      29.015 -12.392   9.865  0.00  0.00     0.032 C 
ATOM     38  C   UNL d   1      28.211 -13.104   7.634  0.00  0.00     0.032 C 
ENDBRANCH  33  35
ENDBRANCH  30  33
ENDBRANCH  27  30
ENDBRANCH  22  24
ENDBRANCH   1  20
TORSDOF 10
ENDMDL
MODEL 4
REMARK VINA RESULT:   -31.228      5.606      9.769
REMARK INTER + INTRA:         -35.466
REMARK INTER:                 -34.211
REMARK INTRA:                  -1.255
REMARK CONF_INDEPENDENT:        2.983
REMARK UNBOUND:                -1.255
REMARK  10 active torsions:
REMARK  status: ('A' for Active; 'I' for Inactive)
REMARK    1  A    between atoms: C_2  and  C_29 
REMARK    2  A    between atoms: N_3  and  N_4 
REMARK    3  A    between atoms: N_4  and  C_5 
REMARK    4  A    between atoms: C_7  and  S_8 
REMARK    5  A    between atoms: S_8  and  C_9 
REMARK    6  A    between atoms: C_9  and  C_10 
REMARK       I    between atoms: C_10  and  N_12 
REMARK    7  A    between atoms: N_12  and  C_13 
REMARK    8  A    between atoms: C_16  and  S_17 
REMARK    9  A    between atoms: S_17  and  N_20 
REMARK   10  A    between atoms: N_20  and  C_21 
ROOT
ATOM      1  C   UNL d   1      28.914 -15.590   0.664  0.00  0.00     0.185 C 
ENDROOT
BRANCH   1   2
ATOM      2  S   UNL d   1      27.220 -14.947   0.364  0.00  0.00    -0.079 SA
BRANCH   2   3
ATOM      3  C   UNL d   1      26.280 -16.312  -0.144  0.00  0.00     0.226 A 
ATOM      4  N   UNL d   1      25.461 -16.333  -1.232  0.00  0.00    -0.034 NA
ATOM      5  C   UNL d   1      24.945 -17.544  -1.207  0.00  0.00     0.739 A 
ATOM      6  N   UNL d   1      25.469 -18.223  -0.139  0.00  0.00    -0.103 N 
ATOM      7  N   UNL d   1      26.319 -17.453   0.558  0.00  0.00    -0.132 NA
ATOM      8  H   UNL d   1      25.340 -19.191   0.131  0.00  0.00     0.208 HD
BRANCH   5   9
ATOM      9  N   UNL d   1      24.065 -18.140  -2.051  0.00  0.00    -0.106 N 
ATOM     10  H   UNL d   1      24.326 -18.207  -3.029  0.00  0.00     0.208 HD
BRANCH   9  11
ATOM     11  N   UNL d   1      22.974 -18.809  -1.574  0.00  0.00    -0.163 NA
ATOM     12  C   UNL d   1      22.062 -18.204  -0.866  0.00  0.00     0.080 C 
ATOM     13  C   UNL d   1      22.067 -16.723  -0.524  0.00  0.00     0.075 C 
BRANCH  12  14
ATOM     14  C   UNL d   1      20.876 -18.991  -0.357  0.00  0.00     0.082 A 
ATOM     15  C   UNL d   1      20.798 -19.329   0.991  0.00  0.00     0.034 A 
ATOM     16  C   UNL d   1      19.674 -20.007   1.458  0.00  0.00     0.004 A 
ATOM     17  C   UNL d   1      18.662 -20.337   0.569  0.00  0.00     0.019 A 
ATOM     18  C   UNL d   1      18.822 -19.978  -0.761  0.00  0.00     0.117 A 
ATOM     19  N   UNL d   1      19.904 -19.317  -1.247  0.00  0.00    -0.259 NA
ENDBRANCH  12  14
ENDBRANCH   9  11
ENDBRANCH   5   9
ENDBRANCH   2   3
ENDBRANCH   1   2
BRANCH   1  20
ATOM     20  C   UNL d   1      29.332 -16.446  -0.556  0.00  0.00     0.231 C 
ATOM     21  O   UNL d   1      28.842 -16.269  -1.674  0.00  0.00    -0.272 OA
ATOM     22  N   UNL d   1      30.266 -17.461  -0.325  0.00  0.00    -0.327 N 
ATOM     23  H   UNL d   1      30.487 -17.742   0.623  0.00  0.00     0.169 HD
BRANCH  22  24
ATOM     24  C   UNL d   1      30.776 -18.267  -1.382  0.00  0.00     0.034 A 
ATOM     25  C   UNL d   1      30.889 -17.758  -2.681  0.00  0.00     0.031 A 
ATOM     26  C   UNL d   1      31.358 -18.584  -3.712  0.00  0.00     0.027 A 
ATOM     27  C   UNL d   1      31.753 -19.905  -3.439  0.00  0.00     0.074 A 
ATOM     28  C   UNL d   1      31.627 -20.430  -2.164  0.00  0.00     0.027 A 
ATOM     29  C   UNL d   1      31.140 -19.604  -1.147  0.00  0.00     0.031 A 
BRANCH  27  30
ATOM     30  S   UNL d   1      32.480 -20.802  -4.770  0.00  0.00     0.242 S 
ATOM     31  O   UNL d   1      33.842 -21.035  -4.366  0.00  0.00    -0.206 OA
ATOM     32  O   UNL d   1      31.556 -21.891  -5.035  0.00  0.00    -0.206 OA
BRANCH  30  33
ATOM     33  N   UNL d   1      32.523 -19.778  -6.155  0.00  0.00    -0.207 NA
ATOM     34  H   UNL d   1      33.425 -19.883  -6.625  0.00  0.00     0.140 HD
BRANCH  33  35
ATOM     35  C   UNL d   1      31.387 -19.951  -7.150  0.00  0.00     0.014 C 
ATOM     36  C   UNL d   1      31.621 -21.209  -7.992  0.00  0.00     0.032 C 
ATOM     37  C   UNL d   1      30.033 -20.008  -6.436  0.00  0.00     0.032 C 
ATOM     38  C   UNL d   1      31.349 -18.749  -8.114  0.00  0.00     0.032 C 
ENDBRANCH  33  35
ENDBRANCH  30  33
ENDBRANCH  27  30
ENDBRANCH  22  24
ENDBRANCH   1  20
TORSDOF 10
ENDMDL
MODEL 5
REMARK VINA RESULT:   -31.206      6.360      9.626
REMARK INTER + INTRA:         -36.131
REMARK INTER:                 -34.189
REMARK INTRA:                  -1.942
REMARK CONF_INDEPENDENT:        2.983
REMARK UNBOUND:                -1.942
REMARK  10 active torsions:
REMARK  status: ('A' for Active; 'I' for Inactive)
REMARK    1  A    between atoms: C_2  and  C_29 
REMARK    2  A    between atoms: N_3  and  N_4 
REMARK    3  A    between atoms: N_4  and  C_5 
REMARK    4  A    between atoms: C_7  and  S_8 
REMARK    5  A    between atoms: S_8  and  C_9 
REMARK    6  A    between atoms: C_9  and  C_10 
REMARK       I    between atoms: C_10  and  N_12 
REMARK    7  A    between atoms: N_12  and  C_13 
REMARK    8  A    between atoms: C_16  and  S_17 
REMARK    9  A    between atoms: S_17  and  N_20 
REMARK   10  A    between atoms: N_20  and  C_21 
ROOT
ATOM      1  C   UNL d   1      28.885 -17.063  -1.484  0.00  0.00     0.185 C 
ENDROOT
BRANCH   1   2
ATOM      2  S   UNL d   1      28.253 -16.707   0.202  0.00  0.00    -0.079 SA
BRANCH   2   3
ATOM      3  C   UNL d   1      26.542 -16.978   0.133  0.00  0.00     0.226 A 
ATOM      4  N   UNL d   1      25.653 -16.188  -0.530  0.00  0.00    -0.034 NA
ATOM      5  C   UNL d   1      24.491 -16.756  -0.286  0.00  0.00     0.739 A 
ATOM      6  N   UNL d   1      24.700 -17.867   0.487  0.00  0.00    -0.103 N 
ATOM      7  N   UNL d   1      26.001 -18.026   0.772  0.00  0.00    -0.132 NA
ATOM      8  H   UNL d   1      24.036 -18.567   0.796  0.00  0.00     0.208 HD
BRANCH   5   9
ATOM      9  N   UNL d   1      23.244 -16.413  -0.694  0.00  0.00    -0.106 N 
ATOM     10  H   UNL d   1      23.165 -15.686  -1.397  0.00  0.00     0.208 HD
BRANCH   9  11
ATOM     11  N   UNL d   1      22.155 -17.155  -0.335  0.00  0.00    -0.163 NA
ATOM     12  C   UNL d   1      21.992 -18.374  -0.766  0.00  0.00     0.080 C 
ATOM     13  C   UNL d   1      22.972 -19.120  -1.657  0.00  0.00     0.075 C 
BRANCH  12  14
ATOM     14  C   UNL d   1      20.766 -19.152  -0.345  0.00  0.00     0.082 A 
ATOM     15  C   UNL d   1      20.671 -19.642   0.954  0.00  0.00     0.034 A 
ATOM     16  C   UNL d   1      19.513 -20.311   1.344  0.00  0.00     0.004 A 
ATOM     17  C   UNL d   1      18.484 -20.480   0.430  0.00  0.00     0.019 A 
ATOM     18  C   UNL d   1      18.663 -19.976  -0.850  0.00  0.00     0.117 A 
ATOM     19  N   UNL d   1      19.778 -19.320  -1.262  0.00  0.00    -0.259 NA
ENDBRANCH  12  14
ENDBRANCH   9  11
ENDBRANCH   5   9
ENDBRANCH   2   3
ENDBRANCH   1   2
BRANCH   1  20
ATOM     20  C   UNL d   1      28.604 -15.831  -2.379  0.00  0.00     0.231 C 
ATOM     21  O   UNL d   1      29.418 -15.435  -3.216  0.00  0.00    -0.272 OA
ATOM     22  N   UNL d   1      27.395 -15.159  -2.167  0.00  0.00    -0.327 N 
ATOM     23  H   UNL d   1      26.846 -15.351  -1.337  0.00  0.00     0.169 HD
BRANCH  22  24
ATOM     24  C   UNL d   1      26.998 -14.055  -2.975  0.00  0.00     0.034 A 
ATOM     25  C   UNL d   1      27.592 -12.799  -2.815  0.00  0.00     0.031 A 
ATOM     26  C   UNL d   1      27.157 -11.720  -3.596  0.00  0.00     0.027 A 
ATOM     27  C   UNL d   1      26.155 -11.905  -4.565  0.00  0.00     0.074 A 
ATOM     28  C   UNL d   1      25.542 -13.136  -4.721  0.00  0.00     0.027 A 
ATOM     29  C   UNL d   1      25.970 -14.200  -3.923  0.00  0.00     0.031 A 
BRANCH  27  30
ATOM     30  S   UNL d   1      25.799 -10.525  -5.603  0.00  0.00     0.242 S 
ATOM     31  O   UNL d   1      25.136 -11.082  -6.753  0.00  0.00    -0.206 OA
ATOM     32  O   UNL d   1      25.154  -9.559  -4.732  0.00  0.00    -0.206 OA
BRANCH  30  33
ATOM     33  N   UNL d   1      27.291  -9.855  -6.146  0.00  0.00    -0.207 NA
ATOM     34  H   UNL d   1      28.041 -10.140  -5.512  0.00  0.00     0.140 HD
BRANCH  33  35
ATOM     35  C   UNL d   1      27.675 -10.155  -7.585  0.00  0.00     0.014 C 
ATOM     36  C   UNL d   1      27.714 -11.671  -7.807  0.00  0.00     0.032 C 
ATOM     37  C   UNL d   1      26.712  -9.479  -8.566  0.00  0.00     0.032 C 
ATOM     38  C   UNL d   1      29.087  -9.609  -7.875  0.00  0.00     0.032 C 
ENDBRANCH  33  35
ENDBRANCH  30  33
ENDBRANCH  27  30
ENDBRANCH  22  24
ENDBRANCH   1  20
TORSDOF 10
ENDMDL
MODEL 6
REMARK VINA RESULT:   -31.030      6.593      9.204
REMARK INTER + INTRA:         -35.922
REMARK INTER:                 -34.013
REMARK INTRA:                  -1.909
REMARK CONF_INDEPENDENT:        2.983
REMARK UNBOUND:                -1.909
REMARK  10 active torsions:
REMARK  status: ('A' for Active; 'I' for Inactive)
REMARK    1  A    between atoms: C_2  and  C_29 
REMARK    2  A    between atoms: N_3  and  N_4 
REMARK    3  A    between atoms: N_4  and  C_5 
REMARK    4  A    between atoms: C_7  and  S_8 
REMARK    5  A    between atoms: S_8  and  C_9 
REMARK    6  A    between atoms: C_9  and  C_10 
REMARK       I    between atoms: C_10  and  N_12 
REMARK    7  A    between atoms: N_12  and  C_13 
REMARK    8  A    between atoms: C_16  and  S_17 
REMARK    9  A    between atoms: S_17  and  N_20 
REMARK   10  A    between atoms: N_20  and  C_21 
ROOT
ATOM      1  C   UNL d   1      28.856 -17.066  -2.117  0.00  0.00     0.185 C 
ENDROOT
BRANCH   1   2
ATOM      2  S   UNL d   1      28.428 -16.869  -0.343  0.00  0.00    -0.079 SA
BRANCH   2   3
ATOM      3  C   UNL d   1      26.705 -17.040  -0.251  0.00  0.00     0.226 A 
ATOM      4  N   UNL d   1      25.808 -16.266  -0.922  0.00  0.00    -0.034 NA
ATOM      5  C   UNL d   1      24.641 -16.735  -0.531  0.00  0.00     0.739 A 
ATOM      6  N   UNL d   1      24.853 -17.774   0.335  0.00  0.00    -0.103 N 
ATOM      7  N   UNL d   1      26.164 -17.983   0.533  0.00  0.00    -0.132 NA
ATOM      8  H   UNL d   1      24.181 -18.397   0.766  0.00  0.00     0.208 HD
BRANCH   5   9
ATOM      9  N   UNL d   1      23.384 -16.357  -0.875  0.00  0.00    -0.106 N 
ATOM     10  H   UNL d   1      23.289 -15.628  -1.574  0.00  0.00     0.208 HD
BRANCH   9  11
ATOM     11  N   UNL d   1      22.295 -17.070  -0.462  0.00  0.00    -0.163 NA
ATOM     12  C   UNL d   1      22.104 -18.302  -0.844  0.00  0.00     0.080 C 
ATOM     13  C   UNL d   1      23.050 -19.093  -1.733  0.00  0.00     0.075 C 
BRANCH  12  14
ATOM     14  C   UNL d   1      20.880 -19.046  -0.363  0.00  0.00     0.082 A 
ATOM     15  C   UNL d   1      20.773 -19.409   0.977  0.00  0.00     0.034 A 
ATOM     16  C   UNL d   1      19.616 -20.046   1.418  0.00  0.00     0.004 A 
ATOM     17  C   UNL d   1      18.599 -20.313   0.513  0.00  0.00     0.019 A 
ATOM     18  C   UNL d   1      18.790 -19.935  -0.808  0.00  0.00     0.117 A 
ATOM     19  N   UNL d   1      19.904 -19.311  -1.269  0.00  0.00    -0.259 NA
ENDBRANCH  12  14
ENDBRANCH   9  11
ENDBRANCH   5   9
ENDBRANCH   2   3
ENDBRANCH   1   2
BRANCH   1  20
ATOM     20  C   UNL d   1      28.664 -15.700  -2.819  0.00  0.00     0.231 C 
ATOM     21  O   UNL d   1      29.292 -15.397  -3.836  0.00  0.00    -0.272 OA
ATOM     22  N   UNL d   1      27.771 -14.804  -2.222  0.00  0.00    -0.327 N 
ATOM     23  H   UNL d   1      27.439 -14.969  -1.280  0.00  0.00     0.169 HD
BRANCH  22  24
ATOM     24  C   UNL d   1      27.462 -13.546  -2.814  0.00  0.00     0.034 A 
ATOM     25  C   UNL d   1      27.579 -12.360  -2.081  0.00  0.00     0.031 A 
ATOM     26  C   UNL d   1      27.233 -11.139  -2.675  0.00  0.00     0.027 A 
ATOM     27  C   UNL d   1      26.807 -11.097  -4.014  0.00  0.00     0.074 A 
ATOM     28  C   UNL d   1      26.665 -12.263  -4.746  0.00  0.00     0.027 A 
ATOM     29  C   UNL d   1      26.994 -13.477  -4.138  0.00  0.00     0.031 A 
BRANCH  27  30
ATOM     30  S   UNL d   1      26.555  -9.498  -4.712  0.00  0.00     0.242 S 
ATOM     31  O   UNL d   1      26.979  -8.573  -3.694  0.00  0.00    -0.206 OA
ATOM     32  O   UNL d   1      27.190  -9.556  -6.017  0.00  0.00    -0.206 OA
BRANCH  30  33
ATOM     33  N   UNL d   1      24.863  -9.267  -4.943  0.00  0.00    -0.207 NA
ATOM     34  H   UNL d   1      24.361  -9.585  -4.110  0.00  0.00     0.140 HD
BRANCH  33  35
ATOM     35  C   UNL d   1      24.425  -7.861  -5.317  0.00  0.00     0.014 C 
ATOM     36  C   UNL d   1      25.082  -7.447  -6.638  0.00  0.00     0.032 C 
ATOM     37  C   UNL d   1      22.899  -7.763  -5.405  0.00  0.00     0.032 C 
ATOM     38  C   UNL d   1      24.889  -6.863  -4.237  0.00  0.00     0.032 C 
ENDBRANCH  33  35
ENDBRANCH  30  33
ENDBRANCH  27  30
ENDBRANCH  22  24
ENDBRANCH   1  20
TORSDOF 10
ENDMDL
MODEL 7
REMARK VINA RESULT:   -30.731      7.305     10.339
REMARK INTER + INTRA:         -35.441
REMARK INTER:                 -33.714
REMARK INTRA:                  -1.728
REMARK CONF_INDEPENDENT:        2.983
REMARK UNBOUND:                -1.728
REMARK  10 active torsions:
REMARK  status: ('A' for Active; 'I' for Inactive)
REMARK    1  A    between atoms: C_2  and  C_29 
REMARK    2  A    between atoms: N_3  and  N_4 
REMARK    3  A    between atoms: N_4  and  C_5 
REMARK    4  A    between atoms: C_7  and  S_8 
REMARK    5  A    between atoms: S_8  and  C_9 
REMARK    6  A    between atoms: C_9  and  C_10 
REMARK       I    between atoms: C_10  and  N_12 
REMARK    7  A    between atoms: N_12  and  C_13 
REMARK    8  A    between atoms: C_16  and  S_17 
REMARK    9  A    between atoms: S_17  and  N_20 
REMARK   10  A    between atoms: N_20  and  C_21 
ROOT
ATOM      1  C   UNL d   1      25.555 -13.071  -2.723  0.00  0.00     0.185 C 
ENDROOT
BRANCH   1   2
ATOM      2  S   UNL d   1      24.266 -14.303  -3.161  0.00  0.00    -0.079 SA
BRANCH   2   3
ATOM      3  C   UNL d   1      24.532 -15.657  -2.112  0.00  0.00     0.226 A 
ATOM      4  N   UNL d   1      23.760 -15.974  -1.036  0.00  0.00    -0.034 NA
ATOM      5  C   UNL d   1      24.347 -17.042  -0.537  0.00  0.00     0.739 A 
ATOM      6  N   UNL d   1      25.428 -17.354  -1.318  0.00  0.00    -0.103 N 
ATOM      7  N   UNL d   1      25.569 -16.479  -2.326  0.00  0.00    -0.132 NA
ATOM      8  H   UNL d   1      26.053 -18.148  -1.259  0.00  0.00     0.208 HD
BRANCH   5   9
ATOM      9  N   UNL d   1      24.017 -17.802   0.537  0.00  0.00    -0.106 N 
ATOM     10  H   UNL d   1      24.667 -17.818   1.316  0.00  0.00     0.208 HD
BRANCH   9  11
ATOM     11  N   UNL d   1      22.773 -18.352   0.657  0.00  0.00    -0.163 NA
ATOM     12  C   UNL d   1      22.217 -18.998  -0.330  0.00  0.00     0.080 C 
ATOM     13  C   UNL d   1      22.869 -19.252  -1.679  0.00  0.00     0.075 C 
BRANCH  12  14
ATOM     14  C   UNL d   1      20.835 -19.583  -0.148  0.00  0.00     0.082 A 
ATOM     15  C   UNL d   1      20.549 -20.344   0.981  0.00  0.00     0.034 A 
ATOM     16  C   UNL d   1      19.257 -20.831   1.163  0.00  0.00     0.004 A 
ATOM     17  C   UNL d   1      18.286 -20.555   0.211  0.00  0.00     0.019 A 
ATOM     18  C   UNL d   1      18.655 -19.803  -0.895  0.00  0.00     0.117 A 
ATOM     19  N   UNL d   1      19.905 -19.313  -1.100  0.00  0.00    -0.259 NA
ENDBRANCH  12  14
ENDBRANCH   9  11
ENDBRANCH   5   9
ENDBRANCH   2   3
ENDBRANCH   1   2
BRANCH   1  20
ATOM     20  C   UNL d   1      26.836 -13.401  -3.527  0.00  0.00     0.231 C 
ATOM     21  O   UNL d   1      27.705 -12.553  -3.744  0.00  0.00    -0.272 OA
ATOM     22  N   UNL d   1      26.948 -14.700  -4.033  0.00  0.00    -0.327 N 
ATOM     23  H   UNL d   1      26.140 -15.311  -4.045  0.00  0.00     0.169 HD
BRANCH  22  24
ATOM     24  C   UNL d   1      28.111 -15.138  -4.728  0.00  0.00     0.034 A 
ATOM     25  C   UNL d   1      29.153 -15.781  -4.050  0.00  0.00     0.031 A 
ATOM     26  C   UNL d   1      30.303 -16.167  -4.751  0.00  0.00     0.027 A 
ATOM     27  C   UNL d   1      30.397 -15.948  -6.136  0.00  0.00     0.074 A 
ATOM     28  C   UNL d   1      29.385 -15.294  -6.817  0.00  0.00     0.027 A 
ATOM     29  C   UNL d   1      28.251 -14.896  -6.106  0.00  0.00     0.031 A 
BRANCH  27  30
ATOM     30  S   UNL d   1      31.812 -16.619  -6.946  0.00  0.00     0.242 S 
ATOM     31  O   UNL d   1      32.480 -15.488  -7.534  0.00  0.00    -0.206 OA
ATOM     32  O   UNL d   1      32.450 -17.460  -5.948  0.00  0.00    -0.206 OA
BRANCH  30  33
ATOM     33  N   UNL d   1      31.272 -17.625  -8.236  0.00  0.00    -0.207 NA
ATOM     34  H   UNL d   1      31.714 -17.325  -9.108  0.00  0.00     0.140 HD
BRANCH  33  35
ATOM     35  C   UNL d   1      31.457 -19.121  -8.040  0.00  0.00     0.014 C 
ATOM     36  C   UNL d   1      30.781 -19.883  -9.186  0.00  0.00     0.032 C 
ATOM     37  C   UNL d   1      32.941 -19.484  -7.935  0.00  0.00     0.032 C 
ATOM     38  C   UNL d   1      30.780 -19.564  -6.728  0.00  0.00     0.032 C 
ENDBRANCH  33  35
ENDBRANCH  30  33
ENDBRANCH  27  30
ENDBRANCH  22  24
ENDBRANCH   1  20
TORSDOF 10
ENDMDL
MODEL 8
REMARK VINA RESULT:   -30.666      5.538     10.284
REMARK INTER + INTRA:         -35.569
REMARK INTER:                 -33.649
REMARK INTRA:                  -1.921
REMARK CONF_INDEPENDENT:        2.983
REMARK UNBOUND:                -1.921
REMARK  10 active torsions:
REMARK  status: ('A' for Active; 'I' for Inactive)
REMARK    1  A    between atoms: C_2  and  C_29 
REMARK    2  A    between atoms: N_3  and  N_4 
REMARK    3  A    between atoms: N_4  and  C_5 
REMARK    4  A    between atoms: C_7  and  S_8 
REMARK    5  A    between atoms: S_8  and  C_9 
REMARK    6  A    between atoms: C_9  and  C_10 
REMARK       I    between atoms: C_10  and  N_12 
REMARK    7  A    between atoms: N_12  and  C_13 
REMARK    8  A    between atoms: C_16  and  S_17 
REMARK    9  A    between atoms: S_17  and  N_20 
REMARK   10  A    between atoms: N_20  and  C_21 
ROOT
ATOM      1  C   UNL d   1      28.834 -15.503   0.747  0.00  0.00     0.185 C 
ENDROOT
BRANCH   1   2
ATOM      2  S   UNL d   1      27.094 -14.985   0.470  0.00  0.00    -0.079 SA
BRANCH   2   3
ATOM      3  C   UNL d   1      26.290 -16.370  -0.195  0.00  0.00     0.226 A 
ATOM      4  N   UNL d   1      25.281 -16.322  -1.108  0.00  0.00    -0.034 NA
ATOM      5  C   UNL d   1      24.971 -17.588  -1.293  0.00  0.00     0.739 A 
ATOM      6  N   UNL d   1      25.796 -18.360  -0.519  0.00  0.00    -0.103 N 
ATOM      7  N   UNL d   1      26.642 -17.603   0.196  0.00  0.00    -0.132 NA
ATOM      8  H   UNL d   1      25.873 -19.369  -0.473  0.00  0.00     0.208 HD
BRANCH   5   9
ATOM      9  N   UNL d   1      24.040 -18.154  -2.102  0.00  0.00    -0.106 N 
ATOM     10  H   UNL d   1      24.249 -18.203  -3.093  0.00  0.00     0.208 HD
BRANCH   9  11
ATOM     11  N   UNL d   1      22.966 -18.819  -1.583  0.00  0.00    -0.163 NA
ATOM     12  C   UNL d   1      22.071 -18.205  -0.861  0.00  0.00     0.080 C 
ATOM     13  C   UNL d   1      22.078 -16.718  -0.546  0.00  0.00     0.075 C 
BRANCH  12  14
ATOM     14  C   UNL d   1      20.903 -18.987  -0.304  0.00  0.00     0.082 A 
ATOM     15  C   UNL d   1      20.869 -19.310   1.049  0.00  0.00     0.034 A 
ATOM     16  C   UNL d   1      19.762 -19.983   1.559  0.00  0.00     0.004 A 
ATOM     17  C   UNL d   1      18.722 -20.325   0.708  0.00  0.00     0.019 A 
ATOM     18  C   UNL d   1      18.839 -19.982  -0.631  0.00  0.00     0.117 A 
ATOM     19  N   UNL d   1      19.904 -19.325  -1.159  0.00  0.00    -0.259 NA
ENDBRANCH  12  14
ENDBRANCH   9  11
ENDBRANCH   5   9
ENDBRANCH   2   3
ENDBRANCH   1   2
BRANCH   1  20
ATOM     20  C   UNL d   1      29.524 -15.647  -0.631  0.00  0.00     0.231 C 
ATOM     21  O   UNL d   1      30.467 -14.926  -0.965  0.00  0.00    -0.272 OA
ATOM     22  N   UNL d   1      29.003 -16.611  -1.500  0.00  0.00    -0.327 N 
ATOM     23  H   UNL d   1      28.102 -17.033  -1.309  0.00  0.00     0.169 HD
BRANCH  22  24
ATOM     24  C   UNL d   1      29.598 -16.881  -2.766  0.00  0.00     0.034 A 
ATOM     25  C   UNL d   1      29.360 -16.046  -3.863  0.00  0.00     0.031 A 
ATOM     26  C   UNL d   1      29.928 -16.355  -5.106  0.00  0.00     0.027 A 
ATOM     27  C   UNL d   1      30.765 -17.475  -5.246  0.00  0.00     0.074 A 
ATOM     28  C   UNL d   1      30.992 -18.324  -4.176  0.00  0.00     0.027 A 
ATOM     29  C   UNL d   1      30.406 -18.017  -2.945  0.00  0.00     0.031 A 
BRANCH  27  30
ATOM     30  S   UNL d   1      31.556 -17.679  -6.808  0.00  0.00     0.242 S 
ATOM     31  O   UNL d   1      30.720 -16.977  -7.747  0.00  0.00    -0.206 OA
ATOM     32  O   UNL d   1      32.940 -17.306  -6.576  0.00  0.00    -0.206 OA
BRANCH  30  33
ATOM     33  N   UNL d   1      31.507 -19.349  -7.227  0.00  0.00    -0.207 NA
ATOM     34  H   UNL d   1      30.563 -19.710  -7.073  0.00  0.00     0.140 HD
BRANCH  33  35
ATOM     35  C   UNL d   1      31.984 -19.701  -8.627  0.00  0.00     0.014 C 
ATOM     36  C   UNL d   1      32.732 -18.511  -9.236  0.00  0.00     0.032 C 
ATOM     37  C   UNL d   1      32.862 -20.956  -8.611  0.00  0.00     0.032 C 
ATOM     38  C   UNL d   1      30.772 -19.999  -9.533  0.00  0.00     0.032 C 
ENDBRANCH  33  35
ENDBRANCH  30  33
ENDBRANCH  27  30
ENDBRANCH  22  24
ENDBRANCH   1  20
TORSDOF 10
ENDMDL
