MODEL 1
REMARK VINA RESULT:    -7.579      0.000      0.000
REMARK INTER + INTRA:         -13.284
REMARK INTER:                 -10.562
REMARK INTRA:                  -2.722
REMARK CONF_INDEPENDENT:        2.983
REMARK UNBOUND:                -2.722
REMARK  10 active torsions:
REMARK  status: ('A' for Active; 'I' for Inactive)
REMARK    1  A    between atoms: C_2  and  C_3 
REMARK    2  A    between atoms: C_4  and  C_5 
REMARK       I    between atoms: C_5  and  N_7 
REMARK    3  A    between atoms: N_7  and  C_8 
REMARK    4  A    between atoms: C_8  and  C_9 
REMARK    5  A    between atoms: C_9  and  O_10 
REMARK    6  A    between atoms: C_9  and  C_11 
REMARK    7  A    between atoms: C_11  and  O_12 
REMARK    8  A    between atoms: O_12  and  C_13 
REMARK    9  A    between atoms: C_16  and  N_17 
REMARK   10  A    between atoms: C_25  and  C_26 
ROOT
ATOM      1  C   UNL d   1      27.776 -14.777   1.431  0.00  0.00     0.268 C 
ATOM      2  O   UNL d   1      26.735 -14.644   0.776  0.00  0.00    -0.266 OA
ATOM      3  N   UNL d   1      28.795 -15.569   0.950  0.00  0.00    -0.353 N 
ATOM      4  H   UNL d   1      29.619 -15.729   1.493  0.00  0.00     0.162 HD
ENDROOT
BRANCH   3   5
ATOM      5  C   UNL d   1      28.733 -16.323  -0.296  0.00  0.00     0.156 C 
BRANCH   5   6
ATOM      6  C   UNL d   1      27.619 -17.395  -0.283  0.00  0.00     0.160 C 
BRANCH   6   7
ATOM      7  O   UNL d   1      27.047 -17.457   1.033  0.00  0.00    -0.392 OA
ATOM      8  H   UNL d   1      26.370 -16.762   1.103  0.00  0.00     0.210 HD
ENDBRANCH   6   7
BRANCH   6   9
ATOM      9  C   UNL d   1      26.542 -17.081  -1.344  0.00  0.00     0.209 C 
BRANCH   9  10
ATOM     10  O   UNL d   1      25.400 -16.477  -0.718  0.00  0.00    -0.349 OA
BRANCH  10  11
ATOM     11  C   UNL d   1      24.227 -17.183  -0.781  0.00  0.00     0.069 A 
ATOM     12  C   UNL d   1      23.061 -16.428  -0.952  0.00  0.00     0.039 A 
ATOM     13  C   UNL d   1      21.799 -17.034  -0.894  0.00  0.00     0.039 A 
ATOM     14  C   UNL d   1      21.713 -18.421  -0.735  0.00  0.00     0.103 A 
ATOM     15  C   UNL d   1      22.872 -19.185  -0.555  0.00  0.00     0.039 A 
ATOM     16  C   UNL d   1      24.126 -18.559  -0.570  0.00  0.00     0.039 A 
BRANCH  14  17
ATOM     17  N   UNL d   1      20.405 -19.088  -0.813  0.00  0.00    -0.116 N 
ATOM     18  O   UNL d   1      19.640 -18.975   0.156  0.00  0.00    -0.532 OA
ATOM     19  O   UNL d   1      20.133 -19.700  -1.855  0.00  0.00    -0.532 OA
ENDBRANCH  14  17
ENDBRANCH  10  11
ENDBRANCH   9  10
ENDBRANCH   6   9
ENDBRANCH   5   6
ENDBRANCH   3   5
BRANCH   1  20
ATOM     20  C   UNL d   1      27.949 -14.093   2.722  0.00  0.00     0.108 A 
ATOM     21  C   UNL d   1      27.735 -12.793   3.195  0.00  0.00    -0.010 A 
ATOM     22  C   UNL d   1      28.075 -12.747   4.619  0.00  0.00     0.040 A 
ATOM     23  C   UNL d   1      28.468 -14.033   4.959  0.00  0.00     0.020 A 
ATOM     24  N   UNL d   1      28.407 -14.806   3.821  0.00  0.00    -0.354 N 
ATOM     25  C   UNL d   1      28.891 -14.620   6.262  0.00  0.00     0.069 C 
ATOM     26  H   UNL d   1      28.638 -15.792   3.774  0.00  0.00     0.166 HD
BRANCH  21  27
ATOM     27  C   UNL d   1      27.179 -11.612   2.455  0.00  0.00     0.037 C 
ATOM     28  C   UNL d   1      28.301 -10.785   1.845  0.00  0.00     0.010 C 
ENDBRANCH  21  27
BRANCH  22  29
ATOM     29  C   UNL d   1      27.978 -11.555   5.505  0.00  0.00     0.158 C 
ATOM     30  C   UNL d   1      28.155 -11.624   7.002  0.00  0.00     0.097 C 
ATOM     31  O   UNL d   1      27.745 -10.436   5.036  0.00  0.00    -0.293 OA
ENDBRANCH  22  29
ENDBRANCH   1  20
TORSDOF 10
ENDMDL
MODEL 2
REMARK VINA RESULT:    -7.185      5.113      7.274
REMARK INTER + INTRA:         -12.548
REMARK INTER:                 -10.168
REMARK INTRA:                  -2.380
REMARK CONF_INDEPENDENT:        2.983
REMARK UNBOUND:                -2.380
REMARK  10 active torsions:
REMARK  status: ('A' for Active; 'I' for Inactive)
REMARK    1  A    between atoms: C_2  and  C_3 
REMARK    2  A    between atoms: C_4  and  C_5 
REMARK       I    between atoms: C_5  and  N_7 
REMARK    3  A    between atoms: N_7  and  C_8 
REMARK    4  A    between atoms: C_8  and  C_9 
REMARK    5  A    between atoms: C_9  and  O_10 
REMARK    6  A    between atoms: C_9  and  C_11 
REMARK    7  A    between atoms: C_11  and  O_12 
REMARK    8  A    between atoms: O_12  and  C_13 
REMARK    9  A    between atoms: C_16  and  N_17 
REMARK   10  A    between atoms: C_25  and  C_26 
ROOT
ATOM      1  C   UNL d   1      25.893 -14.135  -4.372  0.00  0.00     0.268 C 
ATOM      2  O   UNL d   1      24.809 -14.654  -4.664  0.00  0.00    -0.266 OA
ATOM      3  N   UNL d   1      26.718 -14.739  -3.449  0.00  0.00    -0.353 N 
ATOM      4  H   UNL d   1      27.571 -14.304  -3.163  0.00  0.00     0.162 HD
ENDROOT
BRANCH   3   5
ATOM      5  C   UNL d   1      26.392 -15.966  -2.733  0.00  0.00     0.156 C 
BRANCH   5   6
ATOM      6  C   UNL d   1      27.436 -16.309  -1.646  0.00  0.00     0.160 C 
BRANCH   6   7
ATOM      7  O   UNL d   1      27.808 -15.103  -0.959  0.00  0.00    -0.392 OA
ATOM      8  H   UNL d   1      27.162 -14.948  -0.249  0.00  0.00     0.210 HD
ENDBRANCH   6   7
BRANCH   6   9
ATOM      9  C   UNL d   1      26.881 -17.362  -0.662  0.00  0.00     0.209 C 
BRANCH   9  10
ATOM     10  O   UNL d   1      25.762 -16.819   0.055  0.00  0.00    -0.349 OA
BRANCH  10  11
ATOM     11  C   UNL d   1      24.529 -17.325  -0.267  0.00  0.00     0.069 A 
ATOM     12  C   UNL d   1      23.481 -16.399  -0.334  0.00  0.00     0.039 A 
ATOM     13  C   UNL d   1      22.160 -16.825  -0.521  0.00  0.00     0.039 A 
ATOM     14  C   UNL d   1      21.900 -18.186  -0.714  0.00  0.00     0.103 A 
ATOM     15  C   UNL d   1      22.940 -19.121  -0.641  0.00  0.00     0.039 A 
ATOM     16  C   UNL d   1      24.251 -18.685  -0.408  0.00  0.00     0.039 A 
BRANCH  14  17
ATOM     17  N   UNL d   1      20.541 -18.633  -1.050  0.00  0.00    -0.116 N 
ATOM     18  O   UNL d   1      20.397 -19.800  -1.441  0.00  0.00    -0.532 OA
ATOM     19  O   UNL d   1      19.614 -17.825  -0.895  0.00  0.00    -0.532 OA
ENDBRANCH  14  17
ENDBRANCH  10  11
ENDBRANCH   9  10
ENDBRANCH   6   9
ENDBRANCH   5   6
ENDBRANCH   3   5
BRANCH   1  20
ATOM     20  C   UNL d   1      26.323 -12.877  -5.003  0.00  0.00     0.108 A 
ATOM     21  C   UNL d   1      27.357 -12.501  -5.867  0.00  0.00    -0.010 A 
ATOM     22  C   UNL d   1      27.227 -11.073  -6.166  0.00  0.00     0.040 A 
ATOM     23  C   UNL d   1      26.101 -10.641  -5.480  0.00  0.00     0.020 A 
ATOM     24  N   UNL d   1      25.595 -11.716  -4.783  0.00  0.00    -0.354 N 
ATOM     25  C   UNL d   1      25.439  -9.308  -5.419  0.00  0.00     0.069 C 
ATOM     26  H   UNL d   1      24.771 -11.691  -4.194  0.00  0.00     0.166 HD
BRANCH  21  27
ATOM     27  C   UNL d   1      28.412 -13.367  -6.490  0.00  0.00     0.037 C 
ATOM     28  C   UNL d   1      29.309 -13.973  -5.420  0.00  0.00     0.010 C 
ENDBRANCH  21  27
BRANCH  22  29
ATOM     29  C   UNL d   1      28.118 -10.279  -7.055  0.00  0.00     0.158 C 
ATOM     30  C   UNL d   1      27.812 -10.020  -8.510  0.00  0.00     0.097 C 
ATOM     31  O   UNL d   1      29.167  -9.789  -6.624  0.00  0.00    -0.293 OA
ENDBRANCH  22  29
ENDBRANCH   1  20
TORSDOF 10
ENDMDL
MODEL 3
REMARK VINA RESULT:    -6.910      1.804      2.924
REMARK INTER + INTRA:         -12.819
REMARK INTER:                  -9.893
REMARK INTRA:                  -2.925
REMARK CONF_INDEPENDENT:        2.983
REMARK UNBOUND:                -2.925
REMARK  10 active torsions:
REMARK  status: ('A' for Active; 'I' for Inactive)
REMARK    1  A    between atoms: C_2  and  C_3 
REMARK    2  A    between atoms: C_4  and  C_5 
REMARK       I    between atoms: C_5  and  N_7 
REMARK    3  A    between atoms: N_7  and  C_8 
REMARK    4  A    between atoms: C_8  and  C_9 
REMARK    5  A    between atoms: C_9  and  O_10 
REMARK    6  A    between atoms: C_9  and  C_11 
REMARK    7  A    between atoms: C_11  and  O_12 
REMARK    8  A    between atoms: O_12  and  C_13 
REMARK    9  A    between atoms: C_16  and  N_17 
REMARK   10  A    between atoms: C_25  and  C_26 
ROOT
ATOM      1  C   UNL d   1      27.351 -11.903   3.038  0.00  0.00     0.268 C 
ATOM      2  O   UNL d   1      27.034 -10.866   2.442  0.00  0.00    -0.266 OA
ATOM      3  N   UNL d   1      27.249 -13.120   2.401  0.00  0.00    -0.353 N 
ATOM      4  H   UNL d   1      27.450 -13.971   2.887  0.00  0.00     0.162 HD
ENDROOT
BRANCH   3   5
ATOM      5  C   UNL d   1      26.748 -13.299   1.044  0.00  0.00     0.156 C 
BRANCH   5   6
ATOM      6  C   UNL d   1      27.123 -14.679   0.454  0.00  0.00     0.160 C 
BRANCH   6   7
ATOM      7  O   UNL d   1      27.494 -15.560   1.527  0.00  0.00    -0.392 OA
ATOM      8  H   UNL d   1      27.563 -16.461   1.168  0.00  0.00     0.210 HD
ENDBRANCH   6   7
BRANCH   6   9
ATOM      9  C   UNL d   1      25.953 -15.262  -0.367  0.00  0.00     0.209 C 
BRANCH   9  10
ATOM     10  O   UNL d   1      25.847 -16.675  -0.132  0.00  0.00    -0.349 OA
BRANCH  10  11
ATOM     11  C   UNL d   1      24.635 -17.250  -0.414  0.00  0.00     0.069 A 
ATOM     12  C   UNL d   1      23.593 -16.368  -0.726  0.00  0.00     0.039 A 
ATOM     13  C   UNL d   1      22.285 -16.838  -0.899  0.00  0.00     0.039 A 
ATOM     14  C   UNL d   1      22.036 -18.213  -0.827  0.00  0.00     0.103 A 
ATOM     15  C   UNL d   1      23.070 -19.102  -0.508  0.00  0.00     0.039 A 
ATOM     16  C   UNL d   1      24.366 -18.614  -0.294  0.00  0.00     0.039 A 
BRANCH  14  17
ATOM     17  N   UNL d   1      20.699 -18.734  -1.144  0.00  0.00    -0.116 N 
ATOM     18  O   UNL d   1      20.623 -19.696  -1.922  0.00  0.00    -0.532 OA
ATOM     19  O   UNL d   1      19.727 -18.201  -0.590  0.00  0.00    -0.532 OA
ENDBRANCH  14  17
ENDBRANCH  10  11
ENDBRANCH   9  10
ENDBRANCH   6   9
ENDBRANCH   5   6
ENDBRANCH   3   5
BRANCH   1  20
ATOM     20  C   UNL d   1      27.843 -11.858   4.424  0.00  0.00     0.108 A 
ATOM     21  C   UNL d   1      28.074 -12.806   5.428  0.00  0.00    -0.010 A 
ATOM     22  C   UNL d   1      28.612 -12.122   6.607  0.00  0.00     0.040 A 
ATOM     23  C   UNL d   1      28.702 -10.781   6.262  0.00  0.00     0.020 A 
ATOM     24  N   UNL d   1      28.222 -10.644   4.978  0.00  0.00    -0.354 N 
ATOM     25  C   UNL d   1      29.206  -9.603   7.022  0.00  0.00     0.069 C 
ATOM     26  H   UNL d   1      28.171  -9.770   4.467  0.00  0.00     0.166 HD
BRANCH  21  27
ATOM     27  C   UNL d   1      27.903 -14.294   5.361  0.00  0.00     0.037 C 
ATOM     28  C   UNL d   1      29.225 -14.972   5.035  0.00  0.00     0.010 C 
ENDBRANCH  21  27
BRANCH  22  29
ATOM     29  C   UNL d   1      29.004 -12.766   7.890  0.00  0.00     0.158 C 
ATOM     30  C   UNL d   1      30.440 -12.943   8.318  0.00  0.00     0.097 C 
ATOM     31  O   UNL d   1      28.147 -13.189   8.673  0.00  0.00    -0.293 OA
ENDBRANCH  22  29
ENDBRANCH   1  20
TORSDOF 10
ENDMDL
MODEL 4
REMARK VINA RESULT:    -6.709      1.057      2.037
REMARK INTER + INTRA:         -12.124
REMARK INTER:                  -9.692
REMARK INTRA:                  -2.432
REMARK CONF_INDEPENDENT:        2.983
REMARK UNBOUND:                -2.432
REMARK  10 active torsions:
REMARK  status: ('A' for Active; 'I' for Inactive)
REMARK    1  A    between atoms: C_2  and  C_3 
REMARK    2  A    between atoms: C_4  and  C_5 
REMARK       I    between atoms: C_5  and  N_7 
REMARK    3  A    between atoms: N_7  and  C_8 
REMARK    4  A    between atoms: C_8  and  C_9 
REMARK    5  A    between atoms: C_9  and  O_10 
REMARK    6  A    between atoms: C_9  and  C_11 
REMARK    7  A    between atoms: C_11  and  O_12 
REMARK    8  A    between atoms: O_12  and  C_13 
REMARK    9  A    between atoms: C_16  and  N_17 
REMARK   10  A    between atoms: C_25  and  C_26 
ROOT
ATOM      1  C   UNL d   1      27.984 -14.128   0.934  0.00  0.00     0.268 C 
ATOM      2  O   UNL d   1      27.492 -13.788  -0.148  0.00  0.00    -0.266 OA
ATOM      3  N   UNL d   1      28.660 -15.324   1.037  0.00  0.00    -0.353 N 
ATOM      4  H   UNL d   1      29.016 -15.637   1.917  0.00  0.00     0.162 HD
ENDROOT
BRANCH   3   5
ATOM      5  C   UNL d   1      28.818 -16.276  -0.056  0.00  0.00     0.156 C 
BRANCH   5   6
ATOM      6  C   UNL d   1      27.677 -17.318  -0.100  0.00  0.00     0.160 C 
BRANCH   6   7
ATOM      7  O   UNL d   1      26.991 -17.313   1.162  0.00  0.00    -0.392 OA
ATOM      8  H   UNL d   1      26.037 -17.381   0.988  0.00  0.00     0.210 HD
ENDBRANCH   6   7
BRANCH   6   9
ATOM      9  C   UNL d   1      26.706 -17.021  -1.263  0.00  0.00     0.209 C 
BRANCH   9  10
ATOM     10  O   UNL d   1      25.508 -16.412  -0.756  0.00  0.00    -0.349 OA
BRANCH  10  11
ATOM     11  C   UNL d   1      24.372 -17.179  -0.796  0.00  0.00     0.069 A 
ATOM     12  C   UNL d   1      23.168 -16.488  -0.974  0.00  0.00     0.039 A 
ATOM     13  C   UNL d   1      21.940 -17.157  -0.895  0.00  0.00     0.039 A 
ATOM     14  C   UNL d   1      21.926 -18.543  -0.707  0.00  0.00     0.103 A 
ATOM     15  C   UNL d   1      23.124 -19.243  -0.521  0.00  0.00     0.039 A 
ATOM     16  C   UNL d   1      24.344 -18.554  -0.558  0.00  0.00     0.039 A 
BRANCH  14  17
ATOM     17  N   UNL d   1      20.654 -19.278  -0.762  0.00  0.00    -0.116 N 
ATOM     18  O   UNL d   1      20.283 -19.708  -1.864  0.00  0.00    -0.532 OA
ATOM     19  O   UNL d   1      20.042 -19.450   0.301  0.00  0.00    -0.532 OA
ENDBRANCH  14  17
ENDBRANCH  10  11
ENDBRANCH   9  10
ENDBRANCH   6   9
ENDBRANCH   5   6
ENDBRANCH   3   5
BRANCH   1  20
ATOM     20  C   UNL d   1      27.865 -13.268   2.122  0.00  0.00     0.108 A 
ATOM     21  C   UNL d   1      28.146 -13.412   3.486  0.00  0.00    -0.010 A 
ATOM     22  C   UNL d   1      27.832 -12.153   4.167  0.00  0.00     0.040 A 
ATOM     23  C   UNL d   1      27.387 -11.286   3.180  0.00  0.00     0.020 A 
ATOM     24  N   UNL d   1      27.394 -11.969   1.985  0.00  0.00    -0.354 N 
ATOM     25  C   UNL d   1      26.960  -9.860   3.245  0.00  0.00     0.069 C 
ATOM     26  H   UNL d   1      27.118 -11.580   1.091  0.00  0.00     0.166 HD
BRANCH  21  27
ATOM     27  C   UNL d   1      28.742 -14.592   4.195  0.00  0.00     0.037 C 
ATOM     28  C   UNL d   1      30.259 -14.487   4.227  0.00  0.00     0.010 C 
ENDBRANCH  21  27
BRANCH  22  29
ATOM     29  C   UNL d   1      27.998 -11.879   5.621  0.00  0.00     0.158 C 
ATOM     30  C   UNL d   1      28.137 -12.970   6.654  0.00  0.00     0.097 C 
ATOM     31  O   UNL d   1      28.029 -10.720   6.046  0.00  0.00    -0.293 OA
ENDBRANCH  22  29
ENDBRANCH   1  20
TORSDOF 10
ENDMDL
MODEL 5
REMARK VINA RESULT:    -6.579      4.835      6.955
REMARK INTER + INTRA:         -12.476
REMARK INTER:                  -9.562
REMARK INTRA:                  -2.914
REMARK CONF_INDEPENDENT:        2.983
REMARK UNBOUND:                -2.914
REMARK  10 active torsions:
REMARK  status: ('A' for Active; 'I' for Inactive)
REMARK    1  A    between atoms: C_2  and  C_3 
REMARK    2  A    between atoms: C_4  and  C_5 
REMARK       I    between atoms: C_5  and  N_7 
REMARK    3  A    between atoms: N_7  and  C_8 
REMARK    4  A    between atoms: C_8  and  C_9 
REMARK    5  A    between atoms: C_9  and  O_10 
REMARK    6  A    between atoms: C_9  and  C_11 
REMARK    7  A    between atoms: C_11  and  O_12 
REMARK    8  A    between atoms: O_12  and  C_13 
REMARK    9  A    between atoms: C_16  and  N_17 
REMARK   10  A    between atoms: C_25  and  C_26 
ROOT
ATOM      1  C   UNL d   1      27.479 -14.551  -4.750  0.00  0.00     0.268 C 
ATOM      2  O   UNL d   1      27.470 -15.515  -5.525  0.00  0.00    -0.266 OA
ATOM      3  N   UNL d   1      27.898 -14.718  -3.449  0.00  0.00    -0.353 N 
ATOM      4  H   UNL d   1      27.860 -13.961  -2.797  0.00  0.00     0.162 HD
ENDROOT
BRANCH   3   5
ATOM      5  C   UNL d   1      28.315 -15.992  -2.876  0.00  0.00     0.156 C 
BRANCH   5   6
ATOM      6  C   UNL d   1      27.884 -16.143  -1.398  0.00  0.00     0.160 C 
BRANCH   6   7
ATOM      7  O   UNL d   1      27.516 -14.852  -0.885  0.00  0.00    -0.392 OA
ATOM      8  H   UNL d   1      26.656 -14.938  -0.439  0.00  0.00     0.210 HD
ENDBRANCH   6   7
BRANCH   6   9
ATOM      9  C   UNL d   1      26.720 -17.148  -1.265  0.00  0.00     0.209 C 
BRANCH   9  10
ATOM     10  O   UNL d   1      25.742 -16.644  -0.342  0.00  0.00    -0.349 OA
BRANCH  10  11
ATOM     11  C   UNL d   1      24.482 -17.176  -0.439  0.00  0.00     0.069 A 
ATOM     12  C   UNL d   1      24.396 -18.571  -0.368  0.00  0.00     0.039 A 
ATOM     13  C   UNL d   1      23.177 -19.225  -0.590  0.00  0.00     0.039 A 
ATOM     14  C   UNL d   1      22.023 -18.467  -0.815  0.00  0.00     0.103 A 
ATOM     15  C   UNL d   1      22.100 -17.071  -0.896  0.00  0.00     0.039 A 
ATOM     16  C   UNL d   1      23.334 -16.431  -0.716  0.00  0.00     0.039 A 
BRANCH  14  17
ATOM     17  N   UNL d   1      20.716 -19.131  -0.910  0.00  0.00    -0.116 N 
ATOM     18  O   UNL d   1      19.958 -19.056   0.068  0.00  0.00    -0.532 OA
ATOM     19  O   UNL d   1      20.436 -19.701  -1.974  0.00  0.00    -0.532 OA
ENDBRANCH  14  17
ENDBRANCH  10  11
ENDBRANCH   9  10
ENDBRANCH   6   9
ENDBRANCH   5   6
ENDBRANCH   3   5
BRANCH   1  20
ATOM     20  C   UNL d   1      27.051 -13.217  -5.200  0.00  0.00     0.108 A 
ATOM     21  C   UNL d   1      26.302 -12.173  -4.643  0.00  0.00    -0.010 A 
ATOM     22  C   UNL d   1      26.255 -11.065  -5.600  0.00  0.00     0.040 A 
ATOM     23  C   UNL d   1      26.996 -11.477  -6.698  0.00  0.00     0.020 A 
ATOM     24  N   UNL d   1      27.438 -12.757  -6.451  0.00  0.00    -0.354 N 
ATOM     25  C   UNL d   1      27.342 -10.779  -7.968  0.00  0.00     0.069 C 
ATOM     26  H   UNL d   1      28.007 -13.309  -7.083  0.00  0.00     0.166 HD
BRANCH  21  27
ATOM     27  C   UNL d   1      25.688 -12.093  -3.277  0.00  0.00     0.037 C 
ATOM     28  C   UNL d   1      25.147 -13.450  -2.852  0.00  0.00     0.010 C 
ENDBRANCH  21  27
BRANCH  22  29
ATOM     29  C   UNL d   1      25.570  -9.760  -5.395  0.00  0.00     0.158 C 
ATOM     30  C   UNL d   1      25.382  -8.746  -6.497  0.00  0.00     0.097 C 
ATOM     31  O   UNL d   1      25.116  -9.450  -4.289  0.00  0.00    -0.293 OA
ENDBRANCH  22  29
ENDBRANCH   1  20
TORSDOF 10
ENDMDL
MODEL 6
REMARK VINA RESULT:    -6.504      4.391      6.112
REMARK INTER + INTRA:         -12.076
REMARK INTER:                  -9.487
REMARK INTRA:                  -2.589
REMARK CONF_INDEPENDENT:        2.983
REMARK UNBOUND:                -2.589
REMARK  10 active torsions:
REMARK  status: ('A' for Active; 'I' for Inactive)
REMARK    1  A    between atoms: C_2  and  C_3 
REMARK    2  A    between atoms: C_4  and  C_5 
REMARK       I    between atoms: C_5  and  N_7 
REMARK    3  A    between atoms: N_7  and  C_8 
REMARK    4  A    between atoms: C_8  and  C_9 
REMARK    5  A    between atoms: C_9  and  O_10 
REMARK    6  A    between atoms: C_9  and  C_11 
REMARK    7  A    between atoms: C_11  and  O_12 
REMARK    8  A    between atoms: O_12  and  C_13 
REMARK    9  A    between atoms: C_16  and  N_17 
REMARK   10  A    between atoms: C_25  and  C_26 
ROOT
ATOM      1  C   UNL d   1      25.858 -13.796  -3.854  0.00  0.00     0.268 C 
ATOM      2  O   UNL d   1      24.926 -14.379  -4.421  0.00  0.00    -0.266 OA
ATOM      3  N   UNL d   1      26.759 -14.513  -3.099  0.00  0.00    -0.353 N 
ATOM      4  H   UNL d   1      27.485 -14.050  -2.591  0.00  0.00     0.162 HD
ENDROOT
BRANCH   3   5
ATOM      5  C   UNL d   1      26.685 -15.952  -2.875  0.00  0.00     0.156 C 
BRANCH   5   6
ATOM      6  C   UNL d   1      27.562 -16.410  -1.688  0.00  0.00     0.160 C 
BRANCH   6   7
ATOM      7  O   UNL d   1      27.896 -15.266  -0.885  0.00  0.00    -0.392 OA
ATOM      8  H   UNL d   1      27.956 -15.554   0.042  0.00  0.00     0.210 HD
ENDBRANCH   6   7
BRANCH   6   9
ATOM      9  C   UNL d   1      26.837 -17.485  -0.851  0.00  0.00     0.209 C 
BRANCH   9  10
ATOM     10  O   UNL d   1      25.853 -16.867  -0.007  0.00  0.00    -0.349 OA
BRANCH  10  11
ATOM     11  C   UNL d   1      24.549 -17.229  -0.227  0.00  0.00     0.069 A 
ATOM     12  C   UNL d   1      24.312 -18.596  -0.415  0.00  0.00     0.039 A 
ATOM     13  C   UNL d   1      23.042 -19.059  -0.779  0.00  0.00     0.039 A 
ATOM     14  C   UNL d   1      21.985 -18.148  -0.885  0.00  0.00     0.103 A 
ATOM     15  C   UNL d   1      22.213 -16.778  -0.707  0.00  0.00     0.039 A 
ATOM     16  C   UNL d   1      23.499 -16.324  -0.386  0.00  0.00     0.039 A 
BRANCH  14  17
ATOM     17  N   UNL d   1      20.619 -18.634  -1.129  0.00  0.00    -0.116 N 
ATOM     18  O   UNL d   1      20.483 -19.801  -1.524  0.00  0.00    -0.532 OA
ATOM     19  O   UNL d   1      19.682 -17.858  -0.895  0.00  0.00    -0.532 OA
ENDBRANCH  14  17
ENDBRANCH  10  11
ENDBRANCH   9  10
ENDBRANCH   6   9
ENDBRANCH   5   6
ENDBRANCH   3   5
BRANCH   1  20
ATOM     20  C   UNL d   1      26.024 -12.339  -3.976  0.00  0.00     0.108 A 
ATOM     21  C   UNL d   1      26.626 -11.339  -3.204  0.00  0.00    -0.010 A 
ATOM     22  C   UNL d   1      26.480 -10.056  -3.896  0.00  0.00     0.040 A 
ATOM     23  C   UNL d   1      25.805 -10.334  -5.075  0.00  0.00     0.020 A 
ATOM     24  N   UNL d   1      25.526 -11.683  -5.093  0.00  0.00    -0.354 N 
ATOM     25  C   UNL d   1      25.398  -9.453  -6.206  0.00  0.00     0.069 C 
ATOM     26  H   UNL d   1      25.040 -12.167  -5.839  0.00  0.00     0.166 HD
BRANCH  21  27
ATOM     27  C   UNL d   1      27.383 -11.485  -1.916  0.00  0.00     0.037 C 
ATOM     28  C   UNL d   1      28.772 -12.049  -2.172  0.00  0.00     0.010 C 
ENDBRANCH  21  27
BRANCH  22  29
ATOM     29  C   UNL d   1      26.990  -8.742  -3.420  0.00  0.00     0.158 C 
ATOM     30  C   UNL d   1      28.184  -8.602  -2.508  0.00  0.00     0.097 C 
ATOM     31  O   UNL d   1      26.442  -7.689  -3.765  0.00  0.00    -0.293 OA
ENDBRANCH  22  29
ENDBRANCH   1  20
TORSDOF 10
ENDMDL
MODEL 7
REMARK VINA RESULT:    -6.023      3.101      7.767
REMARK INTER + INTRA:         -12.161
REMARK INTER:                  -9.006
REMARK INTRA:                  -3.155
REMARK CONF_INDEPENDENT:        2.983
REMARK UNBOUND:                -3.155
REMARK  10 active torsions:
REMARK  status: ('A' for Active; 'I' for Inactive)
REMARK    1  A    between atoms: C_2  and  C_3 
REMARK    2  A    between atoms: C_4  and  C_5 
REMARK       I    between atoms: C_5  and  N_7 
REMARK    3  A    between atoms: N_7  and  C_8 
REMARK    4  A    between atoms: C_8  and  C_9 
REMARK    5  A    between atoms: C_9  and  O_10 
REMARK    6  A    between atoms: C_9  and  C_11 
REMARK    7  A    between atoms: C_11  and  O_12 
REMARK    8  A    between atoms: O_12  and  C_13 
REMARK    9  A    between atoms: C_16  and  N_17 
REMARK   10  A    between atoms: C_25  and  C_26 
ROOT
ATOM      1  C   UNL d   1      29.559 -14.747   0.236  0.00  0.00     0.268 C 
ATOM      2  O   UNL d   1      29.862 -13.712  -0.370  0.00  0.00    -0.266 OA
ATOM      3  N   UNL d   1      30.357 -15.203   1.262  0.00  0.00    -0.353 N 
ATOM      4  H   UNL d   1      30.154 -16.066   1.723  0.00  0.00     0.162 HD
ENDROOT
BRANCH   3   5
ATOM      5  C   UNL d   1      31.595 -14.562   1.688  0.00  0.00     0.156 C 
BRANCH   5   6
ATOM      6  C   UNL d   1      31.341 -13.294   2.535  0.00  0.00     0.160 C 
BRANCH   6   7
ATOM      7  O   UNL d   1      30.842 -12.253   1.680  0.00  0.00    -0.392 OA
ATOM      8  H   UNL d   1      29.934 -12.482   1.422  0.00  0.00     0.210 HD
ENDBRANCH   6   7
BRANCH   6   9
ATOM      9  C   UNL d   1      30.355 -13.590   3.686  0.00  0.00     0.209 C 
BRANCH   9  10
ATOM     10  O   UNL d   1      29.028 -13.754   3.163  0.00  0.00    -0.349 OA
BRANCH  10  11
ATOM     11  C   UNL d   1      28.241 -12.631   3.138  0.00  0.00     0.069 A 
ATOM     12  C   UNL d   1      27.571 -12.375   1.935  0.00  0.00     0.039 A 
ATOM     13  C   UNL d   1      26.850 -11.188   1.756  0.00  0.00     0.039 A 
ATOM     14  C   UNL d   1      26.742 -10.285   2.819  0.00  0.00     0.103 A 
ATOM     15  C   UNL d   1      27.414 -10.528   4.023  0.00  0.00     0.039 A 
ATOM     16  C   UNL d   1      28.169 -11.699   4.174  0.00  0.00     0.039 A 
BRANCH  14  17
ATOM     17  N   UNL d   1      25.875  -9.105   2.694  0.00  0.00    -0.116 N 
ATOM     18  O   UNL d   1      24.777  -9.251   2.138  0.00  0.00    -0.532 OA
ATOM     19  O   UNL d   1      26.280  -8.039   3.180  0.00  0.00    -0.532 OA
ENDBRANCH  14  17
ENDBRANCH  10  11
ENDBRANCH   9  10
ENDBRANCH   6   9
ENDBRANCH   5   6
ENDBRANCH   3   5
BRANCH   1  20
ATOM     20  C   UNL d   1      28.349 -15.504  -0.122  0.00  0.00     0.108 A 
ATOM     21  C   UNL d   1      27.335 -15.365  -1.076  0.00  0.00    -0.010 A 
ATOM     22  C   UNL d   1      26.405 -16.489  -0.945  0.00  0.00     0.040 A 
ATOM     23  C   UNL d   1      26.905 -17.280   0.080  0.00  0.00     0.020 A 
ATOM     24  N   UNL d   1      28.040 -16.670   0.566  0.00  0.00    -0.354 N 
ATOM     25  C   UNL d   1      26.425 -18.570   0.650  0.00  0.00     0.069 C 
ATOM     26  H   UNL d   1      28.615 -17.028   1.320  0.00  0.00     0.166 HD
BRANCH  21  27
ATOM     27  C   UNL d   1      27.195 -14.316  -2.140  0.00  0.00     0.037 C 
ATOM     28  C   UNL d   1      26.300 -13.182  -1.661  0.00  0.00     0.010 C 
ENDBRANCH  21  27
BRANCH  22  29
ATOM     29  C   UNL d   1      25.194 -16.727  -1.777  0.00  0.00     0.158 C 
ATOM     30  C   UNL d   1      23.948 -17.391  -1.246  0.00  0.00     0.097 C 
ATOM     31  O   UNL d   1      25.163 -16.379  -2.962  0.00  0.00    -0.293 OA
ENDBRANCH  22  29
ENDBRANCH   1  20
TORSDOF 10
ENDMDL
MODEL 8
REMARK VINA RESULT:    -5.954      2.236      2.907
REMARK INTER + INTRA:         -12.073
REMARK INTER:                  -8.937
REMARK INTRA:                  -3.136
REMARK CONF_INDEPENDENT:        2.983
REMARK UNBOUND:                -3.136
REMARK  10 active torsions:
REMARK  status: ('A' for Active; 'I' for Inactive)
REMARK    1  A    between atoms: C_2  and  C_3 
REMARK    2  A    between atoms: C_4  and  C_5 
REMARK       I    between atoms: C_5  and  N_7 
REMARK    3  A    between atoms: N_7  and  C_8 
REMARK    4  A    between atoms: C_8  and  C_9 
REMARK    5  A    between atoms: C_9  and  O_10 
REMARK    6  A    between atoms: C_9  and  C_11 
REMARK    7  A    between atoms: C_11  and  O_12 
REMARK    8  A    between atoms: O_12  and  C_13 
REMARK    9  A    between atoms: C_16  and  N_17 
REMARK   10  A    between atoms: C_25  and  C_26 
ROOT
ATOM      1  C   UNL d   1      31.004 -14.548   1.635  0.00  0.00     0.268 C 
ATOM      2  O   UNL d   1      31.930 -13.858   1.189  0.00  0.00    -0.266 OA
ATOM      3  N   UNL d   1      30.638 -15.708   0.989  0.00  0.00    -0.353 N 
ATOM      4  H   UNL d   1      29.858 -16.246   1.306  0.00  0.00     0.162 HD
ENDROOT
BRANCH   3   5
ATOM      5  C   UNL d   1      31.250 -16.193  -0.242  0.00  0.00     0.156 C 
BRANCH   5   6
ATOM      6  C   UNL d   1      30.253 -16.975  -1.127  0.00  0.00     0.160 C 
BRANCH   6   7
ATOM      7  O   UNL d   1      30.104 -18.304  -0.601  0.00  0.00    -0.392 OA
ATOM      8  H   UNL d   1      29.537 -18.256   0.187  0.00  0.00     0.210 HD
ENDBRANCH   6   7
BRANCH   6   9
ATOM      9  C   UNL d   1      28.892 -16.249  -1.197  0.00  0.00     0.209 C 
BRANCH   9  10
ATOM     10  O   UNL d   1      28.110 -16.563  -0.035  0.00  0.00    -0.349 OA
BRANCH  10  11
ATOM     11  C   UNL d   1      26.793 -16.876  -0.254  0.00  0.00     0.069 A 
ATOM     12  C   UNL d   1      26.388 -18.153   0.153  0.00  0.00     0.039 A 
ATOM     13  C   UNL d   1      25.103 -18.625  -0.145  0.00  0.00     0.039 A 
ATOM     14  C   UNL d   1      24.196 -17.780  -0.792  0.00  0.00     0.103 A 
ATOM     15  C   UNL d   1      24.593 -16.504  -1.209  0.00  0.00     0.039 A 
ATOM     16  C   UNL d   1      25.896 -16.061  -0.945  0.00  0.00     0.039 A 
BRANCH  14  17
ATOM     17  N   UNL d   1      22.803 -18.209  -0.985  0.00  0.00    -0.116 N 
ATOM     18  O   UNL d   1      22.605 -19.263  -1.606  0.00  0.00    -0.532 OA
ATOM     19  O   UNL d   1      21.911 -17.506  -0.491  0.00  0.00    -0.532 OA
ENDBRANCH  14  17
ENDBRANCH  10  11
ENDBRANCH   9  10
ENDBRANCH   6   9
ENDBRANCH   5   6
ENDBRANCH   3   5
BRANCH   1  20
ATOM     20  C   UNL d   1      30.285 -14.149   2.855  0.00  0.00     0.108 A 
ATOM     21  C   UNL d   1      28.941 -14.083   3.240  0.00  0.00    -0.010 A 
ATOM     22  C   UNL d   1      28.870 -13.625   4.630  0.00  0.00     0.040 A 
ATOM     23  C   UNL d   1      30.184 -13.447   5.040  0.00  0.00     0.020 A 
ATOM     24  N   UNL d   1      31.001 -13.740   3.971  0.00  0.00    -0.354 N 
ATOM     25  C   UNL d   1      30.756 -13.032   6.352  0.00  0.00     0.069 C 
ATOM     26  H   UNL d   1      32.014 -13.697   3.985  0.00  0.00     0.166 HD
BRANCH  21  27
ATOM     27  C   UNL d   1      27.726 -14.472   2.451  0.00  0.00     0.037 C 
ATOM     28  C   UNL d   1      27.230 -13.301   1.617  0.00  0.00     0.010 C 
ENDBRANCH  21  27
BRANCH  22  29
ATOM     29  C   UNL d   1      27.628 -13.430   5.426  0.00  0.00     0.158 C 
ATOM     30  C   UNL d   1      27.532 -12.462   6.579  0.00  0.00     0.097 C 
ATOM     31  O   UNL d   1      26.603 -14.069   5.165  0.00  0.00    -0.293 OA
ENDBRANCH  22  29
ENDBRANCH   1  20
TORSDOF 10
ENDMDL
MODEL 9
REMARK VINA RESULT:    -4.930      3.828      8.220
REMARK INTER + INTRA:         -12.372
REMARK INTER:                  -7.913
REMARK INTRA:                  -4.459
REMARK CONF_INDEPENDENT:        2.983
REMARK UNBOUND:                -4.459
REMARK  10 active torsions:
REMARK  status: ('A' for Active; 'I' for Inactive)
REMARK    1  A    between atoms: C_2  and  C_3 
REMARK    2  A    between atoms: C_4  and  C_5 
REMARK       I    between atoms: C_5  and  N_7 
REMARK    3  A    between atoms: N_7  and  C_8 
REMARK    4  A    between atoms: C_8  and  C_9 
REMARK    5  A    between atoms: C_9  and  O_10 
REMARK    6  A    between atoms: C_9  and  C_11 
REMARK    7  A    between atoms: C_11  and  O_12 
REMARK    8  A    between atoms: O_12  and  C_13 
REMARK    9  A    between atoms: C_16  and  N_17 
REMARK   10  A    between atoms: C_25  and  C_26 
ROOT
ATOM      1  C   UNL d   1      27.418 -14.031   2.871  0.00  0.00     0.268 C 
ATOM      2  O   UNL d   1      26.648 -13.290   3.495  0.00  0.00    -0.266 OA
ATOM      3  N   UNL d   1      28.312 -14.825   3.552  0.00  0.00    -0.353 N 
ATOM      4  H   UNL d   1      28.977 -15.387   3.060  0.00  0.00     0.162 HD
ENDROOT
BRANCH   3   5
ATOM      5  C   UNL d   1      28.458 -14.842   5.003  0.00  0.00     0.156 C 
BRANCH   5   6
ATOM      6  C   UNL d   1      29.939 -14.802   5.446  0.00  0.00     0.160 C 
BRANCH   6   7
ATOM      7  O   UNL d   1      30.777 -14.831   4.280  0.00  0.00    -0.392 OA
ATOM      8  H   UNL d   1      31.527 -14.231   4.431  0.00  0.00     0.210 HD
ENDBRANCH   6   7
BRANCH   6   9
ATOM      9  C   UNL d   1      30.222 -13.550   6.304  0.00  0.00     0.209 C 
BRANCH   9  10
ATOM     10  O   UNL d   1      30.740 -12.497   5.477  0.00  0.00    -0.349 OA
BRANCH  10  11
ATOM     11  C   UNL d   1      29.821 -11.780   4.757  0.00  0.00     0.069 A 
ATOM     12  C   UNL d   1      28.722 -11.290   5.474  0.00  0.00     0.039 A 
ATOM     13  C   UNL d   1      27.659 -10.662   4.814  0.00  0.00     0.039 A 
ATOM     14  C   UNL d   1      27.733 -10.460   3.432  0.00  0.00     0.103 A 
ATOM     15  C   UNL d   1      28.823 -10.953   2.704  0.00  0.00     0.039 A 
ATOM     16  C   UNL d   1      29.860 -11.619   3.371  0.00  0.00     0.039 A 
BRANCH  14  17
ATOM     17  N   UNL d   1      26.693  -9.680   2.747  0.00  0.00    -0.116 N 
ATOM     18  O   UNL d   1      26.381  -8.583   3.232  0.00  0.00    -0.532 OA
ATOM     19  O   UNL d   1      26.210 -10.152   1.708  0.00  0.00    -0.532 OA
ENDBRANCH  14  17
ENDBRANCH  10  11
ENDBRANCH   9  10
ENDBRANCH   6   9
ENDBRANCH   5   6
ENDBRANCH   3   5
BRANCH   1  20
ATOM     20  C   UNL d   1      27.390 -14.080   1.400  0.00  0.00     0.108 A 
ATOM     21  C   UNL d   1      27.437 -15.097   0.439  0.00  0.00    -0.010 A 
ATOM     22  C   UNL d   1      27.334 -14.493  -0.892  0.00  0.00     0.040 A 
ATOM     23  C   UNL d   1      27.211 -13.127  -0.682  0.00  0.00     0.020 A 
ATOM     24  N   UNL d   1      27.268 -12.903   0.676  0.00  0.00    -0.354 N 
ATOM     25  C   UNL d   1      27.035 -11.998  -1.638  0.00  0.00     0.069 C 
ATOM     26  H   UNL d   1      27.202 -11.994   1.118  0.00  0.00     0.166 HD
BRANCH  21  27
ATOM     27  C   UNL d   1      27.501 -16.580   0.654  0.00  0.00     0.037 C 
ATOM     28  C   UNL d   1      26.197 -17.239   0.231  0.00  0.00     0.010 C 
ENDBRANCH  21  27
BRANCH  22  29
ATOM     29  C   UNL d   1      27.333 -15.224  -2.188  0.00  0.00     0.158 C 
ATOM     30  C   UNL d   1      26.302 -14.991  -3.264  0.00  0.00     0.097 C 
ATOM     31  O   UNL d   1      28.199 -16.070  -2.438  0.00  0.00    -0.293 OA
ENDBRANCH  22  29
ENDBRANCH   1  20
TORSDOF 10
ENDMDL
