MODEL 1
REMARK VINA RESULT:    -7.276      0.000      0.000
REMARK INTER + INTRA:          -8.516
REMARK INTER:                  -8.171
REMARK INTRA:                  -0.345
REMARK CONF_INDEPENDENT:        0.895
REMARK UNBOUND:                -0.345
REMARK  3 active torsions:
REMARK  status: ('A' for Active; 'I' for Inactive)
REMARK    1  A    between atoms: C_2  and  C_3 
REMARK       I    between atoms: C_2  and  N_14 
REMARK    2  A    between atoms: C_8  and  O_9 
REMARK    3  A    between atoms: N_17  and  C_18 
ROOT
ATOM      1  O   UNL d   1      27.643 -13.767  -5.446  0.00  0.00    -0.267 OA
ATOM      2  C   UNL d   1      26.762 -13.394  -4.668  0.00  0.00     0.256 C 
ATOM      3  N   UNL d   1      26.191 -12.124  -4.726  0.00  0.00    -0.345 N 
ATOM      4  C   UNL d   1      25.624 -11.471  -3.546  0.00  0.00     0.146 C 
ATOM      5  C   UNL d   1      26.055  -9.995  -3.474  0.00  0.00     0.143 C 
ATOM      6  N   UNL d   1      25.651  -9.321  -4.718  0.00  0.00    -0.378 N 
ATOM      7  C   UNL d   1      26.234  -9.933  -5.939  0.00  0.00     0.143 C 
ATOM      8  C   UNL d   1      25.905 -11.444  -6.001  0.00  0.00     0.146 C 
ENDROOT
BRANCH   2   9
ATOM      9  C   UNL d   1      26.264 -14.332  -3.612  0.00  0.00     0.065 A 
ATOM     10  C   UNL d   1      27.156 -15.105  -2.851  0.00  0.00     0.027 A 
ATOM     11  C   UNL d   1      26.681 -15.950  -1.823  0.00  0.00    -0.051 A 
ATOM     12  C   UNL d   1      25.292 -16.059  -1.599  0.00  0.00    -0.049 A 
ATOM     13  C   UNL d   1      27.663 -16.772  -1.013  0.00  0.00     0.039 C 
ATOM     14  C   UNL d   1      24.405 -15.291  -2.367  0.00  0.00     0.045 A 
ATOM     15  C   UNL d   1      24.729 -16.958  -0.518  0.00  0.00     0.039 C 
ATOM     16  C   UNL d   1      24.887 -14.450  -3.371  0.00  0.00     0.082 A 
ATOM     17  C   UNL d   1      25.729 -18.010  -0.045  0.00  0.00     0.005 C 
ATOM     18  C   UNL d   1      27.053 -17.332   0.275  0.00  0.00     0.005 C 
BRANCH  16  19
ATOM     19  O   UNL d   1      23.993 -13.734  -4.125  0.00  0.00    -0.360 OA
ATOM     20  H   UNL d   1      24.030 -14.036  -5.046  0.00  0.00     0.217 HD
ENDBRANCH  16  19
ENDBRANCH   2   9
BRANCH   6  21
ATOM     21  C   UNL d   1      24.873  -8.192  -4.744  0.00  0.00     0.032 A 
ATOM     22  C   UNL d   1      25.262  -7.034  -4.068  0.00  0.00     0.046 A 
ATOM     23  C   UNL d   1      24.405  -5.940  -3.985  0.00  0.00     0.089 A 
ATOM     24  N   UNL d   1      23.232  -5.961  -4.634  0.00  0.00    -0.375 N 
ATOM     25  C   UNL d   1      22.865  -7.003  -5.393  0.00  0.00     0.089 A 
ATOM     26  H   UNL d   1      22.603  -5.161  -4.548  0.00  0.00     0.164 HD
ATOM     27  C   UNL d   1      23.660  -8.147  -5.437  0.00  0.00     0.046 A 
ENDBRANCH   6  21
TORSDOF 3
ENDMDL
MODEL 2
REMARK VINA RESULT:    -6.860      6.265      8.978
REMARK INTER + INTRA:          -8.464
REMARK INTER:                  -7.755
REMARK INTRA:                  -0.709
REMARK CONF_INDEPENDENT:        0.895
REMARK UNBOUND:                -0.709
REMARK  3 active torsions:
REMARK  status: ('A' for Active; 'I' for Inactive)
REMARK    1  A    between atoms: C_2  and  C_3 
REMARK       I    between atoms: C_2  and  N_14 
REMARK    2  A    between atoms: C_8  and  O_9 
REMARK    3  A    between atoms: N_17  and  C_18 
ROOT
ATOM      1  O   UNL d   1      30.348 -14.981   0.619  0.00  0.00    -0.267 OA
ATOM      2  C   UNL d   1      29.262 -14.833   1.185  0.00  0.00     0.256 C 
ATOM      3  N   UNL d   1      29.144 -14.282   2.459  0.00  0.00    -0.345 N 
ATOM      4  C   UNL d   1      28.033 -14.614   3.351  0.00  0.00     0.146 C 
ATOM      5  C   UNL d   1      28.537 -14.870   4.784  0.00  0.00     0.143 C 
ATOM      6  N   UNL d   1      29.272 -13.683   5.248  0.00  0.00    -0.378 N 
ATOM      7  C   UNL d   1      30.431 -13.331   4.386  0.00  0.00     0.143 C 
ATOM      8  C   UNL d   1      29.983 -13.159   2.915  0.00  0.00     0.146 C 
ENDROOT
BRANCH   2   9
ATOM      9  C   UNL d   1      28.003 -15.251   0.489  0.00  0.00     0.065 A 
ATOM     10  C   UNL d   1      27.405 -16.492   0.760  0.00  0.00     0.027 A 
ATOM     11  C   UNL d   1      26.191 -16.857   0.135  0.00  0.00    -0.051 A 
ATOM     12  C   UNL d   1      25.606 -15.988  -0.810  0.00  0.00    -0.049 A 
ATOM     13  C   UNL d   1      25.561 -18.200   0.445  0.00  0.00     0.039 C 
ATOM     14  C   UNL d   1      26.213 -14.753  -1.083  0.00  0.00     0.045 A 
ATOM     15  C   UNL d   1      24.312 -16.335  -1.516  0.00  0.00     0.039 C 
ATOM     16  C   UNL d   1      27.405 -14.398  -0.450  0.00  0.00     0.082 A 
ATOM     17  C   UNL d   1      23.981 -17.824  -1.445  0.00  0.00     0.005 C 
ATOM     18  C   UNL d   1      24.099 -18.292  -0.001  0.00  0.00     0.005 C 
BRANCH  16  19
ATOM     19  O   UNL d   1      27.989 -13.197  -0.760  0.00  0.00    -0.360 OA
ATOM     20  H   UNL d   1      28.927 -13.219  -0.515  0.00  0.00     0.217 HD
ENDBRANCH  16  19
ENDBRANCH   2   9
BRANCH   6  21
ATOM     21  C   UNL d   1      28.966 -13.011   6.403  0.00  0.00     0.032 A 
ATOM     22  C   UNL d   1      28.705 -11.639   6.390  0.00  0.00     0.046 A 
ATOM     23  C   UNL d   1      28.530 -10.940   7.581  0.00  0.00     0.089 A 
ATOM     24  N   UNL d   1      28.521 -11.602   8.747  0.00  0.00    -0.375 N 
ATOM     25  C   UNL d   1      28.649 -12.935   8.803  0.00  0.00     0.089 A 
ATOM     26  H   UNL d   1      28.413 -11.075   9.616  0.00  0.00     0.164 HD
ATOM     27  C   UNL d   1      28.905 -13.659   7.639  0.00  0.00     0.046 A 
ENDBRANCH   6  21
TORSDOF 3
ENDMDL
MODEL 3
REMARK VINA RESULT:    -6.839      1.426      2.521
REMARK INTER + INTRA:          -8.561
REMARK INTER:                  -7.734
REMARK INTRA:                  -0.828
REMARK CONF_INDEPENDENT:        0.895
REMARK UNBOUND:                -0.828
REMARK  3 active torsions:
REMARK  status: ('A' for Active; 'I' for Inactive)
REMARK    1  A    between atoms: C_2  and  C_3 
REMARK       I    between atoms: C_2  and  N_14 
REMARK    2  A    between atoms: C_8  and  O_9 
REMARK    3  A    between atoms: N_17  and  C_18 
ROOT
ATOM      1  O   UNL d   1      27.138 -15.188  -5.387  0.00  0.00    -0.267 OA
ATOM      2  C   UNL d   1      26.673 -14.701  -4.353  0.00  0.00     0.256 C 
ATOM      3  N   UNL d   1      26.333 -13.354  -4.240  0.00  0.00    -0.345 N 
ATOM      4  C   UNL d   1      26.347 -12.653  -2.957  0.00  0.00     0.146 C 
ATOM      5  C   UNL d   1      27.007 -11.268  -3.094  0.00  0.00     0.143 C 
ATOM      6  N   UNL d   1      26.291 -10.502  -4.126  0.00  0.00    -0.378 N 
ATOM      7  C   UNL d   1      26.282 -11.165  -5.456  0.00  0.00     0.143 C 
ATOM      8  C   UNL d   1      25.715 -12.600  -5.345  0.00  0.00     0.146 C 
ENDROOT
BRANCH   2   9
ATOM      9  C   UNL d   1      26.450 -15.576  -3.158  0.00  0.00     0.065 A 
ATOM     10  C   UNL d   1      25.155 -15.953  -2.769  0.00  0.00     0.027 A 
ATOM     11  C   UNL d   1      24.958 -16.819  -1.669  0.00  0.00    -0.051 A 
ATOM     12  C   UNL d   1      26.071 -17.263  -0.925  0.00  0.00    -0.049 A 
ATOM     13  C   UNL d   1      23.551 -17.216  -1.270  0.00  0.00     0.039 C 
ATOM     14  C   UNL d   1      27.361 -16.876  -1.313  0.00  0.00     0.045 A 
ATOM     15  C   UNL d   1      25.914 -18.183   0.268  0.00  0.00     0.039 C 
ATOM     16  C   UNL d   1      27.545 -16.030  -2.408  0.00  0.00     0.082 A 
ATOM     17  C   UNL d   1      24.490 -18.200   0.818  0.00  0.00     0.005 C 
ATOM     18  C   UNL d   1      23.514 -18.423  -0.329  0.00  0.00     0.005 C 
BRANCH  16  19
ATOM     19  O   UNL d   1      28.817 -15.646  -2.745  0.00  0.00    -0.360 OA
ATOM     20  H   UNL d   1      28.848 -15.416  -3.687  0.00  0.00     0.217 HD
ENDBRANCH  16  19
ENDBRANCH   2   9
BRANCH   6  21
ATOM     21  C   UNL d   1      25.750  -9.262  -3.904  0.00  0.00     0.032 A 
ATOM     22  C   UNL d   1      24.845  -8.699  -4.807  0.00  0.00     0.046 A 
ATOM     23  C   UNL d   1      24.406  -7.388  -4.645  0.00  0.00     0.089 A 
ATOM     24  N   UNL d   1      24.782  -6.688  -3.565  0.00  0.00    -0.375 N 
ATOM     25  C   UNL d   1      25.554  -7.224  -2.609  0.00  0.00     0.089 A 
ATOM     26  H   UNL d   1      24.470  -5.719  -3.469  0.00  0.00     0.164 HD
ATOM     27  C   UNL d   1      26.076  -8.506  -2.775  0.00  0.00     0.046 A 
ENDBRANCH   6  21
TORSDOF 3
ENDMDL
MODEL 4
REMARK VINA RESULT:    -6.581      5.451      6.637
REMARK INTER + INTRA:          -8.516
REMARK INTER:                  -7.476
REMARK INTRA:                  -1.040
REMARK CONF_INDEPENDENT:        0.895
REMARK UNBOUND:                -1.040
REMARK  3 active torsions:
REMARK  status: ('A' for Active; 'I' for Inactive)
REMARK    1  A    between atoms: C_2  and  C_3 
REMARK       I    between atoms: C_2  and  N_14 
REMARK    2  A    between atoms: C_8  and  O_9 
REMARK    3  A    between atoms: N_17  and  C_18 
ROOT
ATOM      1  O   UNL d   1      28.461 -15.375  -1.587  0.00  0.00    -0.267 OA
ATOM      2  C   UNL d   1      27.619 -15.236  -0.696  0.00  0.00     0.256 C 
ATOM      3  N   UNL d   1      27.619 -14.154   0.181  0.00  0.00    -0.345 N 
ATOM      4  C   UNL d   1      27.055 -14.244   1.528  0.00  0.00     0.146 C 
ATOM      5  C   UNL d   1      27.985 -13.580   2.560  0.00  0.00     0.143 C 
ATOM      6  N   UNL d   1      28.218 -12.183   2.158  0.00  0.00    -0.378 N 
ATOM      7  C   UNL d   1      28.822 -12.049   0.807  0.00  0.00     0.143 C 
ATOM      8  C   UNL d   1      27.967 -12.788  -0.248  0.00  0.00     0.146 C 
ENDROOT
BRANCH   2   9
ATOM      9  C   UNL d   1      26.537 -16.260  -0.538  0.00  0.00     0.065 A 
ATOM     10  C   UNL d   1      25.182 -15.902  -0.638  0.00  0.00     0.027 A 
ATOM     11  C   UNL d   1      24.170 -16.883  -0.536  0.00  0.00    -0.051 A 
ATOM     12  C   UNL d   1      24.524 -18.224  -0.275  0.00  0.00    -0.049 A 
ATOM     13  C   UNL d   1      22.715 -16.475  -0.652  0.00  0.00     0.039 C 
ATOM     14  C   UNL d   1      25.878 -18.573  -0.167  0.00  0.00     0.045 A 
ATOM     15  C   UNL d   1      23.478 -19.312  -0.146  0.00  0.00     0.039 C 
ATOM     16  C   UNL d   1      26.869 -17.598  -0.282  0.00  0.00     0.082 A 
ATOM     17  C   UNL d   1      22.080 -18.759   0.117  0.00  0.00     0.005 C 
ATOM     18  C   UNL d   1      21.779 -17.662  -0.895  0.00  0.00     0.005 C 
BRANCH  16  19
ATOM     19  O   UNL d   1      28.183 -17.966  -0.142  0.00  0.00    -0.360 OA
ATOM     20  H   UNL d   1      28.753 -17.301  -0.560  0.00  0.00     0.217 HD
ENDBRANCH  16  19
ENDBRANCH   2   9
BRANCH   6  21
ATOM     21  C   UNL d   1      27.972 -11.113   2.979  0.00  0.00     0.032 A 
ATOM     22  C   UNL d   1      28.585 -11.009   4.230  0.00  0.00     0.046 A 
ATOM     23  C   UNL d   1      28.227  -9.994   5.112  0.00  0.00     0.089 A 
ATOM     24  N   UNL d   1      27.352  -9.053   4.726  0.00  0.00    -0.375 N 
ATOM     25  C   UNL d   1      26.825  -9.042   3.494  0.00  0.00     0.089 A 
ATOM     26  H   UNL d   1      27.081  -8.326   5.391  0.00  0.00     0.164 HD
ATOM     27  C   UNL d   1      27.099 -10.086   2.611  0.00  0.00     0.046 A 
ENDBRANCH   6  21
TORSDOF 3
ENDMDL
MODEL 5
REMARK VINA RESULT:    -6.577      6.142      8.137
REMARK INTER + INTRA:          -7.957
REMARK INTER:                  -7.472
REMARK INTRA:                  -0.485
REMARK CONF_INDEPENDENT:        0.895
REMARK UNBOUND:                -0.485
REMARK  3 active torsions:
REMARK  status: ('A' for Active; 'I' for Inactive)
REMARK    1  A    between atoms: C_2  and  C_3 
REMARK       I    between atoms: C_2  and  N_14 
REMARK    2  A    between atoms: C_8  and  O_9 
REMARK    3  A    between atoms: N_17  and  C_18 
ROOT
ATOM      1  O   UNL d   1      28.385 -14.343  -0.944  0.00  0.00    -0.267 OA
ATOM      2  C   UNL d   1      27.752 -14.685   0.058  0.00  0.00     0.256 C 
ATOM      3  N   UNL d   1      27.898 -14.059   1.294  0.00  0.00    -0.345 N 
ATOM      4  C   UNL d   1      27.646 -14.756   2.554  0.00  0.00     0.146 C 
ATOM      5  C   UNL d   1      28.750 -14.449   3.583  0.00  0.00     0.143 C 
ATOM      6  N   UNL d   1      28.831 -12.992   3.772  0.00  0.00    -0.378 N 
ATOM      7  C   UNL d   1      29.120 -12.248   2.519  0.00  0.00     0.143 C 
ATOM      8  C   UNL d   1      28.087 -12.603   1.424  0.00  0.00     0.146 C 
ENDROOT
BRANCH   2   9
ATOM      9  C   UNL d   1      26.774 -15.816  -0.036  0.00  0.00     0.065 A 
ATOM     10  C   UNL d   1      25.396 -15.573  -0.146  0.00  0.00     0.027 A 
ATOM     11  C   UNL d   1      24.485 -16.645  -0.284  0.00  0.00    -0.051 A 
ATOM     12  C   UNL d   1      24.963 -17.973  -0.255  0.00  0.00    -0.049 A 
ATOM     13  C   UNL d   1      23.002 -16.359  -0.405  0.00  0.00     0.039 C 
ATOM     14  C   UNL d   1      26.340 -18.209  -0.136  0.00  0.00     0.045 A 
ATOM     15  C   UNL d   1      24.030 -19.158  -0.387  0.00  0.00     0.039 C 
ATOM     16  C   UNL d   1      27.231 -17.142  -0.013  0.00  0.00     0.082 A 
ATOM     17  C   UNL d   1      22.573 -18.796  -0.108  0.00  0.00     0.005 C 
ATOM     18  C   UNL d   1      22.201 -17.560  -0.916  0.00  0.00     0.005 C 
BRANCH  16  19
ATOM     19  O   UNL d   1      28.569 -17.406   0.131  0.00  0.00    -0.360 OA
ATOM     20  H   UNL d   1      28.880 -17.055   0.980  0.00  0.00     0.217 HD
ENDBRANCH  16  19
ENDBRANCH   2   9
BRANCH   6  21
ATOM     21  C   UNL d   1      28.725 -12.385   4.997  0.00  0.00     0.032 A 
ATOM     22  C   UNL d   1      28.925 -11.009   5.138  0.00  0.00     0.046 A 
ATOM     23  C   UNL d   1      28.951 -10.423   6.400  0.00  0.00     0.089 A 
ATOM     24  N   UNL d   1      28.693 -11.167   7.486  0.00  0.00    -0.375 N 
ATOM     25  C   UNL d   1      28.379 -12.467   7.393  0.00  0.00     0.089 A 
ATOM     26  H   UNL d   1      28.736 -10.730   8.408  0.00  0.00     0.164 HD
ATOM     27  C   UNL d   1      28.420 -13.105   6.154  0.00  0.00     0.046 A 
ENDBRANCH   6  21
TORSDOF 3
ENDMDL
MODEL 6
REMARK VINA RESULT:    -6.452      4.269      7.826
REMARK INTER + INTRA:          -8.099
REMARK INTER:                  -7.347
REMARK INTRA:                  -0.752
REMARK CONF_INDEPENDENT:        0.895
REMARK UNBOUND:                -0.752
REMARK  3 active torsions:
REMARK  status: ('A' for Active; 'I' for Inactive)
REMARK    1  A    between atoms: C_2  and  C_3 
REMARK       I    between atoms: C_2  and  N_14 
REMARK    2  A    between atoms: C_8  and  O_9 
REMARK    3  A    between atoms: N_17  and  C_18 
ROOT
ATOM      1  O   UNL d   1      26.966 -12.490  -5.760  0.00  0.00    -0.267 OA
ATOM      2  C   UNL d   1      27.415 -13.579  -5.393  0.00  0.00     0.256 C 
ATOM      3  N   UNL d   1      26.784 -14.371  -4.435  0.00  0.00    -0.345 N 
ATOM      4  C   UNL d   1      27.525 -15.307  -3.589  0.00  0.00     0.146 C 
ATOM      5  C   UNL d   1      27.055 -15.214  -2.125  0.00  0.00     0.143 C 
ATOM      6  N   UNL d   1      25.606 -15.463  -2.075  0.00  0.00    -0.378 N 
ATOM      7  C   UNL d   1      24.813 -14.512  -2.896  0.00  0.00     0.143 C 
ATOM      8  C   UNL d   1      25.318 -14.501  -4.358  0.00  0.00     0.146 C 
ENDROOT
BRANCH   2   9
ATOM      9  C   UNL d   1      28.686 -14.095  -5.993  0.00  0.00     0.065 A 
ATOM     10  C   UNL d   1      28.957 -15.472  -6.043  0.00  0.00     0.027 A 
ATOM     11  C   UNL d   1      30.137 -15.952  -6.655  0.00  0.00    -0.051 A 
ATOM     12  C   UNL d   1      31.076 -15.034  -7.171  0.00  0.00    -0.049 A 
ATOM     13  C   UNL d   1      30.405 -17.443  -6.701  0.00  0.00     0.039 C 
ATOM     14  C   UNL d   1      30.804 -13.660  -7.110  0.00  0.00     0.045 A 
ATOM     15  C   UNL d   1      32.360 -15.495  -7.827  0.00  0.00     0.039 C 
ATOM     16  C   UNL d   1      29.630 -13.198  -6.514  0.00  0.00     0.082 A 
ATOM     17  C   UNL d   1      32.719 -16.937  -7.477  0.00  0.00     0.005 C 
ATOM     18  C   UNL d   1      31.501 -17.823  -7.701  0.00  0.00     0.005 C 
BRANCH  16  19
ATOM     19  O   UNL d   1      29.407 -11.847  -6.444  0.00  0.00    -0.360 OA
ATOM     20  H   UNL d   1      28.511 -11.649  -6.759  0.00  0.00     0.217 HD
ENDBRANCH  16  19
ENDBRANCH   2   9
BRANCH   6  21
ATOM     21  C   UNL d   1      25.035 -16.431  -1.289  0.00  0.00     0.032 A 
ATOM     22  C   UNL d   1      25.818 -17.250  -0.473  0.00  0.00     0.046 A 
ATOM     23  C   UNL d   1      25.248 -18.317   0.216  0.00  0.00     0.089 A 
ATOM     24  N   UNL d   1      23.922 -18.508   0.169  0.00  0.00    -0.375 N 
ATOM     25  C   UNL d   1      23.113 -17.679  -0.505  0.00  0.00     0.089 A 
ATOM     26  H   UNL d   1      23.519 -19.307   0.661  0.00  0.00     0.164 HD
ATOM     27  C   UNL d   1      23.655 -16.647  -1.270  0.00  0.00     0.046 A 
ENDBRANCH   6  21
TORSDOF 3
ENDMDL
MODEL 7
REMARK VINA RESULT:    -6.449      5.580      7.191
REMARK INTER + INTRA:          -7.835
REMARK INTER:                  -7.343
REMARK INTRA:                  -0.492
REMARK CONF_INDEPENDENT:        0.895
REMARK UNBOUND:                -0.492
REMARK  3 active torsions:
REMARK  status: ('A' for Active; 'I' for Inactive)
REMARK    1  A    between atoms: C_2  and  C_3 
REMARK       I    between atoms: C_2  and  N_14 
REMARK    2  A    between atoms: C_8  and  O_9 
REMARK    3  A    between atoms: N_17  and  C_18 
ROOT
ATOM      1  O   UNL d   1      27.893 -13.852  -0.631  0.00  0.00    -0.267 OA
ATOM      2  C   UNL d   1      27.765 -14.865  -1.323  0.00  0.00     0.256 C 
ATOM      3  N   UNL d   1      28.546 -15.113  -2.450  0.00  0.00    -0.345 N 
ATOM      4  C   UNL d   1      28.068 -15.932  -3.563  0.00  0.00     0.146 C 
ATOM      5  C   UNL d   1      28.406 -15.275  -4.915  0.00  0.00     0.143 C 
ATOM      6  N   UNL d   1      29.860 -15.056  -4.984  0.00  0.00    -0.378 N 
ATOM      7  C   UNL d   1      30.382 -14.199  -3.888  0.00  0.00     0.143 C 
ATOM      8  C   UNL d   1      29.979 -14.772  -2.509  0.00  0.00     0.146 C 
ENDROOT
BRANCH   2   9
ATOM      9  C   UNL d   1      26.738 -15.889  -0.951  0.00  0.00     0.065 A 
ATOM     10  C   UNL d   1      25.366 -15.612  -1.066  0.00  0.00     0.027 A 
ATOM     11  C   UNL d   1      24.404 -16.602  -0.759  0.00  0.00    -0.051 A 
ATOM     12  C   UNL d   1      24.828 -17.859  -0.280  0.00  0.00    -0.049 A 
ATOM     13  C   UNL d   1      22.929 -16.282  -0.895  0.00  0.00     0.039 C 
ATOM     14  C   UNL d   1      26.199 -18.127  -0.158  0.00  0.00     0.045 A 
ATOM     15  C   UNL d   1      23.839 -18.950   0.073  0.00  0.00     0.039 C 
ATOM     16  C   UNL d   1      27.140 -17.146  -0.476  0.00  0.00     0.082 A 
ATOM     17  C   UNL d   1      22.423 -18.419   0.283  0.00  0.00     0.005 C 
ATOM     18  C   UNL d   1      22.044 -17.531  -0.895  0.00  0.00     0.005 C 
BRANCH  16  19
ATOM     19  O   UNL d   1      28.473 -17.428  -0.319  0.00  0.00    -0.360 OA
ATOM     20  H   UNL d   1      28.647 -17.668   0.604  0.00  0.00     0.217 HD
ENDBRANCH  16  19
ENDBRANCH   2   9
BRANCH   6  21
ATOM     21  C   UNL d   1      30.645 -15.532  -6.002  0.00  0.00     0.032 A 
ATOM     22  C   UNL d   1      31.373 -14.662  -6.817  0.00  0.00     0.046 A 
ATOM     23  C   UNL d   1      32.058 -15.140  -7.931  0.00  0.00     0.089 A 
ATOM     24  N   UNL d   1      32.095 -16.458  -8.174  0.00  0.00    -0.375 N 
ATOM     25  C   UNL d   1      31.512 -17.344  -7.356  0.00  0.00     0.089 A 
ATOM     26  H   UNL d   1      32.583 -16.794  -9.007  0.00  0.00     0.164 HD
ATOM     27  C   UNL d   1      30.752 -16.898  -6.276  0.00  0.00     0.046 A 
ENDBRANCH   6  21
TORSDOF 3
ENDMDL
MODEL 8
REMARK VINA RESULT:    -6.388      3.844      6.379
REMARK INTER + INTRA:          -8.326
REMARK INTER:                  -7.283
REMARK INTRA:                  -1.043
REMARK CONF_INDEPENDENT:        0.895
REMARK UNBOUND:                -1.043
REMARK  3 active torsions:
REMARK  status: ('A' for Active; 'I' for Inactive)
REMARK    1  A    between atoms: C_2  and  C_3 
REMARK       I    between atoms: C_2  and  N_14 
REMARK    2  A    between atoms: C_8  and  O_9 
REMARK    3  A    between atoms: N_17  and  C_18 
ROOT
ATOM      1  O   UNL d   1      26.378 -11.995  -4.111  0.00  0.00    -0.267 OA
ATOM      2  C   UNL d   1      26.897 -13.114  -4.101  0.00  0.00     0.256 C 
ATOM      3  N   UNL d   1      28.007 -13.438  -4.879  0.00  0.00    -0.345 N 
ATOM      4  C   UNL d   1      28.270 -14.805  -5.329  0.00  0.00     0.146 C 
ATOM      5  C   UNL d   1      28.690 -14.825  -6.810  0.00  0.00     0.143 C 
ATOM      6  N   UNL d   1      29.866 -13.958  -6.982  0.00  0.00    -0.378 N 
ATOM      7  C   UNL d   1      29.630 -12.551  -6.568  0.00  0.00     0.143 C 
ATOM      8  C   UNL d   1      29.112 -12.491  -5.112  0.00  0.00     0.146 C 
ENDROOT
BRANCH   2   9
ATOM      9  C   UNL d   1      26.332 -14.184  -3.218  0.00  0.00     0.065 A 
ATOM     10  C   UNL d   1      27.161 -14.934  -2.368  0.00  0.00     0.027 A 
ATOM     11  C   UNL d   1      26.612 -15.908  -1.503  0.00  0.00    -0.051 A 
ATOM     12  C   UNL d   1      25.225 -16.165  -1.536  0.00  0.00    -0.049 A 
ATOM     13  C   UNL d   1      27.525 -16.702  -0.591  0.00  0.00     0.039 C 
ATOM     14  C   UNL d   1      24.403 -15.419  -2.393  0.00  0.00     0.045 A 
ATOM     15  C   UNL d   1      24.587 -17.205  -0.638  0.00  0.00     0.039 C 
ATOM     16  C   UNL d   1      24.955 -14.451  -3.234  0.00  0.00     0.082 A 
ATOM     17  C   UNL d   1      25.600 -18.196  -0.071  0.00  0.00     0.005 C 
ATOM     18  C   UNL d   1      26.771 -17.428   0.526  0.00  0.00     0.005 C 
BRANCH  16  19
ATOM     19  O   UNL d   1      24.130 -13.759  -4.083  0.00  0.00    -0.360 OA
ATOM     20  H   UNL d   1      24.407 -12.831  -4.120  0.00  0.00     0.217 HD
ENDBRANCH  16  19
ENDBRANCH   2   9
BRANCH   6  21
ATOM     21  C   UNL d   1      31.042 -14.387  -7.540  0.00  0.00     0.032 A 
ATOM     22  C   UNL d   1      31.802 -13.545  -8.355  0.00  0.00     0.046 A 
ATOM     23  C   UNL d   1      32.921 -14.029  -9.027  0.00  0.00     0.089 A 
ATOM     24  N   UNL d   1      33.328 -15.290  -8.822  0.00  0.00    -0.375 N 
ATOM     25  C   UNL d   1      32.701 -16.102  -7.958  0.00  0.00     0.089 A 
ATOM     26  H   UNL d   1      34.138 -15.640  -9.337  0.00  0.00     0.164 HD
ATOM     27  C   UNL d   1      31.533 -15.678  -7.328  0.00  0.00     0.046 A 
ENDBRANCH   6  21
TORSDOF 3
ENDMDL
MODEL 9
REMARK VINA RESULT:    -6.091      3.571      8.137
REMARK INTER + INTRA:          -7.879
REMARK INTER:                  -6.986
REMARK INTRA:                  -0.893
REMARK CONF_INDEPENDENT:        0.895
REMARK UNBOUND:                -0.893
REMARK  3 active torsions:
REMARK  status: ('A' for Active; 'I' for Inactive)
REMARK    1  A    between atoms: C_2  and  C_3 
REMARK       I    between atoms: C_2  and  N_14 
REMARK    2  A    between atoms: C_8  and  O_9 
REMARK    3  A    between atoms: N_17  and  C_18 
ROOT
ATOM      1  O   UNL d   1      25.467 -15.894  -3.108  0.00  0.00    -0.267 OA
ATOM      2  C   UNL d   1      26.159 -14.921  -2.800  0.00  0.00     0.256 C 
ATOM      3  N   UNL d   1      26.842 -14.833  -1.588  0.00  0.00    -0.345 N 
ATOM      4  C   UNL d   1      27.159 -13.549  -0.965  0.00  0.00     0.146 C 
ATOM      5  C   UNL d   1      26.862 -13.583   0.546  0.00  0.00     0.143 C 
ATOM      6  N   UNL d   1      27.622 -14.687   1.154  0.00  0.00    -0.378 N 
ATOM      7  C   UNL d   1      27.304 -16.016   0.570  0.00  0.00     0.143 C 
ATOM      8  C   UNL d   1      27.496 -15.997  -0.964  0.00  0.00     0.146 C 
ENDROOT
BRANCH   2   9
ATOM      9  C   UNL d   1      26.291 -13.776  -3.756  0.00  0.00     0.065 A 
ATOM     10  C   UNL d   1      25.843 -12.490  -3.412  0.00  0.00     0.027 A 
ATOM     11  C   UNL d   1      26.017 -11.405  -4.301  0.00  0.00    -0.051 A 
ATOM     12  C   UNL d   1      26.595 -11.630  -5.568  0.00  0.00    -0.049 A 
ATOM     13  C   UNL d   1      25.529 -10.026  -3.906  0.00  0.00     0.039 C 
ATOM     14  C   UNL d   1      27.033 -12.918  -5.910  0.00  0.00     0.045 A 
ATOM     15  C   UNL d   1      26.794 -10.506  -6.563  0.00  0.00     0.039 C 
ATOM     16  C   UNL d   1      26.868 -13.979  -5.019  0.00  0.00     0.082 A 
ATOM     17  C   UNL d   1      25.937  -9.281  -6.250  0.00  0.00     0.005 C 
ATOM     18  C   UNL d   1      26.111  -8.913  -4.783  0.00  0.00     0.005 C 
BRANCH  16  19
ATOM     19  O   UNL d   1      27.279 -15.232  -5.394  0.00  0.00    -0.360 OA
ATOM     20  H   UNL d   1      26.927 -15.889  -4.772  0.00  0.00     0.217 HD
ENDBRANCH  16  19
ENDBRANCH   2   9
BRANCH   6  21
ATOM     21  C   UNL d   1      28.484 -14.517   2.207  0.00  0.00     0.032 A 
ATOM     22  C   UNL d   1      29.861 -14.413   2.000  0.00  0.00     0.046 A 
ATOM     23  C   UNL d   1      30.739 -14.379   3.079  0.00  0.00     0.089 A 
ATOM     24  N   UNL d   1      30.257 -14.354   4.330  0.00  0.00    -0.375 N 
ATOM     25  C   UNL d   1      28.939 -14.333   4.579  0.00  0.00     0.089 A 
ATOM     26  H   UNL d   1      30.912 -14.351   5.114  0.00  0.00     0.164 HD
ATOM     27  C   UNL d   1      28.032 -14.446   3.527  0.00  0.00     0.046 A 
ENDBRANCH   6  21
TORSDOF 3
ENDMDL
