MODEL 1
REMARK VINA RESULT:   -32.032      0.000      0.000
REMARK INTER + INTRA:         -35.509
REMARK INTER:                 -34.418
REMARK INTRA:                  -1.091
REMARK CONF_INDEPENDENT:        2.386
REMARK UNBOUND:                -1.091
REMARK  8 active torsions:
REMARK  status: ('A' for Active; 'I' for Inactive)
REMARK    1  A    between atoms: O_2  and  C_3 
REMARK    2  A    between atoms: C_6  and  N_7 
REMARK    3  A    between atoms: N_7  and  C_8 
REMARK    4  A    between atoms: C_10  and  C_11 
REMARK       I    between atoms: C_11  and  N_13 
REMARK    5  A    between atoms: N_13  and  C_14 
REMARK    6  A    between atoms: C_14  and  C_15 
REMARK    7  A    between atoms: C_15  and  C_16 
REMARK    8  A    between atoms: C_27  and  O_28 
ROOT
ATOM      1  C   UNL d   1      28.875 -15.654  -4.798  0.00  0.00     0.171 A 
ATOM      2  N   UNL d   1      27.894 -15.826  -3.918  0.00  0.00    -0.218 NA
ATOM      3  C   UNL d   1      26.729 -15.111  -4.251  0.00  0.00     0.133 A 
ATOM      4  C   UNL d   1      26.912 -14.329  -5.394  0.00  0.00     0.090 A 
ATOM      5  S   UNL d   1      28.502 -14.515  -6.047  0.00  0.00    -0.061 SA
ENDROOT
BRANCH   3   6
ATOM      6  C   UNL d   1      25.463 -15.158  -3.406  0.00  0.00     0.270 C 
ATOM      7  O   UNL d   1      24.568 -14.288  -3.622  0.00  0.00    -0.266 OA
ATOM      8  N   UNL d   1      25.300 -16.141  -2.387  0.00  0.00    -0.356 N 
ATOM      9  H   UNL d   1      26.042 -16.838  -2.403  0.00  0.00     0.162 HD
BRANCH   8  10
ATOM     10  C   UNL d   1      24.104 -16.292  -1.321  0.00  0.00     0.124 C 
BRANCH  10  11
ATOM     11  C   UNL d   1      23.215 -17.862  -1.257  0.00  0.00     0.037 C 
BRANCH  11  12
ATOM     12  C   UNL d   1      21.665 -18.326  -0.434  0.00  0.00     0.021 C 
ATOM     13  C   UNL d   1      21.227 -19.336  -1.272  0.00  0.00     0.093 C 
ATOM     14  N   UNL d   1      19.905 -18.969  -1.269  0.00  0.00    -0.285 NA
ATOM     15  C   UNL d   1      19.490 -19.474  -0.073  0.00  0.00     0.015 A 
ATOM     16  H   UNL d   1      19.589 -18.034  -1.468  0.00  0.00     0.128 HD
ATOM     17  C   UNL d   1      18.323 -20.247   0.117  0.00  0.00     0.024 A 
ATOM     18  C   UNL d   1      20.601 -19.138   0.753  0.00  0.00    -0.025 A 
ATOM     19  C   UNL d   1      18.070 -20.898   1.295  0.00  0.00     0.002 A 
ATOM     20  C   UNL d   1      19.056 -20.755   2.256  0.00  0.00     0.001 A 
ATOM     21  C   UNL d   1      20.306 -19.883   2.049  0.00  0.00     0.010 A 
ENDBRANCH  11  12
ENDBRANCH  10  11
ENDBRANCH   8  10
ENDBRANCH   3   6
BRANCH   1  22
ATOM     22  N   UNL d   1      30.100 -16.268  -4.748  0.00  0.00    -0.333 N 
ATOM     23  H   UNL d   1      30.872 -15.733  -4.364  0.00  0.00     0.168 HD
BRANCH  22  24
ATOM     24  C   UNL d   1      30.540 -17.286  -5.653  0.00  0.00     0.068 A 
ATOM     25  C   UNL d   1      30.596 -18.626  -5.212  0.00  0.00     0.035 A 
ATOM     26  C   UNL d   1      31.038 -19.659  -6.064  0.00  0.00     0.039 A 
ATOM     27  C   UNL d   1      31.357 -19.390  -7.393  0.00  0.00     0.070 A 
ATOM     28  C   UNL d   1      31.248 -18.088  -7.855  0.00  0.00     0.075 A 
ATOM     29  C   UNL d   1      30.854 -17.046  -7.009  0.00  0.00     0.097 A 
BRANCH  27  30
ATOM     30  O   UNL d   1      31.671 -20.451  -8.198  0.00  0.00    -0.356 OA
ATOM     31  C   UNL d   1      32.317 -21.549  -7.551  0.00  0.00     0.210 C 
ENDBRANCH  27  30
BRANCH  29  32
ATOM     32  O   UNL d   1      30.786 -15.756  -7.447  0.00  0.00    -0.354 OA
ATOM     33  C   UNL d   1      31.977 -15.042  -7.698  0.00  0.00     0.210 C 
ENDBRANCH  29  32
ENDBRANCH  22  24
ENDBRANCH   1  22
TORSDOF 8
ENDMDL
MODEL 2
REMARK VINA RESULT:   -31.739      5.849      8.509
REMARK INTER + INTRA:         -35.244
REMARK INTER:                 -34.126
REMARK INTRA:                  -1.118
REMARK CONF_INDEPENDENT:        2.386
REMARK UNBOUND:                -1.118
REMARK  8 active torsions:
REMARK  status: ('A' for Active; 'I' for Inactive)
REMARK    1  A    between atoms: O_2  and  C_3 
REMARK    2  A    between atoms: C_6  and  N_7 
REMARK    3  A    between atoms: N_7  and  C_8 
REMARK    4  A    between atoms: C_10  and  C_11 
REMARK       I    between atoms: C_11  and  N_13 
REMARK    5  A    between atoms: N_13  and  C_14 
REMARK    6  A    between atoms: C_14  and  C_15 
REMARK    7  A    between atoms: C_15  and  C_16 
REMARK    8  A    between atoms: C_27  and  O_28 
ROOT
ATOM      1  C   UNL d   1      28.739 -14.452   1.370  0.00  0.00     0.171 A 
ATOM      2  N   UNL d   1      27.821 -15.372   1.092  0.00  0.00    -0.218 NA
ATOM      3  C   UNL d   1      27.177 -15.148  -0.138  0.00  0.00     0.133 A 
ATOM      4  C   UNL d   1      27.607 -13.963  -0.738  0.00  0.00     0.090 A 
ATOM      5  S   UNL d   1      28.814 -13.169   0.211  0.00  0.00    -0.061 SA
ENDROOT
BRANCH   3   6
ATOM      6  C   UNL d   1      26.098 -16.074  -0.684  0.00  0.00     0.270 C 
ATOM      7  O   UNL d   1      25.370 -15.650  -1.630  0.00  0.00    -0.266 OA
ATOM      8  N   UNL d   1      25.900 -17.373  -0.130  0.00  0.00    -0.356 N 
ATOM      9  H   UNL d   1      26.625 -17.619   0.540  0.00  0.00     0.162 HD
BRANCH   8  10
ATOM     10  C   UNL d   1      24.756 -18.449  -0.482  0.00  0.00     0.124 C 
BRANCH  10  11
ATOM     11  C   UNL d   1      23.085 -17.842  -0.794  0.00  0.00     0.037 C 
BRANCH  11  12
ATOM     12  C   UNL d   1      21.472 -18.419  -0.194  0.00  0.00     0.021 C 
ATOM     13  C   UNL d   1      21.212 -19.431  -1.103  0.00  0.00     0.093 C 
ATOM     14  N   UNL d   1      19.881 -19.142  -1.270  0.00  0.00    -0.285 NA
ATOM     15  C   UNL d   1      19.343 -19.703  -0.149  0.00  0.00     0.015 A 
ATOM     16  H   UNL d   1      19.536 -18.223  -1.492  0.00  0.00     0.128 HD
ATOM     17  C   UNL d   1      18.211 -20.548  -0.132  0.00  0.00     0.024 A 
ATOM     18  C   UNL d   1      20.312 -19.325   0.824  0.00  0.00    -0.025 A 
ATOM     19  C   UNL d   1      17.846 -21.244   0.988  0.00  0.00     0.002 A 
ATOM     20  C   UNL d   1      18.685 -21.070   2.075  0.00  0.00     0.001 A 
ATOM     21  C   UNL d   1      19.895 -20.121   2.054  0.00  0.00     0.010 A 
ENDBRANCH  11  12
ENDBRANCH  10  11
ENDBRANCH   8  10
ENDBRANCH   3   6
BRANCH   1  22
ATOM     22  N   UNL d   1      29.550 -14.451   2.475  0.00  0.00    -0.333 N 
ATOM     23  H   UNL d   1      30.290 -15.144   2.508  0.00  0.00     0.168 HD
BRANCH  22  24
ATOM     24  C   UNL d   1      29.152 -14.017   3.779  0.00  0.00     0.068 A 
ATOM     25  C   UNL d   1      29.405 -14.846   4.893  0.00  0.00     0.035 A 
ATOM     26  C   UNL d   1      29.017 -14.466   6.193  0.00  0.00     0.039 A 
ATOM     27  C   UNL d   1      28.439 -13.219   6.421  0.00  0.00     0.070 A 
ATOM     28  C   UNL d   1      28.240 -12.369   5.344  0.00  0.00     0.075 A 
ATOM     29  C   UNL d   1      28.580 -12.752   4.042  0.00  0.00     0.097 A 
BRANCH  27  30
ATOM     30  O   UNL d   1      28.187 -12.863   7.718  0.00  0.00    -0.356 OA
ATOM     31  C   UNL d   1      28.471 -11.504   8.053  0.00  0.00     0.210 C 
ENDBRANCH  27  30
BRANCH  29  32
ATOM     32  O   UNL d   1      28.347 -11.937   2.973  0.00  0.00    -0.354 OA
ATOM     33  C   UNL d   1      29.300 -10.956   2.624  0.00  0.00     0.210 C 
ENDBRANCH  29  32
ENDBRANCH  22  24
ENDBRANCH   1  22
TORSDOF 8
ENDMDL
MODEL 3
REMARK VINA RESULT:   -31.612      1.344      1.871
REMARK INTER + INTRA:         -35.064
REMARK INTER:                 -33.999
REMARK INTRA:                  -1.065
REMARK CONF_INDEPENDENT:        2.386
REMARK UNBOUND:                -1.065
REMARK  8 active torsions:
REMARK  status: ('A' for Active; 'I' for Inactive)
REMARK    1  A    between atoms: O_2  and  C_3 
REMARK    2  A    between atoms: C_6  and  N_7 
REMARK    3  A    between atoms: N_7  and  C_8 
REMARK    4  A    between atoms: C_10  and  C_11 
REMARK       I    between atoms: C_11  and  N_13 
REMARK    5  A    between atoms: N_13  and  C_14 
REMARK    6  A    between atoms: C_14  and  C_15 
REMARK    7  A    between atoms: C_15  and  C_16 
REMARK    8  A    between atoms: C_27  and  O_28 
ROOT
ATOM      1  C   UNL d   1      28.681 -15.207  -4.363  0.00  0.00     0.171 A 
ATOM      2  N   UNL d   1      27.685 -15.552  -3.553  0.00  0.00    -0.218 NA
ATOM      3  C   UNL d   1      26.497 -14.848  -3.817  0.00  0.00     0.133 A 
ATOM      4  C   UNL d   1      26.673 -13.895  -4.823  0.00  0.00     0.090 A 
ATOM      5  S   UNL d   1      28.288 -13.910  -5.439  0.00  0.00    -0.061 SA
ENDROOT
BRANCH   3   6
ATOM      6  C   UNL d   1      25.211 -15.078  -3.034  0.00  0.00     0.270 C 
ATOM      7  O   UNL d   1      24.163 -14.476  -3.416  0.00  0.00    -0.266 OA
ATOM      8  N   UNL d   1      25.192 -15.930  -1.892  0.00  0.00    -0.356 N 
ATOM      9  H   UNL d   1      26.070 -16.430  -1.772  0.00  0.00     0.162 HD
BRANCH   8  10
ATOM     10  C   UNL d   1      23.981 -16.214  -0.872  0.00  0.00     0.124 C 
BRANCH  10  11
ATOM     11  C   UNL d   1      23.194 -17.838  -0.918  0.00  0.00     0.037 C 
BRANCH  11  12
ATOM     12  C   UNL d   1      21.606 -18.418  -0.256  0.00  0.00     0.021 C 
ATOM     13  C   UNL d   1      21.230 -19.310  -1.246  0.00  0.00     0.093 C 
ATOM     14  N   UNL d   1      19.905 -18.954  -1.270  0.00  0.00    -0.285 NA
ATOM     15  C   UNL d   1      19.430 -19.618  -0.177  0.00  0.00     0.015 A 
ATOM     16  H   UNL d   1      19.588 -18.003  -1.360  0.00  0.00     0.128 HD
ATOM     17  C   UNL d   1      18.265 -20.416  -0.161  0.00  0.00     0.024 A 
ATOM     18  C   UNL d   1      20.488 -19.389   0.749  0.00  0.00    -0.025 A 
ATOM     19  C   UNL d   1      17.955 -21.220   0.903  0.00  0.00     0.002 A 
ATOM     20  C   UNL d   1      18.883 -21.202   1.930  0.00  0.00     0.001 A 
ATOM     21  C   UNL d   1      20.131 -20.303   1.914  0.00  0.00     0.010 A 
ENDBRANCH  11  12
ENDBRANCH  10  11
ENDBRANCH   8  10
ENDBRANCH   3   6
BRANCH   1  22
ATOM     22  N   UNL d   1      29.933 -15.767  -4.362  0.00  0.00    -0.333 N 
ATOM     23  H   UNL d   1      30.724 -15.133  -4.385  0.00  0.00     0.168 HD
BRANCH  22  24
ATOM     24  C   UNL d   1      30.250 -17.055  -4.896  0.00  0.00     0.068 A 
ATOM     25  C   UNL d   1      30.489 -17.192  -6.281  0.00  0.00     0.035 A 
ATOM     26  C   UNL d   1      30.790 -18.444  -6.852  0.00  0.00     0.039 A 
ATOM     27  C   UNL d   1      30.936 -19.571  -6.047  0.00  0.00     0.070 A 
ATOM     28  C   UNL d   1      30.764 -19.440  -4.678  0.00  0.00     0.075 A 
ATOM     29  C   UNL d   1      30.421 -18.211  -4.102  0.00  0.00     0.097 A 
BRANCH  27  30
ATOM     30  O   UNL d   1      31.339 -20.733  -6.647  0.00  0.00    -0.356 OA
ATOM     31  C   UNL d   1      31.612 -20.644  -8.047  0.00  0.00     0.210 C 
ENDBRANCH  27  30
BRANCH  29  32
ATOM     32  O   UNL d   1      30.208 -18.085  -2.760  0.00  0.00    -0.354 OA
ATOM     33  C   UNL d   1      31.000 -17.189  -2.010  0.00  0.00     0.210 C 
ENDBRANCH  29  32
ENDBRANCH  22  24
ENDBRANCH   1  22
TORSDOF 8
ENDMDL
MODEL 4
REMARK VINA RESULT:   -31.435      6.278      9.122
REMARK INTER + INTRA:         -35.230
REMARK INTER:                 -33.821
REMARK INTRA:                  -1.409
REMARK CONF_INDEPENDENT:        2.386
REMARK UNBOUND:                -1.409
REMARK  8 active torsions:
REMARK  status: ('A' for Active; 'I' for Inactive)
REMARK    1  A    between atoms: O_2  and  C_3 
REMARK    2  A    between atoms: C_6  and  N_7 
REMARK    3  A    between atoms: N_7  and  C_8 
REMARK    4  A    between atoms: C_10  and  C_11 
REMARK       I    between atoms: C_11  and  N_13 
REMARK    5  A    between atoms: N_13  and  C_14 
REMARK    6  A    between atoms: C_14  and  C_15 
REMARK    7  A    between atoms: C_15  and  C_16 
REMARK    8  A    between atoms: C_27  and  O_28 
ROOT
ATOM      1  C   UNL d   1      28.287 -14.011   1.737  0.00  0.00     0.171 A 
ATOM      2  N   UNL d   1      27.412 -14.912   1.301  0.00  0.00    -0.218 NA
ATOM      3  C   UNL d   1      28.008 -15.922   0.525  0.00  0.00     0.133 A 
ATOM      4  C   UNL d   1      29.372 -15.691   0.335  0.00  0.00     0.090 A 
ATOM      5  S   UNL d   1      29.893 -14.253   1.141  0.00  0.00    -0.061 SA
ENDROOT
BRANCH   3   6
ATOM      6  C   UNL d   1      27.215 -17.076  -0.074  0.00  0.00     0.270 C 
ATOM      7  O   UNL d   1      27.827 -17.896  -0.822  0.00  0.00    -0.266 OA
ATOM      8  N   UNL d   1      25.820 -17.218   0.182  0.00  0.00    -0.356 N 
ATOM      9  H   UNL d   1      25.491 -16.559   0.885  0.00  0.00     0.162 HD
BRANCH   8  10
ATOM     10  C   UNL d   1      24.789 -18.287  -0.437  0.00  0.00     0.124 C 
BRANCH  10  11
ATOM     11  C   UNL d   1      23.102 -17.742  -0.777  0.00  0.00     0.037 C 
BRANCH  11  12
ATOM     12  C   UNL d   1      21.503 -18.362  -0.183  0.00  0.00     0.021 C 
ATOM     13  C   UNL d   1      21.236 -19.329  -1.137  0.00  0.00     0.093 C 
ATOM     14  N   UNL d   1      19.901 -19.043  -1.269  0.00  0.00    -0.285 NA
ATOM     15  C   UNL d   1      19.385 -19.664  -0.169  0.00  0.00     0.015 A 
ATOM     16  H   UNL d   1      19.546 -18.117  -1.439  0.00  0.00     0.128 HD
ATOM     17  C   UNL d   1      18.260 -20.518  -0.178  0.00  0.00     0.024 A 
ATOM     18  C   UNL d   1      20.366 -19.327   0.807  0.00  0.00    -0.025 A 
ATOM     19  C   UNL d   1      17.917 -21.272   0.912  0.00  0.00     0.002 A 
ATOM     20  C   UNL d   1      18.771 -21.145   1.994  0.00  0.00     0.001 A 
ATOM     21  C   UNL d   1      19.974 -20.186   2.002  0.00  0.00     0.010 A 
ENDBRANCH  11  12
ENDBRANCH  10  11
ENDBRANCH   8  10
ENDBRANCH   3   6
BRANCH   1  22
ATOM     22  N   UNL d   1      27.991 -12.949   2.552  0.00  0.00    -0.333 N 
ATOM     23  H   UNL d   1      28.124 -12.019   2.170  0.00  0.00     0.168 HD
BRANCH  22  24
ATOM     24  C   UNL d   1      28.076 -12.969   3.980  0.00  0.00     0.068 A 
ATOM     25  C   UNL d   1      28.232 -14.203   4.649  0.00  0.00     0.035 A 
ATOM     26  C   UNL d   1      28.306 -14.270   6.054  0.00  0.00     0.039 A 
ATOM     27  C   UNL d   1      28.304 -13.106   6.818  0.00  0.00     0.070 A 
ATOM     28  C   UNL d   1      28.211 -11.883   6.171  0.00  0.00     0.075 A 
ATOM     29  C   UNL d   1      28.093 -11.804   4.779  0.00  0.00     0.097 A 
BRANCH  27  30
ATOM     30  O   UNL d   1      28.490 -13.231   8.168  0.00  0.00    -0.356 OA
ATOM     31  C   UNL d   1      28.742 -12.014   8.873  0.00  0.00     0.210 C 
ENDBRANCH  27  30
BRANCH  29  32
ATOM     32  O   UNL d   1      27.959 -10.606   4.140  0.00  0.00    -0.354 OA
ATOM     33  C   UNL d   1      28.055  -9.407   4.880  0.00  0.00     0.210 C 
ENDBRANCH  29  32
ENDBRANCH  22  24
ENDBRANCH   1  22
TORSDOF 8
ENDMDL
MODEL 5
REMARK VINA RESULT:   -31.148      2.918      4.000
REMARK INTER + INTRA:         -34.575
REMARK INTER:                 -33.534
REMARK INTRA:                  -1.041
REMARK CONF_INDEPENDENT:        2.386
REMARK UNBOUND:                -1.041
REMARK  8 active torsions:
REMARK  status: ('A' for Active; 'I' for Inactive)
REMARK    1  A    between atoms: O_2  and  C_3 
REMARK    2  A    between atoms: C_6  and  N_7 
REMARK    3  A    between atoms: N_7  and  C_8 
REMARK    4  A    between atoms: C_10  and  C_11 
REMARK       I    between atoms: C_11  and  N_13 
REMARK    5  A    between atoms: N_13  and  C_14 
REMARK    6  A    between atoms: C_14  and  C_15 
REMARK    7  A    between atoms: C_15  and  C_16 
REMARK    8  A    between atoms: C_27  and  O_28 
ROOT
ATOM      1  C   UNL d   1      29.409 -16.207  -3.144  0.00  0.00     0.171 A 
ATOM      2  N   UNL d   1      28.195 -16.450  -2.661  0.00  0.00    -0.218 NA
ATOM      3  C   UNL d   1      28.082 -16.152  -1.291  0.00  0.00     0.133 A 
ATOM      4  C   UNL d   1      29.303 -15.742  -0.749  0.00  0.00     0.090 A 
ATOM      5  S   UNL d   1      30.550 -15.705  -1.945  0.00  0.00    -0.061 SA
ENDROOT
BRANCH   3   6
ATOM      6  C   UNL d   1      26.786 -16.332  -0.512  0.00  0.00     0.270 C 
ATOM      7  O   UNL d   1      26.368 -15.359   0.183  0.00  0.00    -0.266 OA
ATOM      8  N   UNL d   1      26.076 -17.567  -0.548  0.00  0.00    -0.356 N 
ATOM      9  H   UNL d   1      26.465 -18.214  -1.232  0.00  0.00     0.162 HD
BRANCH   8  10
ATOM     10  C   UNL d   1      24.765 -17.996   0.281  0.00  0.00     0.124 C 
BRANCH  10  11
ATOM     11  C   UNL d   1      23.159 -17.839  -0.528  0.00  0.00     0.037 C 
BRANCH  11  12
ATOM     12  C   UNL d   1      21.520 -18.467  -0.065  0.00  0.00     0.021 C 
ATOM     13  C   UNL d   1      21.222 -19.238  -1.176  0.00  0.00     0.093 C 
ATOM     14  N   UNL d   1      19.905 -18.863  -1.267  0.00  0.00    -0.285 NA
ATOM     15  C   UNL d   1      19.339 -19.638  -0.299  0.00  0.00     0.015 A 
ATOM     16  H   UNL d   1      19.600 -17.904  -1.275  0.00  0.00     0.128 HD
ATOM     17  C   UNL d   1      18.173 -20.418  -0.466  0.00  0.00     0.024 A 
ATOM     18  C   UNL d   1      20.319 -19.529   0.730  0.00  0.00    -0.025 A 
ATOM     19  C   UNL d   1      17.774 -21.331   0.472  0.00  0.00     0.002 A 
ATOM     20  C   UNL d   1      18.614 -21.441   1.566  0.00  0.00     0.001 A 
ATOM     21  C   UNL d   1      19.863 -20.563   1.752  0.00  0.00     0.010 A 
ENDBRANCH  11  12
ENDBRANCH  10  11
ENDBRANCH   8  10
ENDBRANCH   3   6
BRANCH   1  22
ATOM     22  N   UNL d   1      29.785 -16.359  -4.454  0.00  0.00    -0.333 N 
ATOM     23  H   UNL d   1      30.523 -17.026  -4.651  0.00  0.00     0.168 HD
BRANCH  22  24
ATOM     24  C   UNL d   1      29.693 -15.338  -5.453  0.00  0.00     0.068 A 
ATOM     25  C   UNL d   1      30.872 -14.720  -5.923  0.00  0.00     0.035 A 
ATOM     26  C   UNL d   1      30.827 -13.700  -6.894  0.00  0.00     0.039 A 
ATOM     27  C   UNL d   1      29.617 -13.331  -7.474  0.00  0.00     0.070 A 
ATOM     28  C   UNL d   1      28.457 -13.971  -7.066  0.00  0.00     0.075 A 
ATOM     29  C   UNL d   1      28.482 -14.954  -6.070  0.00  0.00     0.097 A 
BRANCH  27  30
ATOM     30  O   UNL d   1      29.652 -12.414  -8.490  0.00  0.00    -0.356 OA
ATOM     31  C   UNL d   1      28.381 -11.995  -8.990  0.00  0.00     0.210 C 
ENDBRANCH  27  30
BRANCH  29  32
ATOM     32  O   UNL d   1      27.338 -15.558  -5.634  0.00  0.00    -0.354 OA
ATOM     33  C   UNL d   1      26.428 -14.832  -4.837  0.00  0.00     0.210 C 
ENDBRANCH  29  32
ENDBRANCH  22  24
ENDBRANCH   1  22
TORSDOF 8
ENDMDL
MODEL 6
REMARK VINA RESULT:   -31.126      2.087      2.271
REMARK INTER + INTRA:         -34.954
REMARK INTER:                 -33.513
REMARK INTRA:                  -1.441
REMARK CONF_INDEPENDENT:        2.386
REMARK UNBOUND:                -1.441
REMARK  8 active torsions:
REMARK  status: ('A' for Active; 'I' for Inactive)
REMARK    1  A    between atoms: O_2  and  C_3 
REMARK    2  A    between atoms: C_6  and  N_7 
REMARK    3  A    between atoms: N_7  and  C_8 
REMARK    4  A    between atoms: C_10  and  C_11 
REMARK       I    between atoms: C_11  and  N_13 
REMARK    5  A    between atoms: N_13  and  C_14 
REMARK    6  A    between atoms: C_14  and  C_15 
REMARK    7  A    between atoms: C_15  and  C_16 
REMARK    8  A    between atoms: C_27  and  O_28 
ROOT
ATOM      1  C   UNL d   1      29.469 -16.258  -2.638  0.00  0.00     0.171 A 
ATOM      2  N   UNL d   1      28.156 -16.337  -2.447  0.00  0.00    -0.218 NA
ATOM      3  C   UNL d   1      27.816 -16.692  -1.129  0.00  0.00     0.133 A 
ATOM      4  C   UNL d   1      28.949 -16.952  -0.354  0.00  0.00     0.090 A 
ATOM      5  S   UNL d   1      30.404 -16.724  -1.258  0.00  0.00    -0.061 SA
ENDROOT
BRANCH   3   6
ATOM      6  C   UNL d   1      26.374 -16.832  -0.659  0.00  0.00     0.270 C 
ATOM      7  O   UNL d   1      26.162 -17.379   0.464  0.00  0.00    -0.266 OA
ATOM      8  N   UNL d   1      25.293 -16.378  -1.470  0.00  0.00    -0.356 N 
ATOM      9  H   UNL d   1      25.615 -15.861  -2.286  0.00  0.00     0.162 HD
BRANCH   8  10
ATOM     10  C   UNL d   1      23.712 -16.532  -1.212  0.00  0.00     0.124 C 
BRANCH  10  11
ATOM     11  C   UNL d   1      23.136 -17.985  -0.309  0.00  0.00     0.037 C 
BRANCH  11  12
ATOM     12  C   UNL d   1      21.461 -18.554   0.098  0.00  0.00     0.021 C 
ATOM     13  C   UNL d   1      21.205 -19.380  -0.984  0.00  0.00     0.093 C 
ATOM     14  N   UNL d   1      19.904 -18.985  -1.167  0.00  0.00    -0.285 NA
ATOM     15  C   UNL d   1      19.270 -19.693  -0.189  0.00  0.00     0.015 A 
ATOM     16  H   UNL d   1      19.622 -18.023  -1.245  0.00  0.00     0.128 HD
ATOM     17  C   UNL d   1      18.096 -20.458  -0.377  0.00  0.00     0.024 A 
ATOM     18  C   UNL d   1      20.195 -19.545   0.883  0.00  0.00    -0.025 A 
ATOM     19  C   UNL d   1      17.627 -21.309   0.587  0.00  0.00     0.002 A 
ATOM     20  C   UNL d   1      18.405 -21.373   1.730  0.00  0.00     0.001 A 
ATOM     21  C   UNL d   1      19.662 -20.510   1.935  0.00  0.00     0.010 A 
ENDBRANCH  11  12
ENDBRANCH  10  11
ENDBRANCH   8  10
ENDBRANCH   3   6
BRANCH   1  22
ATOM     22  N   UNL d   1      30.078 -15.885  -3.808  0.00  0.00    -0.333 N 
ATOM     23  H   UNL d   1      29.965 -14.921  -4.103  0.00  0.00     0.168 HD
BRANCH  22  24
ATOM     24  C   UNL d   1      30.341 -16.763  -4.907  0.00  0.00     0.068 A 
ATOM     25  C   UNL d   1      30.303 -18.160  -4.703  0.00  0.00     0.035 A 
ATOM     26  C   UNL d   1      30.571 -19.061  -5.753  0.00  0.00     0.039 A 
ATOM     27  C   UNL d   1      30.803 -18.592  -7.043  0.00  0.00     0.070 A 
ATOM     28  C   UNL d   1      30.783 -17.225  -7.271  0.00  0.00     0.075 A 
ATOM     29  C   UNL d   1      30.563 -16.317  -6.229  0.00  0.00     0.097 A 
BRANCH  27  30
ATOM     30  O   UNL d   1      30.946 -19.519  -8.040  0.00  0.00    -0.356 OA
ATOM     31  C   UNL d   1      32.283 -19.954  -8.294  0.00  0.00     0.210 C 
ENDBRANCH  27  30
BRANCH  29  32
ATOM     32  O   UNL d   1      30.585 -14.969  -6.439  0.00  0.00    -0.354 OA
ATOM     33  C   UNL d   1      29.560 -14.367  -7.201  0.00  0.00     0.210 C 
ENDBRANCH  29  32
ENDBRANCH  22  24
ENDBRANCH   1  22
TORSDOF 8
ENDMDL
MODEL 7
REMARK VINA RESULT:   -30.988      4.228      6.798
REMARK INTER + INTRA:         -34.317
REMARK INTER:                 -33.375
REMARK INTRA:                  -0.943
REMARK CONF_INDEPENDENT:        2.386
REMARK UNBOUND:                -0.943
REMARK  8 active torsions:
REMARK  status: ('A' for Active; 'I' for Inactive)
REMARK    1  A    between atoms: O_2  and  C_3 
REMARK    2  A    between atoms: C_6  and  N_7 
REMARK    3  A    between atoms: N_7  and  C_8 
REMARK    4  A    between atoms: C_10  and  C_11 
REMARK       I    between atoms: C_11  and  N_13 
REMARK    5  A    between atoms: N_13  and  C_14 
REMARK    6  A    between atoms: C_14  and  C_15 
REMARK    7  A    between atoms: C_15  and  C_16 
REMARK    8  A    between atoms: C_27  and  O_28 
ROOT
ATOM      1  C   UNL d   1      26.948 -13.121  -5.166  0.00  0.00     0.171 A 
ATOM      2  N   UNL d   1      25.943 -13.307  -4.317  0.00  0.00    -0.218 NA
ATOM      3  C   UNL d   1      25.856 -14.632  -3.854  0.00  0.00     0.133 A 
ATOM      4  C   UNL d   1      26.806 -15.455  -4.461  0.00  0.00     0.090 A 
ATOM      5  S   UNL d   1      27.802 -14.572  -5.564  0.00  0.00    -0.061 SA
ENDROOT
BRANCH   3   6
ATOM      6  C   UNL d   1      24.797 -15.091  -2.860  0.00  0.00     0.270 C 
ATOM      7  O   UNL d   1      23.682 -14.489  -2.855  0.00  0.00    -0.266 OA
ATOM      8  N   UNL d   1      25.061 -16.154  -1.947  0.00  0.00    -0.356 N 
ATOM      9  H   UNL d   1      25.947 -16.614  -2.141  0.00  0.00     0.162 HD
BRANCH   8  10
ATOM     10  C   UNL d   1      24.131 -16.708  -0.757  0.00  0.00     0.124 C 
BRANCH  10  11
ATOM     11  C   UNL d   1      23.012 -18.078  -1.120  0.00  0.00     0.037 C 
BRANCH  11  12
ATOM     12  C   UNL d   1      21.439 -18.571  -0.360  0.00  0.00     0.021 C 
ATOM     13  C   UNL d   1      21.021 -19.541  -1.254  0.00  0.00     0.093 C 
ATOM     14  N   UNL d   1      19.700 -19.168  -1.270  0.00  0.00    -0.285 NA
ATOM     15  C   UNL d   1      19.251 -19.724  -0.108  0.00  0.00     0.015 A 
ATOM     16  H   UNL d   1      19.392 -18.225  -1.435  0.00  0.00     0.128 HD
ATOM     17  C   UNL d   1      18.077 -20.500   0.015  0.00  0.00     0.024 A 
ATOM     18  C   UNL d   1      20.340 -19.431   0.761  0.00  0.00    -0.025 A 
ATOM     19  C   UNL d   1      17.791 -21.201   1.156  0.00  0.00     0.002 A 
ATOM     20  C   UNL d   1      18.750 -21.105   2.148  0.00  0.00     0.001 A 
ATOM     21  C   UNL d   1      20.009 -20.231   2.014  0.00  0.00     0.010 A 
ENDBRANCH  11  12
ENDBRANCH  10  11
ENDBRANCH   8  10
ENDBRANCH   3   6
BRANCH   1  22
ATOM     22  N   UNL d   1      27.295 -11.922  -5.732  0.00  0.00    -0.333 N 
ATOM     23  H   UNL d   1      28.278 -11.769  -5.930  0.00  0.00     0.168 HD
BRANCH  22  24
ATOM     24  C   UNL d   1      26.579 -10.696  -5.549  0.00  0.00     0.068 A 
ATOM     25  C   UNL d   1      25.917 -10.109  -6.649  0.00  0.00     0.035 A 
ATOM     26  C   UNL d   1      25.214  -8.895  -6.517  0.00  0.00     0.039 A 
ATOM     27  C   UNL d   1      25.090  -8.282  -5.273  0.00  0.00     0.070 A 
ATOM     28  C   UNL d   1      25.684  -8.879  -4.172  0.00  0.00     0.075 A 
ATOM     29  C   UNL d   1      26.423 -10.061  -4.296  0.00  0.00     0.097 A 
BRANCH  27  30
ATOM     30  O   UNL d   1      24.301  -7.166  -5.190  0.00  0.00    -0.356 OA
ATOM     31  C   UNL d   1      23.457  -6.921  -6.316  0.00  0.00     0.210 C 
ENDBRANCH  27  30
BRANCH  29  32
ATOM     32  O   UNL d   1      27.046 -10.631  -3.224  0.00  0.00    -0.354 OA
ATOM     33  C   UNL d   1      28.339 -10.198  -2.859  0.00  0.00     0.210 C 
ENDBRANCH  29  32
ENDBRANCH  22  24
ENDBRANCH   1  22
TORSDOF 8
ENDMDL
MODEL 8
REMARK VINA RESULT:   -30.958      5.470      8.570
REMARK INTER + INTRA:         -34.680
REMARK INTER:                 -33.345
REMARK INTRA:                  -1.335
REMARK CONF_INDEPENDENT:        2.386
REMARK UNBOUND:                -1.335
REMARK  8 active torsions:
REMARK  status: ('A' for Active; 'I' for Inactive)
REMARK    1  A    between atoms: O_2  and  C_3 
REMARK    2  A    between atoms: C_6  and  N_7 
REMARK    3  A    between atoms: N_7  and  C_8 
REMARK    4  A    between atoms: C_10  and  C_11 
REMARK       I    between atoms: C_11  and  N_13 
REMARK    5  A    between atoms: N_13  and  C_14 
REMARK    6  A    between atoms: C_14  and  C_15 
REMARK    7  A    between atoms: C_15  and  C_16 
REMARK    8  A    between atoms: C_27  and  O_28 
ROOT
ATOM      1  C   UNL d   1      28.445 -13.967   1.113  0.00  0.00     0.171 A 
ATOM      2  N   UNL d   1      27.518 -14.882   0.848  0.00  0.00    -0.218 NA
ATOM      3  C   UNL d   1      27.652 -15.438  -0.437  0.00  0.00     0.133 A 
ATOM      4  C   UNL d   1      28.686 -14.836  -1.157  0.00  0.00     0.090 A 
ATOM      5  S   UNL d   1      29.488 -13.622  -0.224  0.00  0.00    -0.061 SA
ENDROOT
BRANCH   3   6
ATOM      6  C   UNL d   1      26.719 -16.519  -0.969  0.00  0.00     0.270 C 
ATOM      7  O   UNL d   1      26.654 -16.688  -2.222  0.00  0.00    -0.266 OA
ATOM      8  N   UNL d   1      25.925 -17.301  -0.080  0.00  0.00    -0.356 N 
ATOM      9  H   UNL d   1      26.162 -17.135   0.895  0.00  0.00     0.162 HD
BRANCH   8  10
ATOM     10  C   UNL d   1      24.806 -18.401  -0.439  0.00  0.00     0.124 C 
BRANCH  10  11
ATOM     11  C   UNL d   1      23.129 -17.827  -0.780  0.00  0.00     0.037 C 
BRANCH  11  12
ATOM     12  C   UNL d   1      21.518 -18.417  -0.184  0.00  0.00     0.021 C 
ATOM     13  C   UNL d   1      21.200 -19.326  -1.179  0.00  0.00     0.093 C 
ATOM     14  N   UNL d   1      19.873 -18.986  -1.270  0.00  0.00    -0.285 NA
ATOM     15  C   UNL d   1      19.355 -19.641  -0.192  0.00  0.00     0.015 A 
ATOM     16  H   UNL d   1      19.550 -18.041  -1.388  0.00  0.00     0.128 HD
ATOM     17  C   UNL d   1      18.199 -20.453  -0.219  0.00  0.00     0.024 A 
ATOM     18  C   UNL d   1      20.365 -19.388   0.779  0.00  0.00    -0.025 A 
ATOM     19  C   UNL d   1      17.849 -21.247   0.839  0.00  0.00     0.002 A 
ATOM     20  C   UNL d   1      18.726 -21.204   1.909  0.00  0.00     0.001 A 
ATOM     21  C   UNL d   1      19.964 -20.291   1.939  0.00  0.00     0.010 A 
ENDBRANCH  11  12
ENDBRANCH  10  11
ENDBRANCH   8  10
ENDBRANCH   3   6
BRANCH   1  22
ATOM     22  N   UNL d   1      28.583 -13.302   2.304  0.00  0.00    -0.333 N 
ATOM     23  H   UNL d   1      28.679 -13.866   3.142  0.00  0.00     0.168 HD
BRANCH  22  24
ATOM     24  C   UNL d   1      28.050 -12.003   2.580  0.00  0.00     0.068 A 
ATOM     25  C   UNL d   1      27.653 -11.175   1.507  0.00  0.00     0.035 A 
ATOM     26  C   UNL d   1      27.137  -9.883   1.732  0.00  0.00     0.039 A 
ATOM     27  C   UNL d   1      26.932  -9.421   3.029  0.00  0.00     0.070 A 
ATOM     28  C   UNL d   1      27.260 -10.247   4.093  0.00  0.00     0.075 A 
ATOM     29  C   UNL d   1      27.815 -11.515   3.884  0.00  0.00     0.097 A 
BRANCH  27  30
ATOM     30  O   UNL d   1      26.324  -8.204   3.182  0.00  0.00    -0.356 OA
ATOM     31  C   UNL d   1      26.377  -7.339   2.045  0.00  0.00     0.210 C 
ENDBRANCH  27  30
BRANCH  29  32
ATOM     32  O   UNL d   1      28.180 -12.315   4.927  0.00  0.00    -0.354 OA
ATOM     33  C   UNL d   1      29.525 -12.725   5.054  0.00  0.00     0.210 C 
ENDBRANCH  29  32
ENDBRANCH  22  24
ENDBRANCH   1  22
TORSDOF 8
ENDMDL
MODEL 9
REMARK VINA RESULT:   -30.884      1.264      2.655
REMARK INTER + INTRA:         -34.366
REMARK INTER:                 -33.271
REMARK INTRA:                  -1.095
REMARK CONF_INDEPENDENT:        2.386
REMARK UNBOUND:                -1.095
REMARK  8 active torsions:
REMARK  status: ('A' for Active; 'I' for Inactive)
REMARK    1  A    between atoms: O_2  and  C_3 
REMARK    2  A    between atoms: C_6  and  N_7 
REMARK    3  A    between atoms: N_7  and  C_8 
REMARK    4  A    between atoms: C_10  and  C_11 
REMARK       I    between atoms: C_11  and  N_13 
REMARK    5  A    between atoms: N_13  and  C_14 
REMARK    6  A    between atoms: C_14  and  C_15 
REMARK    7  A    between atoms: C_15  and  C_16 
REMARK    8  A    between atoms: C_27  and  O_28 
ROOT
ATOM      1  C   UNL d   1      28.699 -15.244  -4.364  0.00  0.00     0.171 A 
ATOM      2  N   UNL d   1      27.695 -15.537  -3.544  0.00  0.00    -0.218 NA
ATOM      3  C   UNL d   1      26.501 -14.876  -3.883  0.00  0.00     0.133 A 
ATOM      4  C   UNL d   1      26.680 -14.007  -4.962  0.00  0.00     0.090 A 
ATOM      5  S   UNL d   1      28.305 -14.047  -5.550  0.00  0.00    -0.061 SA
ENDROOT
BRANCH   3   6
ATOM      6  C   UNL d   1      25.206 -15.061  -3.104  0.00  0.00     0.270 C 
ATOM      7  O   UNL d   1      24.189 -14.399  -3.469  0.00  0.00    -0.266 OA
ATOM      8  N   UNL d   1      25.146 -15.938  -1.981  0.00  0.00    -0.356 N 
ATOM      9  H   UNL d   1      25.999 -16.483  -1.875  0.00  0.00     0.162 HD
BRANCH   8  10
ATOM     10  C   UNL d   1      23.923 -16.186  -0.966  0.00  0.00     0.124 C 
BRANCH  10  11
ATOM     11  C   UNL d   1      23.165 -17.824  -0.933  0.00  0.00     0.037 C 
BRANCH  11  12
ATOM     12  C   UNL d   1      21.577 -18.394  -0.262  0.00  0.00     0.021 C 
ATOM     13  C   UNL d   1      21.236 -19.352  -1.202  0.00  0.00     0.093 C 
ATOM     14  N   UNL d   1      19.905 -19.025  -1.270  0.00  0.00    -0.285 NA
ATOM     15  C   UNL d   1      19.423 -19.630  -0.147  0.00  0.00     0.015 A 
ATOM     16  H   UNL d   1      19.571 -18.088  -1.423  0.00  0.00     0.128 HD
ATOM     17  C   UNL d   1      18.273 -20.449  -0.101  0.00  0.00     0.024 A 
ATOM     18  C   UNL d   1      20.460 -19.325   0.781  0.00  0.00    -0.025 A 
ATOM     19  C   UNL d   1      17.960 -21.194   1.005  0.00  0.00     0.002 A 
ATOM     20  C   UNL d   1      18.869 -21.095   2.044  0.00  0.00     0.001 A 
ATOM     21  C   UNL d   1      20.100 -20.173   1.994  0.00  0.00     0.010 A 
ENDBRANCH  11  12
ENDBRANCH  10  11
ENDBRANCH   8  10
ENDBRANCH   3   6
BRANCH   1  22
ATOM     22  N   UNL d   1      29.958 -15.781  -4.297  0.00  0.00    -0.333 N 
ATOM     23  H   UNL d   1      30.332 -15.974  -3.374  0.00  0.00     0.168 HD
BRANCH  22  24
ATOM     24  C   UNL d   1      30.988 -15.572  -5.269  0.00  0.00     0.068 A 
ATOM     25  C   UNL d   1      31.904 -14.513  -5.091  0.00  0.00     0.035 A 
ATOM     26  C   UNL d   1      32.923 -14.260  -6.031  0.00  0.00     0.039 A 
ATOM     27  C   UNL d   1      33.100 -15.104  -7.124  0.00  0.00     0.070 A 
ATOM     28  C   UNL d   1      32.245 -16.184  -7.280  0.00  0.00     0.075 A 
ATOM     29  C   UNL d   1      31.200 -16.420  -6.378  0.00  0.00     0.097 A 
BRANCH  27  30
ATOM     30  O   UNL d   1      34.175 -14.872  -7.939  0.00  0.00    -0.356 OA
ATOM     31  C   UNL d   1      34.239 -13.570  -8.523  0.00  0.00     0.210 C 
ENDBRANCH  27  30
BRANCH  29  32
ATOM     32  O   UNL d   1      30.330 -17.457  -6.550  0.00  0.00    -0.354 OA
ATOM     33  C   UNL d   1      30.831 -18.756  -6.779  0.00  0.00     0.210 C 
ENDBRANCH  29  32
ENDBRANCH  22  24
ENDBRANCH   1  22
TORSDOF 8
ENDMDL
