MODEL 1
REMARK VINA RESULT:    -6.604      0.000      0.000
REMARK INTER + INTRA:          -9.260
REMARK INTER:                  -8.095
REMARK INTRA:                  -1.165
REMARK CONF_INDEPENDENT:        1.492
REMARK UNBOUND:                -1.165
REMARK  5 active torsions:
REMARK  status: ('A' for Active; 'I' for Inactive)
REMARK    1  A    between atoms: C_2  and  C_4 
REMARK    2  A    between atoms: C_2  and  C_11 
REMARK    3  A    between atoms: C_2  and  O_3 
REMARK    4  A    between atoms: C_4  and  N_5 
REMARK       I    between atoms: N_5  and  C_6 
REMARK    5  A    between atoms: C_6  and  C_8 
ROOT
ATOM      1  C   UNL d   1      22.160 -16.690  -0.885  0.00  0.00     0.053 C 
ATOM      2  C   UNL d   1      23.204 -17.814  -0.888  0.00  0.00     0.097 C 
ENDROOT
BRANCH   2   3
ATOM      3  C   UNL d   1      22.861 -18.836   0.228  0.00  0.00     0.165 C 
BRANCH   3   4
ATOM      4  N   UNL d   1      21.449 -18.961   0.530  0.00  0.00    -0.358 N 
ATOM      5  C   UNL d   1      20.586 -19.385  -0.445  0.00  0.00     0.221 C 
ATOM      6  O   UNL d   1      20.940 -19.700  -1.577  0.00  0.00    -0.273 OA
ATOM      7  H   UNL d   1      21.100 -18.615   1.418  0.00  0.00     0.162 HD
BRANCH   5   8
ATOM      8  C   UNL d   1      19.162 -19.460  -0.036  0.00  0.00     0.078 A 
ATOM      9  C   UNL d   1      18.606 -20.776   0.470  0.00  0.00     0.015 A 
ATOM     10  C   UNL d   1      18.808 -19.636   1.426  0.00  0.00     0.015 A 
ENDBRANCH   5   8
ENDBRANCH   3   4
ENDBRANCH   2   3
BRANCH   2  11
ATOM     11  C   UNL d   1      24.634 -17.277  -0.769  0.00  0.00    -0.023 A 
ATOM     12  C   UNL d   1      25.625 -17.990  -0.068  0.00  0.00     0.010 A 
ATOM     13  C   UNL d   1      26.889 -17.442   0.153  0.00  0.00     0.001 A 
ATOM     14  C   UNL d   1      27.219 -16.207  -0.393  0.00  0.00     0.000 A 
ATOM     15  C   UNL d   1      26.272 -15.500  -1.122  0.00  0.00     0.001 A 
ATOM     16  C   UNL d   1      24.993 -16.025  -1.298  0.00  0.00     0.010 A 
ENDBRANCH   2  11
BRANCH   2  17
ATOM     17  O   UNL d   1      23.099 -18.492  -2.152  0.00  0.00    -0.384 OA
ATOM     18  H   UNL d   1      23.025 -19.444  -1.959  0.00  0.00     0.211 HD
ENDBRANCH   2  17
TORSDOF 5
ENDMDL
MODEL 2
REMARK VINA RESULT:    -6.503      1.436      2.236
REMARK INTER + INTRA:          -9.234
REMARK INTER:                  -7.995
REMARK INTRA:                  -1.239
REMARK CONF_INDEPENDENT:        1.492
REMARK UNBOUND:                -1.239
REMARK  5 active torsions:
REMARK  status: ('A' for Active; 'I' for Inactive)
REMARK    1  A    between atoms: C_2  and  C_4 
REMARK    2  A    between atoms: C_2  and  C_11 
REMARK    3  A    between atoms: C_2  and  O_3 
REMARK    4  A    between atoms: C_4  and  N_5 
REMARK       I    between atoms: N_5  and  C_6 
REMARK    5  A    between atoms: C_6  and  C_8 
ROOT
ATOM      1  C   UNL d   1      24.630 -18.185   0.736  0.00  0.00     0.053 C 
ATOM      2  C   UNL d   1      23.841 -17.579  -0.432  0.00  0.00     0.097 C 
ENDROOT
BRANCH   2   3
ATOM      3  C   UNL d   1      23.215 -18.721  -1.276  0.00  0.00     0.165 C 
BRANCH   3   4
ATOM      4  N   UNL d   1      22.358 -19.628  -0.537  0.00  0.00    -0.358 N 
ATOM      5  C   UNL d   1      21.048 -19.292  -0.321  0.00  0.00     0.221 C 
ATOM      6  O   UNL d   1      20.530 -18.263  -0.745  0.00  0.00    -0.273 OA
ATOM      7  H   UNL d   1      22.768 -20.437  -0.084  0.00  0.00     0.162 HD
BRANCH   5   8
ATOM      8  C   UNL d   1      20.266 -20.281   0.461  0.00  0.00     0.078 A 
ATOM      9  C   UNL d   1      19.323 -19.790   1.541  0.00  0.00     0.015 A 
ATOM     10  C   UNL d   1      18.766 -20.370   0.274  0.00  0.00     0.015 A 
ENDBRANCH   5   8
ENDBRANCH   3   4
ENDBRANCH   2   3
BRANCH   2  11
ATOM     11  C   UNL d   1      24.696 -16.630  -1.279  0.00  0.00    -0.023 A 
ATOM     12  C   UNL d   1      24.112 -15.585  -2.018  0.00  0.00     0.010 A 
ATOM     13  C   UNL d   1      24.871 -14.804  -2.890  0.00  0.00     0.001 A 
ATOM     14  C   UNL d   1      26.245 -14.995  -2.979  0.00  0.00     0.000 A 
ATOM     15  C   UNL d   1      26.853 -15.994  -2.231  0.00  0.00     0.001 A 
ATOM     16  C   UNL d   1      26.086 -16.808  -1.400  0.00  0.00     0.010 A 
ENDBRANCH   2  11
BRANCH   2  17
ATOM     17  O   UNL d   1      22.766 -16.808   0.132  0.00  0.00    -0.384 OA
ATOM     18  H   UNL d   1      22.138 -17.441   0.525  0.00  0.00     0.211 HD
ENDBRANCH   2  17
TORSDOF 5
ENDMDL
MODEL 3
REMARK VINA RESULT:    -5.509      1.526      6.267
REMARK INTER + INTRA:          -8.284
REMARK INTER:                  -7.000
REMARK INTRA:                  -1.284
REMARK CONF_INDEPENDENT:        1.492
REMARK UNBOUND:                -1.284
REMARK  5 active torsions:
REMARK  status: ('A' for Active; 'I' for Inactive)
REMARK    1  A    between atoms: C_2  and  C_4 
REMARK    2  A    between atoms: C_2  and  C_11 
REMARK    3  A    between atoms: C_2  and  O_3 
REMARK    4  A    between atoms: C_4  and  N_5 
REMARK       I    between atoms: N_5  and  C_6 
REMARK    5  A    between atoms: C_6  and  C_8 
ROOT
ATOM      1  C   UNL d   1      23.934 -18.949   0.051  0.00  0.00     0.053 C 
ATOM      2  C   UNL d   1      22.770 -18.405  -0.788  0.00  0.00     0.097 C 
ENDROOT
BRANCH   2   3
ATOM      3  C   UNL d   1      22.892 -16.861  -0.895  0.00  0.00     0.165 C 
BRANCH   3   4
ATOM      4  N   UNL d   1      24.215 -16.332  -0.622  0.00  0.00    -0.358 N 
ATOM      5  C   UNL d   1      25.190 -16.431  -1.578  0.00  0.00     0.221 C 
ATOM      6  O   UNL d   1      25.009 -16.925  -2.687  0.00  0.00    -0.273 OA
ATOM      7  H   UNL d   1      24.435 -16.009   0.314  0.00  0.00     0.162 HD
BRANCH   5   8
ATOM      8  C   UNL d   1      26.510 -15.875  -1.190  0.00  0.00     0.078 A 
ATOM      9  C   UNL d   1      26.895 -14.487  -1.661  0.00  0.00     0.015 A 
ATOM     10  C   UNL d   1      26.581 -14.721  -0.212  0.00  0.00     0.015 A 
ENDBRANCH   5   8
ENDBRANCH   3   4
ENDBRANCH   2   3
BRANCH   2  11
ATOM     11  C   UNL d   1      21.407 -18.846  -0.244  0.00  0.00    -0.023 A 
ATOM     12  C   UNL d   1      21.174 -18.954   1.139  0.00  0.00     0.010 A 
ATOM     13  C   UNL d   1      19.978 -19.479   1.632  0.00  0.00     0.001 A 
ATOM     14  C   UNL d   1      18.957 -19.828   0.755  0.00  0.00     0.000 A 
ATOM     15  C   UNL d   1      19.147 -19.695  -0.614  0.00  0.00     0.001 A 
ATOM     16  C   UNL d   1      20.361 -19.220  -1.106  0.00  0.00     0.010 A 
ENDBRANCH   2  11
BRANCH   2  17
ATOM     17  O   UNL d   1      22.906 -18.949  -2.112  0.00  0.00    -0.384 OA
ATOM     18  H   UNL d   1      23.473 -18.337  -2.615  0.00  0.00     0.211 HD
ENDBRANCH   2  17
TORSDOF 5
ENDMDL
MODEL 4
REMARK VINA RESULT:    -5.465      3.428      6.876
REMARK INTER + INTRA:          -8.202
REMARK INTER:                  -6.957
REMARK INTRA:                  -1.245
REMARK CONF_INDEPENDENT:        1.492
REMARK UNBOUND:                -1.245
REMARK  5 active torsions:
REMARK  status: ('A' for Active; 'I' for Inactive)
REMARK    1  A    between atoms: C_2  and  C_4 
REMARK    2  A    between atoms: C_2  and  C_11 
REMARK    3  A    between atoms: C_2  and  O_3 
REMARK    4  A    between atoms: C_4  and  N_5 
REMARK       I    between atoms: N_5  and  C_6 
REMARK    5  A    between atoms: C_6  and  C_8 
ROOT
ATOM      1  C   UNL d   1      26.416 -15.538   0.237  0.00  0.00     0.053 C 
ATOM      2  C   UNL d   1      25.836 -16.186  -1.026  0.00  0.00     0.097 C 
ENDROOT
BRANCH   2   3
ATOM      3  C   UNL d   1      25.580 -15.090  -2.095  0.00  0.00     0.165 C 
BRANCH   3   4
ATOM      4  N   UNL d   1      26.415 -15.181  -3.276  0.00  0.00    -0.358 N 
ATOM      5  C   UNL d   1      25.910 -14.798  -4.490  0.00  0.00     0.221 C 
ATOM      6  O   UNL d   1      24.779 -14.346  -4.645  0.00  0.00    -0.273 OA
ATOM      7  H   UNL d   1      27.317 -15.641  -3.211  0.00  0.00     0.162 HD
BRANCH   5   8
ATOM      8  C   UNL d   1      26.842 -14.948  -5.635  0.00  0.00     0.078 A 
ATOM      9  C   UNL d   1      27.868 -13.865  -5.901  0.00  0.00     0.015 A 
ATOM     10  C   UNL d   1      28.313 -15.200  -5.379  0.00  0.00     0.015 A 
ENDBRANCH   5   8
ENDBRANCH   3   4
ENDBRANCH   2   3
BRANCH   2  11
ATOM     11  C   UNL d   1      24.583 -17.015  -0.729  0.00  0.00    -0.023 A 
ATOM     12  C   UNL d   1      24.658 -18.404  -0.520  0.00  0.00     0.010 A 
ATOM     13  C   UNL d   1      23.506 -19.178  -0.379  0.00  0.00     0.001 A 
ATOM     14  C   UNL d   1      22.256 -18.570  -0.360  0.00  0.00     0.000 A 
ATOM     15  C   UNL d   1      22.155 -17.196  -0.526  0.00  0.00     0.001 A 
ATOM     16  C   UNL d   1      23.303 -16.430  -0.719  0.00  0.00     0.010 A 
ENDBRANCH   2  11
BRANCH   2  17
ATOM     17  O   UNL d   1      26.835 -17.081  -1.545  0.00  0.00    -0.384 OA
ATOM     18  H   UNL d   1      27.367 -17.384  -0.787  0.00  0.00     0.211 HD
ENDBRANCH   2  17
TORSDOF 5
ENDMDL
MODEL 5
REMARK VINA RESULT:    -5.422      4.063      5.694
REMARK INTER + INTRA:          -8.130
REMARK INTER:                  -6.914
REMARK INTRA:                  -1.216
REMARK CONF_INDEPENDENT:        1.492
REMARK UNBOUND:                -1.216
REMARK  5 active torsions:
REMARK  status: ('A' for Active; 'I' for Inactive)
REMARK    1  A    between atoms: C_2  and  C_4 
REMARK    2  A    between atoms: C_2  and  C_11 
REMARK    3  A    between atoms: C_2  and  O_3 
REMARK    4  A    between atoms: C_4  and  N_5 
REMARK       I    between atoms: N_5  and  C_6 
REMARK    5  A    between atoms: C_6  and  C_8 
ROOT
ATOM      1  C   UNL d   1      25.531 -12.475  -3.203  0.00  0.00     0.053 C 
ATOM      2  C   UNL d   1      25.654 -13.889  -3.784  0.00  0.00     0.097 C 
ENDROOT
BRANCH   2   3
ATOM      3  C   UNL d   1      25.856 -14.904  -2.628  0.00  0.00     0.165 C 
BRANCH   3   4
ATOM      4  N   UNL d   1      24.652 -15.593  -2.202  0.00  0.00    -0.358 N 
ATOM      5  C   UNL d   1      24.732 -16.547  -1.223  0.00  0.00     0.221 C 
ATOM      6  O   UNL d   1      25.774 -16.847  -0.649  0.00  0.00    -0.273 OA
ATOM      7  H   UNL d   1      23.791 -15.449  -2.718  0.00  0.00     0.162 HD
BRANCH   5   8
ATOM      8  C   UNL d   1      23.446 -17.202  -0.877  0.00  0.00     0.078 A 
ATOM      9  C   UNL d   1      23.224 -18.648  -1.271  0.00  0.00     0.015 A 
ATOM     10  C   UNL d   1      23.417 -18.291   0.174  0.00  0.00     0.015 A 
ENDBRANCH   5   8
ENDBRANCH   3   4
ENDBRANCH   2   3
BRANCH   2  11
ATOM     11  C   UNL d   1      26.756 -13.987  -4.844  0.00  0.00    -0.023 A 
ATOM     12  C   UNL d   1      27.526 -15.155  -4.992  0.00  0.00     0.010 A 
ATOM     13  C   UNL d   1      28.613 -15.200  -5.865  0.00  0.00     0.001 A 
ATOM     14  C   UNL d   1      28.904 -14.105  -6.671  0.00  0.00     0.000 A 
ATOM     15  C   UNL d   1      28.137 -12.953  -6.573  0.00  0.00     0.001 A 
ATOM     16  C   UNL d   1      27.084 -12.891  -5.663  0.00  0.00     0.010 A 
ENDBRANCH   2  11
BRANCH   2  17
ATOM     17  O   UNL d   1      24.405 -14.197  -4.427  0.00  0.00    -0.384 OA
ATOM     18  H   UNL d   1      24.199 -13.452  -5.020  0.00  0.00     0.211 HD
ENDBRANCH   2  17
TORSDOF 5
ENDMDL
MODEL 6
REMARK VINA RESULT:    -5.397      3.487      7.032
REMARK INTER + INTRA:          -8.117
REMARK INTER:                  -6.888
REMARK INTRA:                  -1.229
REMARK CONF_INDEPENDENT:        1.492
REMARK UNBOUND:                -1.229
REMARK  5 active torsions:
REMARK  status: ('A' for Active; 'I' for Inactive)
REMARK    1  A    between atoms: C_2  and  C_4 
REMARK    2  A    between atoms: C_2  and  C_11 
REMARK    3  A    between atoms: C_2  and  O_3 
REMARK    4  A    between atoms: C_4  and  N_5 
REMARK       I    between atoms: N_5  and  C_6 
REMARK    5  A    between atoms: C_6  and  C_8 
ROOT
ATOM      1  C   UNL d   1      26.447 -15.390   0.253  0.00  0.00     0.053 C 
ATOM      2  C   UNL d   1      25.949 -16.059  -1.035  0.00  0.00     0.097 C 
ENDROOT
BRANCH   2   3
ATOM      3  C   UNL d   1      25.747 -14.978  -2.130  0.00  0.00     0.165 C 
BRANCH   3   4
ATOM      4  N   UNL d   1      26.593 -15.125  -3.298  0.00  0.00    -0.358 N 
ATOM      5  C   UNL d   1      26.086 -14.842  -4.538  0.00  0.00     0.221 C 
ATOM      6  O   UNL d   1      24.944 -14.437  -4.730  0.00  0.00    -0.273 OA
ATOM      7  H   UNL d   1      27.508 -15.552  -3.196  0.00  0.00     0.162 HD
BRANCH   5   8
ATOM      8  C   UNL d   1      27.031 -15.042  -5.665  0.00  0.00     0.078 A 
ATOM      9  C   UNL d   1      28.004 -13.936  -6.020  0.00  0.00     0.015 A 
ATOM     10  C   UNL d   1      28.511 -15.199  -5.386  0.00  0.00     0.015 A 
ENDBRANCH   5   8
ENDBRANCH   3   4
ENDBRANCH   2   3
BRANCH   2  11
ATOM     11  C   UNL d   1      24.688 -16.897  -0.803  0.00  0.00    -0.023 A 
ATOM     12  C   UNL d   1      23.405 -16.325  -0.889  0.00  0.00     0.010 A 
ATOM     13  C   UNL d   1      22.264 -17.054  -0.551  0.00  0.00     0.001 A 
ATOM     14  C   UNL d   1      22.372 -18.395  -0.201  0.00  0.00     0.000 A 
ATOM     15  C   UNL d   1      23.623 -18.995  -0.145  0.00  0.00     0.001 A 
ATOM     16  C   UNL d   1      24.766 -18.252  -0.432  0.00  0.00     0.010 A 
ENDBRANCH   2  11
BRANCH   2  17
ATOM     17  O   UNL d   1      26.986 -16.950  -1.483  0.00  0.00    -0.384 OA
ATOM     18  H   UNL d   1      27.608 -17.057  -0.741  0.00  0.00     0.211 HD
ENDBRANCH   2  17
TORSDOF 5
ENDMDL
MODEL 7
REMARK VINA RESULT:    -5.380      5.205      8.220
REMARK INTER + INTRA:          -8.079
REMARK INTER:                  -6.872
REMARK INTRA:                  -1.207
REMARK CONF_INDEPENDENT:        1.492
REMARK UNBOUND:                -1.207
REMARK  5 active torsions:
REMARK  status: ('A' for Active; 'I' for Inactive)
REMARK    1  A    between atoms: C_2  and  C_4 
REMARK    2  A    between atoms: C_2  and  C_11 
REMARK    3  A    between atoms: C_2  and  O_3 
REMARK    4  A    between atoms: C_4  and  N_5 
REMARK       I    between atoms: N_5  and  C_6 
REMARK    5  A    between atoms: C_6  and  C_8 
ROOT
ATOM      1  C   UNL d   1      26.071 -15.101  -5.020  0.00  0.00     0.053 C 
ATOM      2  C   UNL d   1      25.470 -14.402  -3.794  0.00  0.00     0.097 C 
ENDROOT
BRANCH   2   3
ATOM      3  C   UNL d   1      26.229 -13.073  -3.536  0.00  0.00     0.165 C 
BRANCH   3   4
ATOM      4  N   UNL d   1      25.530 -11.877  -3.965  0.00  0.00    -0.358 N 
ATOM      5  C   UNL d   1      25.976 -10.651  -3.550  0.00  0.00     0.221 C 
ATOM      6  O   UNL d   1      26.967 -10.490  -2.844  0.00  0.00    -0.273 OA
ATOM      7  H   UNL d   1      24.651 -11.969  -4.462  0.00  0.00     0.162 HD
BRANCH   5   8
ATOM      8  C   UNL d   1      25.178  -9.496  -4.031  0.00  0.00     0.078 A 
ATOM      9  C   UNL d   1      25.895  -8.291  -4.608  0.00  0.00     0.015 A 
ATOM     10  C   UNL d   1      25.110  -9.195  -5.513  0.00  0.00     0.015 A 
ENDBRANCH   5   8
ENDBRANCH   3   4
ENDBRANCH   2   3
BRANCH   2  11
ATOM     11  C   UNL d   1      25.451 -15.311  -2.560  0.00  0.00    -0.023 A 
ATOM     12  C   UNL d   1      26.644 -15.777  -1.978  0.00  0.00     0.010 A 
ATOM     13  C   UNL d   1      26.626 -16.707  -0.938  0.00  0.00     0.001 A 
ATOM     14  C   UNL d   1      25.415 -17.127  -0.400  0.00  0.00     0.000 A 
ATOM     15  C   UNL d   1      24.223 -16.653  -0.930  0.00  0.00     0.001 A 
ATOM     16  C   UNL d   1      24.241 -15.765  -2.003  0.00  0.00     0.010 A 
ENDBRANCH   2  11
BRANCH   2  17
ATOM     17  O   UNL d   1      24.106 -14.075  -4.113  0.00  0.00    -0.384 OA
ATOM     18  H   UNL d   1      24.105 -13.718  -5.020  0.00  0.00     0.211 HD
ENDBRANCH   2  17
TORSDOF 5
ENDMDL
MODEL 8
REMARK VINA RESULT:    -4.982      3.212      6.721
REMARK INTER + INTRA:          -7.908
REMARK INTER:                  -6.473
REMARK INTRA:                  -1.435
REMARK CONF_INDEPENDENT:        1.492
REMARK UNBOUND:                -1.435
REMARK  5 active torsions:
REMARK  status: ('A' for Active; 'I' for Inactive)
REMARK    1  A    between atoms: C_2  and  C_4 
REMARK    2  A    between atoms: C_2  and  C_11 
REMARK    3  A    between atoms: C_2  and  O_3 
REMARK    4  A    between atoms: C_4  and  N_5 
REMARK       I    between atoms: N_5  and  C_6 
REMARK    5  A    between atoms: C_6  and  C_8 
ROOT
ATOM      1  C   UNL d   1      27.127 -16.970  -0.583  0.00  0.00     0.053 C 
ATOM      2  C   UNL d   1      25.911 -16.374  -1.303  0.00  0.00     0.097 C 
ENDROOT
BRANCH   2   3
ATOM      3  C   UNL d   1      25.899 -14.835  -1.103  0.00  0.00     0.165 C 
BRANCH   3   4
ATOM      4  N   UNL d   1      26.285 -14.064  -2.269  0.00  0.00    -0.358 N 
ATOM      5  C   UNL d   1      25.415 -13.952  -3.321  0.00  0.00     0.221 C 
ATOM      6  O   UNL d   1      24.294 -14.450  -3.333  0.00  0.00    -0.273 OA
ATOM      7  H   UNL d   1      27.237 -13.722  -2.343  0.00  0.00     0.162 HD
BRANCH   5   8
ATOM      8  C   UNL d   1      25.916 -13.157  -4.469  0.00  0.00     0.078 A 
ATOM      9  C   UNL d   1      25.904 -11.644  -4.382  0.00  0.00     0.015 A 
ATOM     10  C   UNL d   1      27.210 -12.382  -4.339  0.00  0.00     0.015 A 
ENDBRANCH   5   8
ENDBRANCH   3   4
ENDBRANCH   2   3
BRANCH   2  11
ATOM     11  C   UNL d   1      24.598 -17.029  -0.863  0.00  0.00    -0.023 A 
ATOM     12  C   UNL d   1      24.551 -18.380  -0.472  0.00  0.00     0.010 A 
ATOM     13  C   UNL d   1      23.338 -19.011  -0.196  0.00  0.00     0.001 A 
ATOM     14  C   UNL d   1      22.153 -18.286  -0.225  0.00  0.00     0.000 A 
ATOM     15  C   UNL d   1      22.175 -16.941  -0.570  0.00  0.00     0.001 A 
ATOM     16  C   UNL d   1      23.381 -16.325  -0.896  0.00  0.00     0.010 A 
ENDBRANCH   2  11
BRANCH   2  17
ATOM     17  O   UNL d   1      26.076 -16.634  -2.708  0.00  0.00    -0.384 OA
ATOM     18  H   UNL d   1      25.243 -16.380  -3.144  0.00  0.00     0.211 HD
ENDBRANCH   2  17
TORSDOF 5
ENDMDL
