MODEL 1
REMARK VINA RESULT:    -7.801      0.000      0.000
REMARK INTER + INTRA:         -10.237
REMARK INTER:                  -9.591
REMARK INTRA:                  -0.646
REMARK CONF_INDEPENDENT:        1.790
REMARK UNBOUND:                -0.646
REMARK  6 active torsions:
REMARK  status: ('A' for Active; 'I' for Inactive)
REMARK    1  A    between atoms: C_4  and  C_5 
REMARK    2  A    between atoms: C_5  and  N_6 
REMARK       I    between atoms: N_6  and  C_7 
REMARK    3  A    between atoms: C_7  and  C_9 
REMARK    4  A    between atoms: C_11  and  N_12 
REMARK    5  A    between atoms: C_16  and  S_17 
REMARK    6  A    between atoms: C_25  and  O_26 
ROOT
ATOM      1  N   UNL d   1      28.712 -15.075   0.930  0.00  0.00    -0.353 N 
ATOM      2  C   UNL d   1      27.904 -14.370   0.077  0.00  0.00     0.252 C 
ATOM      3  O   UNL d   1      27.913 -13.148  -0.027  0.00  0.00    -0.268 OA
ATOM      4  H   UNL d   1      28.683 -16.075   0.863  0.00  0.00     0.163 HD
ENDROOT
BRANCH   2   5
ATOM      5  C   UNL d   1      26.958 -15.177  -0.756  0.00  0.00     0.035 A 
ATOM      6  C   UNL d   1      26.965 -15.004  -2.147  0.00  0.00     0.053 A 
ATOM      7  C   UNL d   1      25.947 -15.585  -2.923  0.00  0.00     0.105 A 
ATOM      8  C   UNL d   1      24.982 -16.422  -2.343  0.00  0.00     0.059 A 
ATOM      9  C   UNL d   1      24.987 -16.590  -0.958  0.00  0.00     0.062 A 
ATOM     10  C   UNL d   1      25.969 -15.979  -0.161  0.00  0.00     0.040 A 
BRANCH   7  11
ATOM     11  N   UNL d   1      25.796 -15.197  -4.335  0.00  0.00    -0.116 N 
ATOM     12  O   UNL d   1      26.657 -15.579  -5.136  0.00  0.00    -0.532 OA
ATOM     13  O   UNL d   1      24.838 -14.465  -4.624  0.00  0.00    -0.532 OA
ENDBRANCH   7  11
BRANCH   9  14
ATOM     14  S   UNL d   1      23.705 -17.568  -0.193  0.00  0.00     0.172 S 
ATOM     15  C   UNL d   1      23.283 -18.832  -1.369  0.00  0.00     0.167 C 
ATOM     16  O   UNL d   1      24.318 -18.199   0.962  0.00  0.00    -0.223 OA
ATOM     17  O   UNL d   1      22.552 -16.704  -0.047  0.00  0.00    -0.223 OA
ENDBRANCH   9  14
ENDBRANCH   2   5
BRANCH   1  18
ATOM     18  C   UNL d   1      29.693 -14.447   1.814  0.00  0.00     0.161 C 
BRANCH  18  19
ATOM     19  C   UNL d   1      29.098 -13.683   2.987  0.00  0.00    -0.039 A 
ATOM     20  C   UNL d   1      28.417 -12.471   2.821  0.00  0.00     0.018 A 
ATOM     21  C   UNL d   1      27.848 -11.780   3.895  0.00  0.00    -0.028 A 
ATOM     22  C   UNL d   1      27.103 -10.506   3.628  0.00  0.00     0.051 C 
ATOM     23  C   UNL d   1      27.982 -12.291   5.183  0.00  0.00     0.077 A 
ATOM     24  C   UNL d   1      28.672 -13.489   5.410  0.00  0.00    -0.028 A 
ATOM     25  C   UNL d   1      29.214 -14.182   4.300  0.00  0.00     0.018 A 
ATOM     26  C   UNL d   1      28.858 -14.034   6.797  0.00  0.00     0.051 C 
BRANCH  23  27
ATOM     27  O   UNL d   1      27.413 -11.558   6.189  0.00  0.00    -0.360 OA
ATOM     28  H   UNL d   1      27.102 -10.707   5.850  0.00  0.00     0.217 HD
ENDBRANCH  23  27
ENDBRANCH  18  19
ENDBRANCH   1  18
TORSDOF 6
ENDMDL
MODEL 2
REMARK VINA RESULT:    -7.766      0.136      1.696
REMARK INTER + INTRA:         -10.231
REMARK INTER:                  -9.556
REMARK INTRA:                  -0.675
REMARK CONF_INDEPENDENT:        1.790
REMARK UNBOUND:                -0.675
REMARK  6 active torsions:
REMARK  status: ('A' for Active; 'I' for Inactive)
REMARK    1  A    between atoms: C_4  and  C_5 
REMARK    2  A    between atoms: C_5  and  N_6 
REMARK       I    between atoms: N_6  and  C_7 
REMARK    3  A    between atoms: C_7  and  C_9 
REMARK    4  A    between atoms: C_11  and  N_12 
REMARK    5  A    between atoms: C_16  and  S_17 
REMARK    6  A    between atoms: C_25  and  O_26 
ROOT
ATOM      1  N   UNL d   1      28.707 -15.169   0.985  0.00  0.00    -0.353 N 
ATOM      2  C   UNL d   1      27.905 -14.469   0.122  0.00  0.00     0.252 C 
ATOM      3  O   UNL d   1      27.908 -13.247   0.018  0.00  0.00    -0.268 OA
ATOM      4  H   UNL d   1      28.685 -16.170   0.917  0.00  0.00     0.163 HD
ENDROOT
BRANCH   2   5
ATOM      5  C   UNL d   1      26.974 -15.282  -0.722  0.00  0.00     0.035 A 
ATOM      6  C   UNL d   1      27.024 -15.137  -2.115  0.00  0.00     0.053 A 
ATOM      7  C   UNL d   1      26.021 -15.721  -2.909  0.00  0.00     0.105 A 
ATOM      8  C   UNL d   1      25.030 -16.535  -2.341  0.00  0.00     0.059 A 
ATOM      9  C   UNL d   1      24.992 -16.675  -0.953  0.00  0.00     0.062 A 
ATOM     10  C   UNL d   1      25.958 -16.059  -0.139  0.00  0.00     0.040 A 
BRANCH   7  11
ATOM     11  N   UNL d   1      25.916 -15.361  -4.332  0.00  0.00    -0.116 N 
ATOM     12  O   UNL d   1      26.896 -15.571  -5.057  0.00  0.00    -0.532 OA
ATOM     13  O   UNL d   1      24.865 -14.818  -4.704  0.00  0.00    -0.532 OA
ENDBRANCH   7  11
BRANCH   9  14
ATOM     14  S   UNL d   1      23.676 -17.621  -0.206  0.00  0.00     0.172 S 
ATOM     15  C   UNL d   1      23.272 -18.904  -1.369  0.00  0.00     0.167 C 
ATOM     16  O   UNL d   1      24.247 -18.237   0.978  0.00  0.00    -0.223 OA
ATOM     17  O   UNL d   1      22.531 -16.741  -0.111  0.00  0.00    -0.223 OA
ENDBRANCH   9  14
ENDBRANCH   2   5
BRANCH   1  18
ATOM     18  C   UNL d   1      29.675 -14.536   1.880  0.00  0.00     0.161 C 
BRANCH  18  19
ATOM     19  C   UNL d   1      29.061 -13.749   3.029  0.00  0.00    -0.039 A 
ATOM     20  C   UNL d   1      29.109 -14.199   4.354  0.00  0.00     0.018 A 
ATOM     21  C   UNL d   1      28.568 -13.465   5.412  0.00  0.00    -0.028 A 
ATOM     22  C   UNL d   1      28.694 -14.000   6.808  0.00  0.00     0.051 C 
ATOM     23  C   UNL d   1      27.930 -12.256   5.150  0.00  0.00     0.077 A 
ATOM     24  C   UNL d   1      27.834 -11.768   3.840  0.00  0.00    -0.028 A 
ATOM     25  C   UNL d   1      28.416 -12.518   2.790  0.00  0.00     0.018 A 
ATOM     26  C   UNL d   1      27.117 -10.484   3.535  0.00  0.00     0.051 C 
BRANCH  23  27
ATOM     27  O   UNL d   1      27.411 -11.596   6.230  0.00  0.00    -0.360 OA
ATOM     28  H   UNL d   1      26.771 -10.930   5.941  0.00  0.00     0.217 HD
ENDBRANCH  23  27
ENDBRANCH  18  19
ENDBRANCH   1  18
TORSDOF 6
ENDMDL
MODEL 3
REMARK VINA RESULT:    -7.688      1.296      1.709
REMARK INTER + INTRA:         -10.075
REMARK INTER:                  -9.477
REMARK INTRA:                  -0.598
REMARK CONF_INDEPENDENT:        1.790
REMARK UNBOUND:                -0.598
REMARK  6 active torsions:
REMARK  status: ('A' for Active; 'I' for Inactive)
REMARK    1  A    between atoms: C_4  and  C_5 
REMARK    2  A    between atoms: C_5  and  N_6 
REMARK       I    between atoms: N_6  and  C_7 
REMARK    3  A    between atoms: C_7  and  C_9 
REMARK    4  A    between atoms: C_11  and  N_12 
REMARK    5  A    between atoms: C_16  and  S_17 
REMARK    6  A    between atoms: C_25  and  O_26 
ROOT
ATOM      1  N   UNL d   1      27.613 -14.669   1.380  0.00  0.00    -0.353 N 
ATOM      2  C   UNL d   1      28.052 -15.289   0.239  0.00  0.00     0.252 C 
ATOM      3  O   UNL d   1      29.233 -15.406  -0.069  0.00  0.00    -0.268 OA
ATOM      4  H   UNL d   1      26.629 -14.715   1.573  0.00  0.00     0.163 HD
ENDROOT
BRANCH   2   5
ATOM      5  C   UNL d   1      26.993 -15.835  -0.666  0.00  0.00     0.035 A 
ATOM      6  C   UNL d   1      27.016 -15.484  -2.023  0.00  0.00     0.053 A 
ATOM      7  C   UNL d   1      25.918 -15.805  -2.840  0.00  0.00     0.105 A 
ATOM      8  C   UNL d   1      24.845 -16.564  -2.348  0.00  0.00     0.059 A 
ATOM      9  C   UNL d   1      24.835 -16.911  -0.996  0.00  0.00     0.062 A 
ATOM     10  C   UNL d   1      25.902 -16.557  -0.153  0.00  0.00     0.040 A 
BRANCH   7  11
ATOM     11  N   UNL d   1      25.815 -15.218  -4.186  0.00  0.00    -0.116 N 
ATOM     12  O   UNL d   1      24.873 -14.450  -4.413  0.00  0.00    -0.532 OA
ATOM     13  O   UNL d   1      26.654 -15.575  -5.027  0.00  0.00    -0.532 OA
ENDBRANCH   7  11
BRANCH   9  14
ATOM     14  S   UNL d   1      23.429 -17.786  -0.330  0.00  0.00     0.172 S 
ATOM     15  C   UNL d   1      22.907 -18.917  -1.600  0.00  0.00     0.167 C 
ATOM     16  O   UNL d   1      23.932 -18.555   0.793  0.00  0.00    -0.223 OA
ATOM     17  O   UNL d   1      22.375 -16.809  -0.155  0.00  0.00    -0.223 OA
ENDBRANCH   9  14
ENDBRANCH   2   5
BRANCH   1  18
ATOM     18  C   UNL d   1      28.509 -14.080   2.374  0.00  0.00     0.161 C 
BRANCH  18  19
ATOM     19  C   UNL d   1      28.067 -12.726   2.909  0.00  0.00    -0.039 A 
ATOM     20  C   UNL d   1      27.268 -11.852   2.162  0.00  0.00     0.018 A 
ATOM     21  C   UNL d   1      26.841 -10.619   2.661  0.00  0.00    -0.028 A 
ATOM     22  C   UNL d   1      25.956  -9.756   1.810  0.00  0.00     0.051 C 
ATOM     23  C   UNL d   1      27.241 -10.221   3.934  0.00  0.00     0.077 A 
ATOM     24  C   UNL d   1      28.058 -11.047   4.717  0.00  0.00    -0.028 A 
ATOM     25  C   UNL d   1      28.453 -12.304   4.197  0.00  0.00     0.018 A 
ATOM     26  C   UNL d   1      28.529 -10.618   6.077  0.00  0.00     0.051 C 
BRANCH  23  27
ATOM     27  O   UNL d   1      26.798  -8.998   4.355  0.00  0.00    -0.360 OA
ATOM     28  H   UNL d   1      26.959  -8.890   5.303  0.00  0.00     0.217 HD
ENDBRANCH  23  27
ENDBRANCH  18  19
ENDBRANCH   1  18
TORSDOF 6
ENDMDL
MODEL 4
REMARK VINA RESULT:    -7.480      0.942      1.942
REMARK INTER + INTRA:          -9.938
REMARK INTER:                  -9.270
REMARK INTRA:                  -0.669
REMARK CONF_INDEPENDENT:        1.790
REMARK UNBOUND:                -0.669
REMARK  6 active torsions:
REMARK  status: ('A' for Active; 'I' for Inactive)
REMARK    1  A    between atoms: C_4  and  C_5 
REMARK    2  A    between atoms: C_5  and  N_6 
REMARK       I    between atoms: N_6  and  C_7 
REMARK    3  A    between atoms: C_7  and  C_9 
REMARK    4  A    between atoms: C_11  and  N_12 
REMARK    5  A    between atoms: C_16  and  S_17 
REMARK    6  A    between atoms: C_25  and  O_26 
ROOT
ATOM      1  N   UNL d   1      28.037 -15.062   1.378  0.00  0.00    -0.353 N 
ATOM      2  C   UNL d   1      27.866 -14.594   0.101  0.00  0.00     0.252 C 
ATOM      3  O   UNL d   1      28.436 -13.607  -0.352  0.00  0.00    -0.268 OA
ATOM      4  H   UNL d   1      27.591 -15.931   1.608  0.00  0.00     0.163 HD
ENDROOT
BRANCH   2   5
ATOM      5  C   UNL d   1      26.909 -15.357  -0.760  0.00  0.00     0.035 A 
ATOM      6  C   UNL d   1      26.930 -15.146  -2.146  0.00  0.00     0.053 A 
ATOM      7  C   UNL d   1      25.904 -15.682  -2.944  0.00  0.00     0.105 A 
ATOM      8  C   UNL d   1      24.917 -16.513  -2.394  0.00  0.00     0.059 A 
ATOM      9  C   UNL d   1      24.907 -16.719  -1.014  0.00  0.00     0.062 A 
ATOM     10  C   UNL d   1      25.898 -16.151  -0.193  0.00  0.00     0.040 A 
BRANCH   7  11
ATOM     11  N   UNL d   1      25.772 -15.253  -4.346  0.00  0.00    -0.116 N 
ATOM     12  O   UNL d   1      26.666 -15.575  -5.137  0.00  0.00    -0.532 OA
ATOM     13  O   UNL d   1      24.795 -14.546  -4.634  0.00  0.00    -0.532 OA
ENDBRANCH   7  11
BRANCH   9  14
ATOM     14  S   UNL d   1      23.598 -17.687  -0.284  0.00  0.00     0.172 S 
ATOM     15  C   UNL d   1      23.182 -18.933  -1.483  0.00  0.00     0.167 C 
ATOM     16  O   UNL d   1      24.181 -18.340   0.874  0.00  0.00    -0.223 OA
ATOM     17  O   UNL d   1      22.455 -16.810  -0.151  0.00  0.00    -0.223 OA
ENDBRANCH   9  14
ENDBRANCH   2   5
BRANCH   1  18
ATOM     18  C   UNL d   1      28.934 -14.440   2.351  0.00  0.00     0.161 C 
BRANCH  18  19
ATOM     19  C   UNL d   1      28.406 -13.157   2.975  0.00  0.00    -0.039 A 
ATOM     20  C   UNL d   1      28.617 -12.839   4.322  0.00  0.00     0.018 A 
ATOM     21  C   UNL d   1      28.155 -11.649   4.891  0.00  0.00    -0.028 A 
ATOM     22  C   UNL d   1      28.455 -11.367   6.333  0.00  0.00     0.051 C 
ATOM     23  C   UNL d   1      27.433 -10.753   4.107  0.00  0.00     0.077 A 
ATOM     24  C   UNL d   1      27.173 -11.031   2.759  0.00  0.00    -0.028 A 
ATOM     25  C   UNL d   1      27.678 -12.231   2.202  0.00  0.00     0.018 A 
ATOM     26  C   UNL d   1      26.364 -10.093   1.909  0.00  0.00     0.051 C 
BRANCH  23  27
ATOM     27  O   UNL d   1      26.999  -9.615   4.730  0.00  0.00    -0.360 OA
ATOM     28  H   UNL d   1      26.126  -9.759   5.123  0.00  0.00     0.217 HD
ENDBRANCH  23  27
ENDBRANCH  18  19
ENDBRANCH   1  18
TORSDOF 6
ENDMDL
MODEL 5
REMARK VINA RESULT:    -7.336      3.279      8.291
REMARK INTER + INTRA:          -9.735
REMARK INTER:                  -9.125
REMARK INTRA:                  -0.609
REMARK CONF_INDEPENDENT:        1.790
REMARK UNBOUND:                -0.609
REMARK  6 active torsions:
REMARK  status: ('A' for Active; 'I' for Inactive)
REMARK    1  A    between atoms: C_4  and  C_5 
REMARK    2  A    between atoms: C_5  and  N_6 
REMARK       I    between atoms: N_6  and  C_7 
REMARK    3  A    between atoms: C_7  and  C_9 
REMARK    4  A    between atoms: C_11  and  N_12 
REMARK    5  A    between atoms: C_16  and  S_17 
REMARK    6  A    between atoms: C_25  and  O_26 
ROOT
ATOM      1  N   UNL d   1      28.521 -12.418   0.088  0.00  0.00    -0.353 N 
ATOM      2  C   UNL d   1      27.454 -12.738   0.888  0.00  0.00     0.252 C 
ATOM      3  O   UNL d   1      26.680 -13.661   0.664  0.00  0.00    -0.268 OA
ATOM      4  H   UNL d   1      29.140 -11.701   0.420  0.00  0.00     0.163 HD
ENDROOT
BRANCH   2   5
ATOM      5  C   UNL d   1      27.251 -11.877   2.095  0.00  0.00     0.035 A 
ATOM      6  C   UNL d   1      26.660 -10.616   1.934  0.00  0.00     0.053 A 
ATOM      7  C   UNL d   1      26.658  -9.709   3.008  0.00  0.00     0.105 A 
ATOM      8  C   UNL d   1      27.143 -10.081   4.271  0.00  0.00     0.059 A 
ATOM      9  C   UNL d   1      27.726 -11.340   4.421  0.00  0.00     0.062 A 
ATOM     10  C   UNL d   1      27.780 -12.242   3.344  0.00  0.00     0.040 A 
BRANCH   7  11
ATOM     11  N   UNL d   1      26.282  -8.305   2.776  0.00  0.00    -0.116 N 
ATOM     12  O   UNL d   1      26.704  -7.453   3.567  0.00  0.00    -0.532 OA
ATOM     13  O   UNL d   1      25.518  -8.071   1.828  0.00  0.00    -0.532 OA
ENDBRANCH   7  11
BRANCH   9  14
ATOM     14  S   UNL d   1      28.441 -11.790   5.993  0.00  0.00     0.172 S 
ATOM     15  C   UNL d   1      29.810 -12.861   5.621  0.00  0.00     0.167 C 
ATOM     16  O   UNL d   1      28.960 -10.560   6.563  0.00  0.00    -0.223 OA
ATOM     17  O   UNL d   1      27.448 -12.577   6.693  0.00  0.00    -0.223 OA
ENDBRANCH   9  14
ENDBRANCH   2   5
BRANCH   1  18
ATOM     18  C   UNL d   1      28.866 -13.153  -1.127  0.00  0.00     0.161 C 
BRANCH  18  19
ATOM     19  C   UNL d   1      27.686 -13.491  -2.026  0.00  0.00    -0.039 A 
ATOM     20  C   UNL d   1      26.976 -14.692  -1.907  0.00  0.00     0.018 A 
ATOM     21  C   UNL d   1      25.876 -14.993  -2.715  0.00  0.00    -0.028 A 
ATOM     22  C   UNL d   1      25.146 -16.286  -2.500  0.00  0.00     0.051 C 
ATOM     23  C   UNL d   1      25.480 -14.087  -3.695  0.00  0.00     0.077 A 
ATOM     24  C   UNL d   1      26.168 -12.879  -3.872  0.00  0.00    -0.028 A 
ATOM     25  C   UNL d   1      27.261 -12.588  -3.021  0.00  0.00     0.018 A 
ATOM     26  C   UNL d   1      25.777 -11.907  -4.949  0.00  0.00     0.051 C 
BRANCH  23  27
ATOM     27  O   UNL d   1      24.405 -14.449  -4.459  0.00  0.00    -0.360 OA
ATOM     28  H   UNL d   1      24.135 -13.716  -5.030  0.00  0.00     0.217 HD
ENDBRANCH  23  27
ENDBRANCH  18  19
ENDBRANCH   1  18
TORSDOF 6
ENDMDL
MODEL 6
REMARK VINA RESULT:    -7.321      3.207      8.123
REMARK INTER + INTRA:          -9.716
REMARK INTER:                  -9.111
REMARK INTRA:                  -0.605
REMARK CONF_INDEPENDENT:        1.790
REMARK UNBOUND:                -0.605
REMARK  6 active torsions:
REMARK  status: ('A' for Active; 'I' for Inactive)
REMARK    1  A    between atoms: C_4  and  C_5 
REMARK    2  A    between atoms: C_5  and  N_6 
REMARK       I    between atoms: N_6  and  C_7 
REMARK    3  A    between atoms: C_7  and  C_9 
REMARK    4  A    between atoms: C_11  and  N_12 
REMARK    5  A    between atoms: C_16  and  S_17 
REMARK    6  A    between atoms: C_25  and  O_26 
ROOT
ATOM      1  N   UNL d   1      28.521 -12.798   0.344  0.00  0.00    -0.353 N 
ATOM      2  C   UNL d   1      27.433 -13.016   1.148  0.00  0.00     0.252 C 
ATOM      3  O   UNL d   1      26.603 -13.898   0.959  0.00  0.00    -0.268 OA
ATOM      4  H   UNL d   1      29.182 -12.107   0.649  0.00  0.00     0.163 HD
ENDROOT
BRANCH   2   5
ATOM      5  C   UNL d   1      27.278 -12.092   2.316  0.00  0.00     0.035 A 
ATOM      6  C   UNL d   1      26.656 -10.852   2.118  0.00  0.00     0.053 A 
ATOM      7  C   UNL d   1      26.694  -9.887   3.140  0.00  0.00     0.105 A 
ATOM      8  C   UNL d   1      27.253 -10.180   4.393  0.00  0.00     0.059 A 
ATOM      9  C   UNL d   1      27.866 -11.419   4.580  0.00  0.00     0.062 A 
ATOM     10  C   UNL d   1      27.880 -12.379   3.553  0.00  0.00     0.040 A 
BRANCH   7  11
ATOM     11  N   UNL d   1      26.279  -8.504   2.853  0.00  0.00    -0.116 N 
ATOM     12  O   UNL d   1      26.738  -7.602   3.563  0.00  0.00    -0.532 OA
ATOM     13  O   UNL d   1      25.451  -8.337   1.945  0.00  0.00    -0.532 OA
ENDBRANCH   7  11
BRANCH   9  14
ATOM     14  S   UNL d   1      28.673 -11.770   6.132  0.00  0.00     0.172 S 
ATOM     15  C   UNL d   1      30.103 -12.749   5.733  0.00  0.00     0.167 C 
ATOM     16  O   UNL d   1      29.122 -10.489   6.649  0.00  0.00    -0.223 OA
ATOM     17  O   UNL d   1      27.769 -12.606   6.893  0.00  0.00    -0.223 OA
ENDBRANCH   9  14
ENDBRANCH   2   5
BRANCH   1  18
ATOM     18  C   UNL d   1      28.825 -13.605  -0.837  0.00  0.00     0.161 C 
BRANCH  18  19
ATOM     19  C   UNL d   1      27.647 -13.837  -1.772  0.00  0.00    -0.039 A 
ATOM     20  C   UNL d   1      27.295 -12.921  -2.771  0.00  0.00     0.018 A 
ATOM     21  C   UNL d   1      26.229 -13.145  -3.647  0.00  0.00    -0.028 A 
ATOM     22  C   UNL d   1      25.940 -12.131  -4.714  0.00  0.00     0.051 C 
ATOM     23  C   UNL d   1      25.465 -14.301  -3.513  0.00  0.00     0.077 A 
ATOM     24  C   UNL d   1      25.760 -15.241  -2.517  0.00  0.00    -0.028 A 
ATOM     25  C   UNL d   1      26.863 -15.003  -1.662  0.00  0.00     0.018 A 
ATOM     26  C   UNL d   1      24.924 -16.475  -2.335  0.00  0.00     0.051 C 
BRANCH  23  27
ATOM     27  O   UNL d   1      24.430 -14.450  -4.394  0.00  0.00    -0.360 OA
ATOM     28  H   UNL d   1      24.405 -13.706  -5.012  0.00  0.00     0.217 HD
ENDBRANCH  23  27
ENDBRANCH  18  19
ENDBRANCH   1  18
TORSDOF 6
ENDMDL
MODEL 7
REMARK VINA RESULT:    -7.182      1.440      2.227
REMARK INTER + INTRA:          -9.623
REMARK INTER:                  -8.972
REMARK INTRA:                  -0.652
REMARK CONF_INDEPENDENT:        1.790
REMARK UNBOUND:                -0.652
REMARK  6 active torsions:
REMARK  status: ('A' for Active; 'I' for Inactive)
REMARK    1  A    between atoms: C_4  and  C_5 
REMARK    2  A    between atoms: C_5  and  N_6 
REMARK       I    between atoms: N_6  and  C_7 
REMARK    3  A    between atoms: C_7  and  C_9 
REMARK    4  A    between atoms: C_11  and  N_12 
REMARK    5  A    between atoms: C_16  and  S_17 
REMARK    6  A    between atoms: C_25  and  O_26 
ROOT
ATOM      1  N   UNL d   1      26.448 -13.339   1.145  0.00  0.00    -0.353 N 
ATOM      2  C   UNL d   1      27.166 -13.645   0.018  0.00  0.00     0.252 C 
ATOM      3  O   UNL d   1      28.228 -13.114  -0.286  0.00  0.00    -0.268 OA
ATOM      4  H   UNL d   1      25.641 -13.903   1.338  0.00  0.00     0.163 HD
ENDROOT
BRANCH   2   5
ATOM      5  C   UNL d   1      26.579 -14.692  -0.876  0.00  0.00     0.035 A 
ATOM      6  C   UNL d   1      26.751 -14.572  -2.262  0.00  0.00     0.053 A 
ATOM      7  C   UNL d   1      26.031 -15.415  -3.125  0.00  0.00     0.105 A 
ATOM      8  C   UNL d   1      25.222 -16.446  -2.624  0.00  0.00     0.059 A 
ATOM      9  C   UNL d   1      25.060 -16.559  -1.242  0.00  0.00     0.062 A 
ATOM     10  C   UNL d   1      25.736 -15.693  -0.364  0.00  0.00     0.040 A 
BRANCH   7  11
ATOM     11  N   UNL d   1      26.002 -15.128  -4.569  0.00  0.00    -0.116 N 
ATOM     12  O   UNL d   1      25.031 -14.507  -5.017  0.00  0.00    -0.532 OA
ATOM     13  O   UNL d   1      26.933 -15.575  -5.255  0.00  0.00    -0.532 OA
ENDBRANCH   7  11
BRANCH   9  14
ATOM     14  S   UNL d   1      23.954 -17.797  -0.590  0.00  0.00     0.172 S 
ATOM     15  C   UNL d   1      22.460 -16.939  -0.150  0.00  0.00     0.167 C 
ATOM     16  O   UNL d   1      23.661 -18.694  -1.694  0.00  0.00    -0.223 OA
ATOM     17  O   UNL d   1      24.552 -18.289   0.632  0.00  0.00    -0.223 OA
ENDBRANCH   9  14
ENDBRANCH   2   5
BRANCH   1  18
ATOM     18  C   UNL d   1      26.874 -12.343   2.127  0.00  0.00     0.161 C 
BRANCH  18  19
ATOM     19  C   UNL d   1      27.826 -12.864   3.192  0.00  0.00    -0.039 A 
ATOM     20  C   UNL d   1      27.606 -12.653   4.559  0.00  0.00     0.018 A 
ATOM     21  C   UNL d   1      28.467 -13.153   5.540  0.00  0.00    -0.028 A 
ATOM     22  C   UNL d   1      28.140 -12.914   6.985  0.00  0.00     0.051 C 
ATOM     23  C   UNL d   1      29.601 -13.863   5.157  0.00  0.00     0.077 A 
ATOM     24  C   UNL d   1      29.881 -14.086   3.802  0.00  0.00    -0.028 A 
ATOM     25  C   UNL d   1      28.978 -13.592   2.831  0.00  0.00     0.018 A 
ATOM     26  C   UNL d   1      31.120 -14.818   3.371  0.00  0.00     0.051 C 
BRANCH  23  27
ATOM     27  O   UNL d   1      30.406 -14.313   6.167  0.00  0.00    -0.360 OA
ATOM     28  H   UNL d   1      31.140 -14.831   5.807  0.00  0.00     0.217 HD
ENDBRANCH  23  27
ENDBRANCH  18  19
ENDBRANCH   1  18
TORSDOF 6
ENDMDL
MODEL 8
REMARK VINA RESULT:    -7.090      3.366      7.880
REMARK INTER + INTRA:          -9.544
REMARK INTER:                  -8.879
REMARK INTRA:                  -0.665
REMARK CONF_INDEPENDENT:        1.790
REMARK UNBOUND:                -0.665
REMARK  6 active torsions:
REMARK  status: ('A' for Active; 'I' for Inactive)
REMARK    1  A    between atoms: C_4  and  C_5 
REMARK    2  A    between atoms: C_5  and  N_6 
REMARK       I    between atoms: N_6  and  C_7 
REMARK    3  A    between atoms: C_7  and  C_9 
REMARK    4  A    between atoms: C_11  and  N_12 
REMARK    5  A    between atoms: C_16  and  S_17 
REMARK    6  A    between atoms: C_25  and  O_26 
ROOT
ATOM      1  N   UNL d   1      26.509 -13.256   0.140  0.00  0.00    -0.353 N 
ATOM      2  C   UNL d   1      27.105 -13.560   1.336  0.00  0.00     0.252 C 
ATOM      3  O   UNL d   1      27.661 -14.625   1.577  0.00  0.00    -0.268 OA
ATOM      4  H   UNL d   1      26.166 -12.320   0.026  0.00  0.00     0.163 HD
ENDROOT
BRANCH   2   5
ATOM      5  C   UNL d   1      27.043 -12.501   2.392  0.00  0.00     0.035 A 
ATOM      6  C   UNL d   1      26.399 -11.291   2.100  0.00  0.00     0.053 A 
ATOM      7  C   UNL d   1      26.518 -10.210   2.991  0.00  0.00     0.105 A 
ATOM      8  C   UNL d   1      27.180 -10.352   4.219  0.00  0.00     0.059 A 
ATOM      9  C   UNL d   1      27.815 -11.563   4.502  0.00  0.00     0.062 A 
ATOM     10  C   UNL d   1      27.747 -12.640   3.600  0.00  0.00     0.040 A 
BRANCH   7  11
ATOM     11  N   UNL d   1      26.072  -8.870   2.575  0.00  0.00    -0.116 N 
ATOM     12  O   UNL d   1      25.214  -8.794   1.688  0.00  0.00    -0.532 OA
ATOM     13  O   UNL d   1      26.627  -7.897   3.105  0.00  0.00    -0.532 OA
ENDBRANCH   7  11
BRANCH   9  14
ATOM     14  S   UNL d   1      28.750 -11.727   6.012  0.00  0.00     0.172 S 
ATOM     15  C   UNL d   1      30.461 -11.760   5.529  0.00  0.00     0.167 C 
ATOM     16  O   UNL d   1      28.508 -10.511   6.767  0.00  0.00    -0.223 OA
ATOM     17  O   UNL d   1      28.427 -13.025   6.564  0.00  0.00    -0.223 OA
ENDBRANCH   9  14
ENDBRANCH   2   5
BRANCH   1  18
ATOM     18  C   UNL d   1      26.476 -14.172  -1.000  0.00  0.00     0.161 C 
BRANCH  18  19
ATOM     19  C   UNL d   1      25.875 -15.538  -0.704  0.00  0.00    -0.039 A 
ATOM     20  C   UNL d   1      24.514 -15.811  -0.884  0.00  0.00     0.018 A 
ATOM     21  C   UNL d   1      23.965 -17.071  -0.636  0.00  0.00    -0.028 A 
ATOM     22  C   UNL d   1      22.503 -17.292  -0.890  0.00  0.00     0.051 C 
ATOM     23  C   UNL d   1      24.785 -18.093  -0.166  0.00  0.00     0.077 A 
ATOM     24  C   UNL d   1      26.151 -17.870   0.053  0.00  0.00    -0.028 A 
ATOM     25  C   UNL d   1      26.686 -16.591  -0.233  0.00  0.00     0.018 A 
ATOM     26  C   UNL d   1      27.043 -18.950   0.595  0.00  0.00     0.051 C 
BRANCH  23  27
ATOM     27  O   UNL d   1      24.181 -19.298   0.068  0.00  0.00    -0.360 OA
ATOM     28  H   UNL d   1      23.485 -19.201   0.733  0.00  0.00     0.217 HD
ENDBRANCH  23  27
ENDBRANCH  18  19
ENDBRANCH   1  18
TORSDOF 6
ENDMDL
MODEL 9
REMARK VINA RESULT:    -7.059      1.732      3.350
REMARK INTER + INTRA:          -9.510
REMARK INTER:                  -8.849
REMARK INTRA:                  -0.661
REMARK CONF_INDEPENDENT:        1.790
REMARK UNBOUND:                -0.661
REMARK  6 active torsions:
REMARK  status: ('A' for Active; 'I' for Inactive)
REMARK    1  A    between atoms: C_4  and  C_5 
REMARK    2  A    between atoms: C_5  and  N_6 
REMARK       I    between atoms: N_6  and  C_7 
REMARK    3  A    between atoms: C_7  and  C_9 
REMARK    4  A    between atoms: C_11  and  N_12 
REMARK    5  A    between atoms: C_16  and  S_17 
REMARK    6  A    between atoms: C_25  and  O_26 
ROOT
ATOM      1  N   UNL d   1      28.704 -14.903   1.338  0.00  0.00    -0.353 N 
ATOM      2  C   UNL d   1      28.105 -14.098   0.404  0.00  0.00     0.252 C 
ATOM      3  O   UNL d   1      28.357 -12.907   0.260  0.00  0.00    -0.268 OA
ATOM      4  H   UNL d   1      28.486 -15.882   1.302  0.00  0.00     0.163 HD
ENDROOT
BRANCH   2   5
ATOM      5  C   UNL d   1      27.077 -14.748  -0.468  0.00  0.00     0.035 A 
ATOM      6  C   UNL d   1      26.388 -15.868   0.019  0.00  0.00     0.053 A 
ATOM      7  C   UNL d   1      25.583 -16.620  -0.855  0.00  0.00     0.105 A 
ATOM      8  C   UNL d   1      25.373 -16.211  -2.180  0.00  0.00     0.059 A 
ATOM      9  C   UNL d   1      26.061 -15.092  -2.653  0.00  0.00     0.062 A 
ATOM     10  C   UNL d   1      26.908 -14.356  -1.807  0.00  0.00     0.040 A 
BRANCH   7  11
ATOM     11  N   UNL d   1      25.071 -17.932  -0.426  0.00  0.00    -0.116 N 
ATOM     12  O   UNL d   1      23.963 -18.286  -0.844  0.00  0.00    -0.532 OA
ATOM     13  O   UNL d   1      25.764 -18.578   0.374  0.00  0.00    -0.532 OA
ENDBRANCH   7  11
BRANCH   9  14
ATOM     14  S   UNL d   1      25.886 -14.619  -4.364  0.00  0.00     0.172 S 
ATOM     15  C   UNL d   1      26.650 -13.020  -4.512  0.00  0.00     0.167 C 
ATOM     16  O   UNL d   1      26.668 -15.575  -5.127  0.00  0.00    -0.223 OA
ATOM     17  O   UNL d   1      24.469 -14.450  -4.608  0.00  0.00    -0.223 OA
ENDBRANCH   9  14
ENDBRANCH   2   5
BRANCH   1  18
ATOM     18  C   UNL d   1      29.728 -14.433   2.269  0.00  0.00     0.161 C 
BRANCH  18  19
ATOM     19  C   UNL d   1      29.197 -13.651   3.461  0.00  0.00    -0.039 A 
ATOM     20  C   UNL d   1      28.599 -12.393   3.323  0.00  0.00     0.018 A 
ATOM     21  C   UNL d   1      28.087 -11.684   4.413  0.00  0.00    -0.028 A 
ATOM     22  C   UNL d   1      27.429 -10.358   4.176  0.00  0.00     0.051 C 
ATOM     23  C   UNL d   1      28.196 -12.226   5.691  0.00  0.00     0.077 A 
ATOM     24  C   UNL d   1      28.804 -13.473   5.890  0.00  0.00    -0.028 A 
ATOM     25  C   UNL d   1      29.288 -14.181   4.764  0.00  0.00     0.018 A 
ATOM     26  C   UNL d   1      28.962 -14.054   7.266  0.00  0.00     0.051 C 
BRANCH  23  27
ATOM     27  O   UNL d   1      27.686 -11.475   6.715  0.00  0.00    -0.360 OA
ATOM     28  H   UNL d   1      26.978 -10.901   6.390  0.00  0.00     0.217 HD
ENDBRANCH  23  27
ENDBRANCH  18  19
ENDBRANCH   1  18
TORSDOF 6
ENDMDL
