MODEL 1
REMARK VINA RESULT:    -8.328      0.000      0.000
REMARK INTER + INTRA:         -12.246
REMARK INTER:                 -10.416
REMARK INTRA:                  -1.830
REMARK CONF_INDEPENDENT:        2.088
REMARK UNBOUND:                -1.830
REMARK  7 active torsions:
REMARK  status: ('A' for Active; 'I' for Inactive)
REMARK    1  A    between atoms: C_2  and  O_3 
REMARK    2  A    between atoms: C_2  and  C_13 
REMARK    3  A    between atoms: O_3  and  C_4 
REMARK       I    between atoms: C_13  and  N_15 
REMARK    4  A    between atoms: N_15  and  N_16 
REMARK    5  A    between atoms: N_16  and  C_17 
REMARK    6  A    between atoms: C_17  and  N_19 
REMARK    7  A    between atoms: N_19  and  C_20 
ROOT
ATOM      1  C   UNL d   1      27.972 -14.097   4.343  0.00  0.00     0.265 C 
ATOM      2  O   UNL d   1      27.769 -15.222   4.828  0.00  0.00    -0.269 OA
ATOM      3  N   UNL d   1      28.132 -13.949   2.983  0.00  0.00    -0.266 N 
ATOM      4  H   UNL d   1      28.304 -13.045   2.545  0.00  0.00     0.190 HD
ENDROOT
BRANCH   3   5
ATOM      5  N   UNL d   1      28.129 -15.091   2.098  0.00  0.00    -0.273 N 
ATOM      6  H   UNL d   1      28.530 -15.946   2.485  0.00  0.00     0.189 HD
BRANCH   5   7
ATOM      7  C   UNL d   1      27.489 -14.992   0.857  0.00  0.00     0.191 C 
ATOM      8  S   UNL d   1      26.913 -13.492   0.324  0.00  0.00    -0.039 SA
BRANCH   7   9
ATOM      9  N   UNL d   1      27.374 -16.212   0.159  0.00  0.00    -0.331 N 
ATOM     10  H   UNL d   1      28.191 -16.812   0.148  0.00  0.00     0.168 HD
BRANCH   9  11
ATOM     11  C   UNL d   1      26.117 -16.850  -0.151  0.00  0.00     0.056 A 
ATOM     12  C   UNL d   1      25.686 -17.966   0.595  0.00  0.00     0.032 A 
ATOM     13  C   UNL d   1      24.407 -18.526   0.380  0.00  0.00     0.021 A 
ATOM     14  C   UNL d   1      23.564 -17.990  -0.591  0.00  0.00     0.012 A 
ATOM     15 BR   UNL d   1      21.840 -18.707  -0.894  0.00  0.00    -0.051 Br
ATOM     16  C   UNL d   1      24.001 -16.939  -1.385  0.00  0.00     0.045 A 
ATOM     17  C   UNL d   1      25.281 -16.405  -1.197  0.00  0.00     0.062 A 
ATOM     18 CL   UNL d   1      25.831 -15.322  -2.437  0.00  0.00    -0.082 Cl
ENDBRANCH   9  11
ENDBRANCH   7   9
ENDBRANCH   5   7
ENDBRANCH   3   5
BRANCH   1  19
ATOM     19  C   UNL d   1      27.993 -12.779   5.209  0.00  0.00     0.218 C 
ATOM     20  C   UNL d   1      28.639 -13.175   6.546  0.00  0.00     0.050 C 
BRANCH  19  21
ATOM     21  O   UNL d   1      28.651 -11.690   4.507  0.00  0.00    -0.337 OA
BRANCH  21  22
ATOM     22  C   UNL d   1      27.874 -10.807   3.781  0.00  0.00     0.072 C 
ATOM     23  C   UNL d   1      26.904 -11.238   2.858  0.00  0.00     0.040 C 
ATOM     24  C   UNL d   1      26.154 -10.355   2.081  0.00  0.00     0.042 C 
ATOM     25  C   UNL d   1      26.278  -9.023   2.355  0.00  0.00     0.105 A 
ATOM     26  C   UNL d   1      27.124  -8.571   3.341  0.00  0.00     0.107 A 
ATOM     27  O   UNL d   1      25.565  -8.037   1.756  0.00  0.00    -0.323 OA
ATOM     28  C   UNL d   1      27.938  -9.435   4.070  0.00  0.00     0.076 C 
ATOM     29  O   UNL d   1      27.030  -7.217   3.486  0.00  0.00    -0.323 OA
ATOM     30  C   UNL d   1      26.107  -6.883   2.421  0.00  0.00     0.352 A 
ENDBRANCH  21  22
ENDBRANCH  19  21
ENDBRANCH   1  19
TORSDOF 7
ENDMDL
MODEL 2
REMARK VINA RESULT:    -8.202      5.895      8.801
REMARK INTER + INTRA:         -12.088
REMARK INTER:                 -10.290
REMARK INTRA:                  -1.798
REMARK CONF_INDEPENDENT:        2.088
REMARK UNBOUND:                -1.798
REMARK  7 active torsions:
REMARK  status: ('A' for Active; 'I' for Inactive)
REMARK    1  A    between atoms: C_2  and  O_3 
REMARK    2  A    between atoms: C_2  and  C_13 
REMARK    3  A    between atoms: O_3  and  C_4 
REMARK       I    between atoms: C_13  and  N_15 
REMARK    4  A    between atoms: N_15  and  N_16 
REMARK    5  A    between atoms: N_16  and  C_17 
REMARK    6  A    between atoms: C_17  and  N_19 
REMARK    7  A    between atoms: N_19  and  C_20 
ROOT
ATOM      1  C   UNL d   1      26.625 -14.602  -1.624  0.00  0.00     0.265 C 
ATOM      2  O   UNL d   1      27.820 -14.390  -1.364  0.00  0.00    -0.269 OA
ATOM      3  N   UNL d   1      25.858 -13.619  -2.211  0.00  0.00    -0.266 N 
ATOM      4  H   UNL d   1      24.874 -13.750  -2.437  0.00  0.00     0.190 HD
ENDROOT
BRANCH   3   5
ATOM      5  N   UNL d   1      26.400 -12.307  -2.479  0.00  0.00    -0.273 N 
ATOM      6  H   UNL d   1      27.156 -12.010  -1.862  0.00  0.00     0.189 HD
BRANCH   5   7
ATOM      7  C   UNL d   1      25.955 -11.602  -3.604  0.00  0.00     0.191 C 
ATOM      8  S   UNL d   1      25.543  -9.965  -3.464  0.00  0.00    -0.039 SA
BRANCH   7   9
ATOM      9  N   UNL d   1      25.881 -12.370  -4.784  0.00  0.00    -0.331 N 
ATOM     10  H   UNL d   1      25.113 -12.166  -5.415  0.00  0.00     0.168 HD
BRANCH   9  11
ATOM     11  C   UNL d   1      26.997 -13.083  -5.356  0.00  0.00     0.056 A 
ATOM     12  C   UNL d   1      27.992 -12.385  -6.071  0.00  0.00     0.032 A 
ATOM     13  C   UNL d   1      29.148 -13.051  -6.534  0.00  0.00     0.021 A 
ATOM     14  C   UNL d   1      29.306 -14.416  -6.305  0.00  0.00     0.012 A 
ATOM     15 BR   UNL d   1      30.850 -15.335  -6.900  0.00  0.00    -0.051 Br
ATOM     16  C   UNL d   1      28.303 -15.133  -5.668  0.00  0.00     0.045 A 
ATOM     17  C   UNL d   1      27.142 -14.482  -5.240  0.00  0.00     0.062 A 
ATOM     18 CL   UNL d   1      25.839 -15.518  -4.748  0.00  0.00    -0.082 Cl
ENDBRANCH   9  11
ENDBRANCH   7   9
ENDBRANCH   5   7
ENDBRANCH   3   5
BRANCH   1  19
ATOM     19  C   UNL d   1      25.926 -15.995  -1.379  0.00  0.00     0.218 C 
ATOM     20  C   UNL d   1      26.921 -16.811  -0.539  0.00  0.00     0.050 C 
BRANCH  19  21
ATOM     21  O   UNL d   1      24.609 -15.835  -0.787  0.00  0.00    -0.337 OA
BRANCH  21  22
ATOM     22  C   UNL d   1      23.755 -16.922  -0.770  0.00  0.00     0.072 C 
ATOM     23  C   UNL d   1      24.199 -18.226  -0.485  0.00  0.00     0.040 C 
ATOM     24  C   UNL d   1      23.355 -19.337  -0.519  0.00  0.00     0.042 C 
ATOM     25  C   UNL d   1      22.021 -19.101  -0.691  0.00  0.00     0.105 A 
ATOM     26  C   UNL d   1      21.533 -17.825  -0.846  0.00  0.00     0.107 A 
ATOM     27  O   UNL d   1      21.055 -20.053  -0.668  0.00  0.00    -0.323 OA
ATOM     28  C   UNL d   1      22.372 -16.713  -0.894  0.00  0.00     0.076 C 
ATOM     29  O   UNL d   1      20.170 -17.825  -0.928  0.00  0.00    -0.323 OA
ATOM     30  C   UNL d   1      19.889 -19.246  -0.901  0.00  0.00     0.352 A 
ENDBRANCH  21  22
ENDBRANCH  19  21
ENDBRANCH   1  19
TORSDOF 7
ENDMDL
MODEL 3
REMARK VINA RESULT:    -8.175      6.304      8.821
REMARK INTER + INTRA:         -11.997
REMARK INTER:                 -10.263
REMARK INTRA:                  -1.734
REMARK CONF_INDEPENDENT:        2.088
REMARK UNBOUND:                -1.734
REMARK  7 active torsions:
REMARK  status: ('A' for Active; 'I' for Inactive)
REMARK    1  A    between atoms: C_2  and  O_3 
REMARK    2  A    between atoms: C_2  and  C_13 
REMARK    3  A    between atoms: O_3  and  C_4 
REMARK       I    between atoms: C_13  and  N_15 
REMARK    4  A    between atoms: N_15  and  N_16 
REMARK    5  A    between atoms: N_16  and  C_17 
REMARK    6  A    between atoms: C_17  and  N_19 
REMARK    7  A    between atoms: N_19  and  C_20 
ROOT
ATOM      1  C   UNL d   1      25.560 -14.435  -3.131  0.00  0.00     0.265 C 
ATOM      2  O   UNL d   1      24.863 -14.825  -4.082  0.00  0.00    -0.269 OA
ATOM      3  N   UNL d   1      25.876 -13.100  -3.006  0.00  0.00    -0.266 N 
ATOM      4  H   UNL d   1      26.447 -12.739  -2.244  0.00  0.00     0.190 HD
ENDROOT
BRANCH   3   5
ATOM      5  N   UNL d   1      25.464 -12.135  -4.000  0.00  0.00    -0.273 N 
ATOM      6  H   UNL d   1      24.489 -11.841  -3.946  0.00  0.00     0.189 HD
BRANCH   5   7
ATOM      7  C   UNL d   1      26.423 -11.592  -4.862  0.00  0.00     0.191 C 
ATOM      8  S   UNL d   1      25.933 -10.652  -6.183  0.00  0.00    -0.039 SA
BRANCH   7   9
ATOM      9  N   UNL d   1      27.756 -11.914  -4.533  0.00  0.00    -0.331 N 
ATOM     10  H   UNL d   1      28.182 -11.384  -3.780  0.00  0.00     0.168 HD
BRANCH   9  11
ATOM     11  C   UNL d   1      28.389 -13.168  -4.859  0.00  0.00     0.056 A 
ATOM     12  C   UNL d   1      27.823 -14.015  -5.834  0.00  0.00     0.032 A 
ATOM     13  C   UNL d   1      28.493 -15.188  -6.248  0.00  0.00     0.021 A 
ATOM     14  C   UNL d   1      29.717 -15.531  -5.676  0.00  0.00     0.012 A 
ATOM     15 BR   UNL d   1      30.646 -17.087  -6.218  0.00  0.00    -0.051 Br
ATOM     16  C   UNL d   1      30.253 -14.749  -4.663  0.00  0.00     0.045 A 
ATOM     17  C   UNL d   1      29.573 -13.606  -4.228  0.00  0.00     0.062 A 
ATOM     18 CL   UNL d   1      30.169 -12.892  -2.762  0.00  0.00    -0.082 Cl
ENDBRANCH   9  11
ENDBRANCH   7   9
ENDBRANCH   5   7
ENDBRANCH   3   5
BRANCH   1  19
ATOM     19  C   UNL d   1      26.063 -15.394  -1.985  0.00  0.00     0.218 C 
ATOM     20  C   UNL d   1      27.459 -14.877  -1.600  0.00  0.00     0.050 C 
BRANCH  19  21
ATOM     21  O   UNL d   1      25.111 -15.465  -0.890  0.00  0.00    -0.337 OA
BRANCH  21  22
ATOM     22  C   UNL d   1      24.266 -16.556  -0.817  0.00  0.00     0.072 C 
ATOM     23  C   UNL d   1      24.712 -17.830  -0.421  0.00  0.00     0.040 C 
ATOM     24  C   UNL d   1      23.879 -18.950  -0.397  0.00  0.00     0.042 C 
ATOM     25  C   UNL d   1      22.548 -18.742  -0.627  0.00  0.00     0.105 A 
ATOM     26  C   UNL d   1      22.055 -17.486  -0.892  0.00  0.00     0.107 A 
ATOM     27  O   UNL d   1      21.590 -19.700  -0.561  0.00  0.00    -0.323 OA
ATOM     28  C   UNL d   1      22.886 -16.372  -0.998  0.00  0.00     0.076 C 
ATOM     29  O   UNL d   1      20.696 -17.507  -1.016  0.00  0.00    -0.323 OA
ATOM     30  C   UNL d   1      20.425 -18.924  -0.890  0.00  0.00     0.352 A 
ENDBRANCH  21  22
ENDBRANCH  19  21
ENDBRANCH   1  19
TORSDOF 7
ENDMDL
MODEL 4
REMARK VINA RESULT:    -8.117      2.706      4.115
REMARK INTER + INTRA:         -12.419
REMARK INTER:                 -10.205
REMARK INTRA:                  -2.214
REMARK CONF_INDEPENDENT:        2.088
REMARK UNBOUND:                -2.214
REMARK  7 active torsions:
REMARK  status: ('A' for Active; 'I' for Inactive)
REMARK    1  A    between atoms: C_2  and  O_3 
REMARK    2  A    between atoms: C_2  and  C_13 
REMARK    3  A    between atoms: O_3  and  C_4 
REMARK       I    between atoms: C_13  and  N_15 
REMARK    4  A    between atoms: N_15  and  N_16 
REMARK    5  A    between atoms: N_16  and  C_17 
REMARK    6  A    between atoms: C_17  and  N_19 
REMARK    7  A    between atoms: N_19  and  C_20 
ROOT
ATOM      1  C   UNL d   1      28.318 -13.897   1.265  0.00  0.00     0.265 C 
ATOM      2  O   UNL d   1      28.598 -13.419   0.154  0.00  0.00    -0.269 OA
ATOM      3  N   UNL d   1      28.680 -15.190   1.574  0.00  0.00    -0.266 N 
ATOM      4  H   UNL d   1      28.467 -15.621   2.471  0.00  0.00     0.190 HD
ENDROOT
BRANCH   3   5
ATOM      5  N   UNL d   1      29.333 -16.038   0.603  0.00  0.00    -0.273 N 
ATOM      6  H   UNL d   1      30.142 -16.555   0.947  0.00  0.00     0.189 HD
BRANCH   5   7
ATOM      7  C   UNL d   1      28.762 -16.188  -0.666  0.00  0.00     0.191 C 
ATOM      8  S   UNL d   1      29.615 -16.999  -1.884  0.00  0.00    -0.039 SA
BRANCH   7   9
ATOM      9  N   UNL d   1      27.484 -15.608  -0.805  0.00  0.00    -0.331 N 
ATOM     10  H   UNL d   1      27.440 -14.699  -1.252  0.00  0.00     0.168 HD
BRANCH   9  11
ATOM     11  C   UNL d   1      26.249 -16.354  -0.768  0.00  0.00     0.056 A 
ATOM     12  C   UNL d   1      26.160 -17.539  -0.008  0.00  0.00     0.032 A 
ATOM     13  C   UNL d   1      24.927 -18.213   0.133  0.00  0.00     0.021 A 
ATOM     14  C   UNL d   1      23.786 -17.723  -0.500  0.00  0.00     0.012 A 
ATOM     15 BR   UNL d   1      22.117 -18.596  -0.320  0.00  0.00    -0.051 Br
ATOM     16  C   UNL d   1      23.872 -16.601  -1.312  0.00  0.00     0.045 A 
ATOM     17  C   UNL d   1      25.099 -15.952  -1.480  0.00  0.00     0.062 A 
ATOM     18 CL   UNL d   1      25.153 -14.767  -2.748  0.00  0.00    -0.082 Cl
ENDBRANCH   9  11
ENDBRANCH   7   9
ENDBRANCH   5   7
ENDBRANCH   3   5
BRANCH   1  19
ATOM     19  C   UNL d   1      27.612 -13.066   2.404  0.00  0.00     0.218 C 
ATOM     20  C   UNL d   1      26.459 -12.320   1.714  0.00  0.00     0.050 C 
BRANCH  19  21
ATOM     21  O   UNL d   1      27.215 -13.914   3.516  0.00  0.00    -0.337 OA
BRANCH  21  22
ATOM     22  C   UNL d   1      27.758 -13.666   4.762  0.00  0.00     0.072 C 
ATOM     23  C   UNL d   1      28.424 -14.657   5.507  0.00  0.00     0.040 C 
ATOM     24  C   UNL d   1      28.928 -14.430   6.788  0.00  0.00     0.042 C 
ATOM     25  C   UNL d   1      28.894 -13.146   7.253  0.00  0.00     0.105 A 
ATOM     26  C   UNL d   1      28.366 -12.125   6.499  0.00  0.00     0.107 A 
ATOM     27  O   UNL d   1      29.413 -12.735   8.437  0.00  0.00    -0.323 OA
ATOM     28  C   UNL d   1      27.787 -12.350   5.251  0.00  0.00     0.076 C 
ATOM     29  O   UNL d   1      28.505 -10.924   7.131  0.00  0.00    -0.323 OA
ATOM     30  C   UNL d   1      29.089 -11.336   8.391  0.00  0.00     0.352 A 
ENDBRANCH  21  22
ENDBRANCH  19  21
ENDBRANCH   1  19
TORSDOF 7
ENDMDL
MODEL 5
REMARK VINA RESULT:    -8.041      6.851     10.119
REMARK INTER + INTRA:         -12.199
REMARK INTER:                 -10.129
REMARK INTRA:                  -2.070
REMARK CONF_INDEPENDENT:        2.088
REMARK UNBOUND:                -2.070
REMARK  7 active torsions:
REMARK  status: ('A' for Active; 'I' for Inactive)
REMARK    1  A    between atoms: C_2  and  O_3 
REMARK    2  A    between atoms: C_2  and  C_13 
REMARK    3  A    between atoms: O_3  and  C_4 
REMARK       I    between atoms: C_13  and  N_15 
REMARK    4  A    between atoms: N_15  and  N_16 
REMARK    5  A    between atoms: N_16  and  C_17 
REMARK    6  A    between atoms: C_17  and  N_19 
REMARK    7  A    between atoms: N_19  and  C_20 
ROOT
ATOM      1  C   UNL d   1      27.818 -15.194  -5.431  0.00  0.00     0.265 C 
ATOM      2  O   UNL d   1      26.635 -15.194  -5.805  0.00  0.00    -0.269 OA
ATOM      3  N   UNL d   1      28.125 -15.409  -4.105  0.00  0.00    -0.266 N 
ATOM      4  H   UNL d   1      29.082 -15.413  -3.756  0.00  0.00     0.190 HD
ENDROOT
BRANCH   3   5
ATOM      5  N   UNL d   1      27.088 -15.577  -3.113  0.00  0.00    -0.273 N 
ATOM      6  H   UNL d   1      26.135 -15.431  -3.446  0.00  0.00     0.189 HD
BRANCH   5   7
ATOM      7  C   UNL d   1      27.433 -16.036  -1.836  0.00  0.00     0.191 C 
ATOM      8  S   UNL d   1      28.898 -16.853  -1.601  0.00  0.00    -0.039 SA
BRANCH   7   9
ATOM      9  N   UNL d   1      26.472 -15.768  -0.839  0.00  0.00    -0.331 N 
ATOM     10  H   UNL d   1      26.470 -14.835  -0.444  0.00  0.00     0.168 HD
BRANCH   9  11
ATOM     11  C   UNL d   1      25.264 -16.535  -0.656  0.00  0.00     0.056 A 
ATOM     12  C   UNL d   1      24.010 -15.966  -0.960  0.00  0.00     0.032 A 
ATOM     13  C   UNL d   1      22.832 -16.742  -0.898  0.00  0.00     0.021 A 
ATOM     14  C   UNL d   1      22.896 -18.079  -0.512  0.00  0.00     0.012 A 
ATOM     15 BR   UNL d   1      21.338 -19.150  -0.432  0.00  0.00    -0.051 Br
ATOM     16  C   UNL d   1      24.111 -18.635  -0.137  0.00  0.00     0.045 A 
ATOM     17  C   UNL d   1      25.274 -17.858  -0.165  0.00  0.00     0.062 A 
ATOM     18 CL   UNL d   1      26.660 -18.555   0.615  0.00  0.00    -0.082 Cl
ENDBRANCH   9  11
ENDBRANCH   7   9
ENDBRANCH   5   7
ENDBRANCH   3   5
BRANCH   1  19
ATOM     19  C   UNL d   1      29.033 -15.023  -6.422  0.00  0.00     0.218 C 
ATOM     20  C   UNL d   1      29.085 -13.524  -6.755  0.00  0.00     0.050 C 
BRANCH  19  21
ATOM     21  O   UNL d   1      30.259 -15.571  -5.864  0.00  0.00    -0.337 OA
BRANCH  21  22
ATOM     22  C   UNL d   1      30.480 -16.931  -5.965  0.00  0.00     0.072 C 
ATOM     23  C   UNL d   1      30.185 -17.824  -4.919  0.00  0.00     0.040 C 
ATOM     24  C   UNL d   1      30.456 -19.192  -4.992  0.00  0.00     0.042 C 
ATOM     25  C   UNL d   1      30.884 -19.679  -6.194  0.00  0.00     0.105 A 
ATOM     26  C   UNL d   1      31.062 -18.853  -7.280  0.00  0.00     0.107 A 
ATOM     27  O   UNL d   1      31.114 -20.988  -6.464  0.00  0.00    -0.323 OA
ATOM     28  C   UNL d   1      30.872 -17.475  -7.199  0.00  0.00     0.076 C 
ATOM     29  O   UNL d   1      31.422 -19.567  -8.386  0.00  0.00    -0.323 OA
ATOM     30  C   UNL d   1      31.535 -20.901  -7.835  0.00  0.00     0.352 A 
ENDBRANCH  21  22
ENDBRANCH  19  21
ENDBRANCH   1  19
TORSDOF 7
ENDMDL
MODEL 6
REMARK VINA RESULT:    -8.023      3.102      4.415
REMARK INTER + INTRA:         -12.477
REMARK INTER:                 -10.111
REMARK INTRA:                  -2.366
REMARK CONF_INDEPENDENT:        2.088
REMARK UNBOUND:                -2.366
REMARK  7 active torsions:
REMARK  status: ('A' for Active; 'I' for Inactive)
REMARK    1  A    between atoms: C_2  and  O_3 
REMARK    2  A    between atoms: C_2  and  C_13 
REMARK    3  A    between atoms: O_3  and  C_4 
REMARK       I    between atoms: C_13  and  N_15 
REMARK    4  A    between atoms: N_15  and  N_16 
REMARK    5  A    between atoms: N_16  and  C_17 
REMARK    6  A    between atoms: C_17  and  N_19 
REMARK    7  A    between atoms: N_19  and  C_20 
ROOT
ATOM      1  C   UNL d   1      27.951 -14.457   0.110  0.00  0.00     0.265 C 
ATOM      2  O   UNL d   1      28.576 -14.926  -0.854  0.00  0.00    -0.269 OA
ATOM      3  N   UNL d   1      26.761 -13.792  -0.092  0.00  0.00    -0.266 N 
ATOM      4  H   UNL d   1      26.219 -13.389   0.670  0.00  0.00     0.190 HD
ENDROOT
BRANCH   3   5
ATOM      5  N   UNL d   1      26.244 -13.568  -1.423  0.00  0.00    -0.273 N 
ATOM      6  H   UNL d   1      26.326 -12.613  -1.770  0.00  0.00     0.189 HD
BRANCH   5   7
ATOM      7  C   UNL d   1      25.794 -14.661  -2.173  0.00  0.00     0.191 C 
ATOM      8  S   UNL d   1      25.175 -14.417  -3.731  0.00  0.00    -0.039 SA
BRANCH   7   9
ATOM      9  N   UNL d   1      25.895 -15.904  -1.515  0.00  0.00    -0.331 N 
ATOM     10  H   UNL d   1      26.783 -16.119  -1.075  0.00  0.00     0.168 HD
BRANCH   9  11
ATOM     11  C   UNL d   1      24.762 -16.669  -1.054  0.00  0.00     0.056 A 
ATOM     12  C   UNL d   1      23.453 -16.175  -1.233  0.00  0.00     0.032 A 
ATOM     13  C   UNL d   1      22.332 -16.964  -0.895  0.00  0.00     0.021 A 
ATOM     14  C   UNL d   1      22.510 -18.237  -0.359  0.00  0.00     0.012 A 
ATOM     15 BR   UNL d   1      21.029 -19.325   0.091  0.00  0.00    -0.051 Br
ATOM     16  C   UNL d   1      23.790 -18.711  -0.108  0.00  0.00     0.045 A 
ATOM     17  C   UNL d   1      24.901 -17.917  -0.409  0.00  0.00     0.062 A 
ATOM     18 CL   UNL d   1      26.416 -18.473   0.231  0.00  0.00    -0.082 Cl
ENDBRANCH   9  11
ENDBRANCH   7   9
ENDBRANCH   5   7
ENDBRANCH   3   5
BRANCH   1  19
ATOM     19  C   UNL d   1      28.415 -14.640   1.606  0.00  0.00     0.218 C 
ATOM     20  C   UNL d   1      29.756 -13.896   1.714  0.00  0.00     0.050 C 
BRANCH  19  21
ATOM     21  O   UNL d   1      27.392 -14.202   2.541  0.00  0.00    -0.337 OA
BRANCH  21  22
ATOM     22  C   UNL d   1      27.749 -13.989   3.859  0.00  0.00     0.072 C 
ATOM     23  C   UNL d   1      28.230 -15.020   4.687  0.00  0.00     0.040 C 
ATOM     24  C   UNL d   1      28.542 -14.826   6.033  0.00  0.00     0.042 C 
ATOM     25  C   UNL d   1      28.514 -13.543   6.501  0.00  0.00     0.105 A 
ATOM     26  C   UNL d   1      28.172 -12.490   5.685  0.00  0.00     0.107 A 
ATOM     27  O   UNL d   1      28.867 -13.166   7.755  0.00  0.00    -0.323 OA
ATOM     28  C   UNL d   1      27.781 -12.678   4.361  0.00  0.00     0.076 C 
ATOM     29  O   UNL d   1      28.283 -11.300   6.345  0.00  0.00    -0.323 OA
ATOM     30  C   UNL d   1      28.639 -11.749   7.675  0.00  0.00     0.352 A 
ENDBRANCH  21  22
ENDBRANCH  19  21
ENDBRANCH   1  19
TORSDOF 7
ENDMDL
MODEL 7
REMARK VINA RESULT:    -7.933      6.673      9.826
REMARK INTER + INTRA:         -12.106
REMARK INTER:                 -10.021
REMARK INTRA:                  -2.085
REMARK CONF_INDEPENDENT:        2.088
REMARK UNBOUND:                -2.085
REMARK  7 active torsions:
REMARK  status: ('A' for Active; 'I' for Inactive)
REMARK    1  A    between atoms: C_2  and  O_3 
REMARK    2  A    between atoms: C_2  and  C_13 
REMARK    3  A    between atoms: O_3  and  C_4 
REMARK       I    between atoms: C_13  and  N_15 
REMARK    4  A    between atoms: N_15  and  N_16 
REMARK    5  A    between atoms: N_16  and  C_17 
REMARK    6  A    between atoms: C_17  and  N_19 
REMARK    7  A    between atoms: N_19  and  C_20 
ROOT
ATOM      1  C   UNL d   1      27.743 -15.200  -5.344  0.00  0.00     0.265 C 
ATOM      2  O   UNL d   1      26.539 -15.276  -5.638  0.00  0.00    -0.269 OA
ATOM      3  N   UNL d   1      28.162 -15.485  -4.063  0.00  0.00    -0.266 N 
ATOM      4  H   UNL d   1      29.138 -15.432  -3.779  0.00  0.00     0.190 HD
ENDROOT
BRANCH   3   5
ATOM      5  N   UNL d   1      27.217 -15.815  -3.021  0.00  0.00    -0.273 N 
ATOM      6  H   UNL d   1      26.243 -15.878  -3.317  0.00  0.00     0.189 HD
BRANCH   5   7
ATOM      7  C   UNL d   1      27.693 -16.140  -1.745  0.00  0.00     0.191 C 
ATOM      8  S   UNL d   1      29.254 -16.773  -1.564  0.00  0.00    -0.039 SA
BRANCH   7   9
ATOM      9  N   UNL d   1      26.774 -15.908  -0.701  0.00  0.00    -0.331 N 
ATOM     10  H   UNL d   1      26.858 -15.028  -0.205  0.00  0.00     0.168 HD
BRANCH   9  11
ATOM     11  C   UNL d   1      25.508 -16.588  -0.574  0.00  0.00     0.056 A 
ATOM     12  C   UNL d   1      24.325 -15.975  -1.035  0.00  0.00     0.032 A 
ATOM     13  C   UNL d   1      23.099 -16.676  -1.025  0.00  0.00     0.021 A 
ATOM     14  C   UNL d   1      23.043 -17.979  -0.535  0.00  0.00     0.012 A 
ATOM     15 BR   UNL d   1      21.419 -18.950  -0.521  0.00  0.00    -0.051 Br
ATOM     16  C   UNL d   1      24.182 -18.571  -0.009  0.00  0.00     0.045 A 
ATOM     17  C   UNL d   1      25.391 -17.866   0.014  0.00  0.00     0.062 A 
ATOM     18 CL   UNL d   1      26.655 -18.575   0.969  0.00  0.00    -0.082 Cl
ENDBRANCH   9  11
ENDBRANCH   7   9
ENDBRANCH   5   7
ENDBRANCH   3   5
BRANCH   1  19
ATOM     19  C   UNL d   1      28.864 -14.852  -6.397  0.00  0.00     0.218 C 
ATOM     20  C   UNL d   1      28.827 -13.323  -6.548  0.00  0.00     0.050 C 
BRANCH  19  21
ATOM     21  O   UNL d   1      30.153 -15.399  -6.005  0.00  0.00    -0.337 OA
BRANCH  21  22
ATOM     22  C   UNL d   1      30.364 -16.758  -6.146  0.00  0.00     0.072 C 
ATOM     23  C   UNL d   1      30.785 -17.335  -7.357  0.00  0.00     0.040 C 
ATOM     24  C   UNL d   1      30.949 -18.711  -7.524  0.00  0.00     0.042 C 
ATOM     25  C   UNL d   1      30.836 -19.491  -6.408  0.00  0.00     0.105 A 
ATOM     26  C   UNL d   1      30.551 -18.946  -5.179  0.00  0.00     0.107 A 
ATOM     27  O   UNL d   1      31.045 -20.831  -6.374  0.00  0.00    -0.323 OA
ATOM     28  C   UNL d   1      30.306 -17.584  -5.012  0.00  0.00     0.076 C 
ATOM     29  O   UNL d   1      30.558 -19.901  -4.203  0.00  0.00    -0.323 OA
ATOM     30  C   UNL d   1      30.786 -21.099  -4.985  0.00  0.00     0.352 A 
ENDBRANCH  21  22
ENDBRANCH  19  21
ENDBRANCH   1  19
TORSDOF 7
ENDMDL
MODEL 8
REMARK VINA RESULT:    -7.591      5.078      6.621
REMARK INTER + INTRA:         -12.533
REMARK INTER:                  -9.679
REMARK INTRA:                  -2.854
REMARK CONF_INDEPENDENT:        2.088
REMARK UNBOUND:                -2.854
REMARK  7 active torsions:
REMARK  status: ('A' for Active; 'I' for Inactive)
REMARK    1  A    between atoms: C_2  and  O_3 
REMARK    2  A    between atoms: C_2  and  C_13 
REMARK    3  A    between atoms: O_3  and  C_4 
REMARK       I    between atoms: C_13  and  N_15 
REMARK    4  A    between atoms: N_15  and  N_16 
REMARK    5  A    between atoms: N_16  and  C_17 
REMARK    6  A    between atoms: C_17  and  N_19 
REMARK    7  A    between atoms: N_19  and  C_20 
ROOT
ATOM      1  C   UNL d   1      29.819 -16.360  -1.857  0.00  0.00     0.265 C 
ATOM      2  O   UNL d   1      29.015 -17.297  -1.987  0.00  0.00    -0.269 OA
ATOM      3  N   UNL d   1      29.835 -15.617  -0.697  0.00  0.00    -0.266 N 
ATOM      4  H   UNL d   1      30.475 -14.838  -0.551  0.00  0.00     0.190 HD
ENDROOT
BRANCH   3   5
ATOM      5  N   UNL d   1      28.887 -15.863   0.364  0.00  0.00    -0.273 N 
ATOM      6  H   UNL d   1      29.261 -16.342   1.183  0.00  0.00     0.189 HD
BRANCH   5   7
ATOM      7  C   UNL d   1      27.593 -15.338   0.260  0.00  0.00     0.191 C 
ATOM      8  S   UNL d   1      27.054 -14.195   1.387  0.00  0.00    -0.039 SA
BRANCH   7   9
ATOM      9  N   UNL d   1      26.838 -15.853  -0.814  0.00  0.00    -0.331 N 
ATOM     10  H   UNL d   1      27.330 -16.008  -1.687  0.00  0.00     0.168 HD
BRANCH   9  11
ATOM     11  C   UNL d   1      25.589 -16.559  -0.658  0.00  0.00     0.056 A 
ATOM     12  C   UNL d   1      24.376 -15.945  -1.032  0.00  0.00     0.032 A 
ATOM     13  C   UNL d   1      23.162 -16.666  -0.995  0.00  0.00     0.021 A 
ATOM     14  C   UNL d   1      23.150 -17.992  -0.567  0.00  0.00     0.012 A 
ATOM     15 BR   UNL d   1      21.542 -18.989  -0.520  0.00  0.00    -0.051 Br
ATOM     16  C   UNL d   1      24.322 -18.589  -0.126  0.00  0.00     0.045 A 
ATOM     17  C   UNL d   1      25.519 -17.866  -0.128  0.00  0.00     0.062 A 
ATOM     18 CL   UNL d   1      26.839 -18.598   0.729  0.00  0.00    -0.082 Cl
ENDBRANCH   9  11
ENDBRANCH   7   9
ENDBRANCH   5   7
ENDBRANCH   3   5
BRANCH   1  19
ATOM     19  C   UNL d   1      30.902 -16.000  -2.946  0.00  0.00     0.218 C 
ATOM     20  C   UNL d   1      31.207 -17.318  -3.674  0.00  0.00     0.050 C 
BRANCH  19  21
ATOM     21  O   UNL d   1      30.457 -14.913  -3.803  0.00  0.00    -0.337 OA
BRANCH  21  22
ATOM     22  C   UNL d   1      29.105 -14.787  -4.062  0.00  0.00     0.072 C 
ATOM     23  C   UNL d   1      28.495 -15.367  -5.188  0.00  0.00     0.040 C 
ATOM     24  C   UNL d   1      27.141 -15.200  -5.486  0.00  0.00     0.042 C 
ATOM     25  C   UNL d   1      26.371 -14.570  -4.551  0.00  0.00     0.105 A 
ATOM     26  C   UNL d   1      26.910 -14.102  -3.376  0.00  0.00     0.107 A 
ATOM     27  O   UNL d   1      25.028 -14.397  -4.640  0.00  0.00    -0.323 OA
ATOM     28  C   UNL d   1      28.273 -14.191  -3.101  0.00  0.00     0.076 C 
ATOM     29  O   UNL d   1      25.944 -13.577  -2.566  0.00  0.00    -0.323 OA
ATOM     30  C   UNL d   1      24.775 -13.692  -3.413  0.00  0.00     0.352 A 
ENDBRANCH  21  22
ENDBRANCH  19  21
ENDBRANCH   1  19
TORSDOF 7
ENDMDL
MODEL 9
REMARK VINA RESULT:    -6.496      5.437      7.375
REMARK INTER + INTRA:         -11.910
REMARK INTER:                  -8.584
REMARK INTRA:                  -3.325
REMARK CONF_INDEPENDENT:        2.088
REMARK UNBOUND:                -3.325
REMARK  7 active torsions:
REMARK  status: ('A' for Active; 'I' for Inactive)
REMARK    1  A    between atoms: C_2  and  O_3 
REMARK    2  A    between atoms: C_2  and  C_13 
REMARK    3  A    between atoms: O_3  and  C_4 
REMARK       I    between atoms: C_13  and  N_15 
REMARK    4  A    between atoms: N_15  and  N_16 
REMARK    5  A    between atoms: N_16  and  C_17 
REMARK    6  A    between atoms: C_17  and  N_19 
REMARK    7  A    between atoms: N_19  and  C_20 
ROOT
ATOM      1  C   UNL d   1      25.548 -17.434  -0.592  0.00  0.00     0.265 C 
ATOM      2  O   UNL d   1      25.989 -18.563  -0.323  0.00  0.00    -0.269 OA
ATOM      3  N   UNL d   1      26.102 -16.317  -0.008  0.00  0.00    -0.266 N 
ATOM      4  H   UNL d   1      25.768 -15.373  -0.198  0.00  0.00     0.190 HD
ENDROOT
BRANCH   3   5
ATOM      5  N   UNL d   1      27.159 -16.428   0.971  0.00  0.00    -0.273 N 
ATOM      6  H   UNL d   1      27.209 -17.320   1.463  0.00  0.00     0.189 HD
BRANCH   5   7
ATOM      7  C   UNL d   1      28.091 -15.390   1.090  0.00  0.00     0.191 C 
ATOM      8  S   UNL d   1      27.608 -13.891   1.713  0.00  0.00    -0.039 SA
BRANCH   7   9
ATOM      9  N   UNL d   1      29.389 -15.715   0.644  0.00  0.00    -0.331 N 
ATOM     10  H   UNL d   1      30.072 -15.950   1.355  0.00  0.00     0.168 HD
BRANCH   9  11
ATOM     11  C   UNL d   1      29.697 -16.150  -0.697  0.00  0.00     0.056 A 
ATOM     12  C   UNL d   1      30.545 -17.257  -0.905  0.00  0.00     0.032 A 
ATOM     13  C   UNL d   1      30.760 -17.765  -2.206  0.00  0.00     0.021 A 
ATOM     14  C   UNL d   1      30.149 -17.160  -3.302  0.00  0.00     0.012 A 
ATOM     15 BR   UNL d   1      30.406 -17.825  -5.054  0.00  0.00    -0.051 Br
ATOM     16  C   UNL d   1      29.372 -16.025  -3.123  0.00  0.00     0.045 A 
ATOM     17  C   UNL d   1      29.185 -15.499  -1.840  0.00  0.00     0.062 A 
ATOM     18 CL   UNL d   1      28.467 -13.920  -1.774  0.00  0.00    -0.082 Cl
ENDBRANCH   9  11
ENDBRANCH   7   9
ENDBRANCH   5   7
ENDBRANCH   3   5
BRANCH   1  19
ATOM     19  C   UNL d   1      24.400 -17.190  -1.645  0.00  0.00     0.218 C 
ATOM     20  C   UNL d   1      23.200 -18.008  -1.143  0.00  0.00     0.050 C 
BRANCH  19  21
ATOM     21  O   UNL d   1      24.141 -15.772  -1.834  0.00  0.00    -0.337 OA
BRANCH  21  22
ATOM     22  C   UNL d   1      24.888 -15.082  -2.770  0.00  0.00     0.072 C 
ATOM     23  C   UNL d   1      24.944 -13.677  -2.805  0.00  0.00     0.040 C 
ATOM     24  C   UNL d   1      25.651 -12.972  -3.780  0.00  0.00     0.042 C 
ATOM     25  C   UNL d   1      26.435 -13.700  -4.630  0.00  0.00     0.105 A 
ATOM     26  C   UNL d   1      26.505 -15.070  -4.543  0.00  0.00     0.107 A 
ATOM     27  O   UNL d   1      27.248 -13.173  -5.579  0.00  0.00    -0.323 OA
ATOM     28  C   UNL d   1      25.743 -15.793  -3.627  0.00  0.00     0.076 C 
ATOM     29  O   UNL d   1      27.401 -15.575  -5.441  0.00  0.00    -0.323 OA
ATOM     30  C   UNL d   1      27.798 -14.374  -6.146  0.00  0.00     0.352 A 
ENDBRANCH  21  22
ENDBRANCH  19  21
ENDBRANCH   1  19
TORSDOF 7
ENDMDL
