MODEL 1
REMARK VINA RESULT:    -9.065      0.000      0.000
REMARK INTER + INTRA:         -16.540
REMARK INTER:                 -12.048
REMARK INTRA:                  -4.492
REMARK CONF_INDEPENDENT:        2.983
REMARK UNBOUND:                -4.492
REMARK  10 active torsions:
REMARK  status: ('A' for Active; 'I' for Inactive)
REMARK    1  A    between atoms: C_6  and  N_7 
REMARK       I    between atoms: N_7  and  C_8 
REMARK    2  A    between atoms: N_7  and  C_19 
REMARK    3  A    between atoms: C_8  and  C_10 
REMARK    4  A    between atoms: C_13  and  C_14 
REMARK       I    between atoms: C_14  and  N_15 
REMARK    5  A    between atoms: C_17  and  N_18 
REMARK    6  A    between atoms: C_19  and  C_20 
REMARK    7  A    between atoms: C_19  and  C_28 
REMARK       I    between atoms: C_20  and  N_22 
REMARK    8  A    between atoms: N_22  and  C_23 
REMARK    9  A    between atoms: C_23  and  C_24 
REMARK   10  A    between atoms: C_24  and  C_25 
ROOT
ATOM      1  N   UNL d   1      27.717 -15.425  -1.811  0.00  0.00    -0.295 N 
ATOM      2  C   UNL d   1      28.346 -14.047  -1.203  0.00  0.00     0.269 C 
ATOM      3  O   UNL d   1      29.102 -13.291  -1.732  0.00  0.00    -0.266 OA
ENDROOT
BRANCH   1   4
ATOM      4  C   UNL d   1      26.761 -16.409  -1.073  0.00  0.00     0.045 C 
ATOM      5  C   UNL d   1      27.177 -17.362  -0.126  0.00  0.00     0.030 C 
ATOM      6  C   UNL d   1      26.282 -18.333   0.424  0.00  0.00     0.003 C 
ATOM      7  C   UNL d   1      24.904 -18.199   0.310  0.00  0.00     0.007 C 
ATOM      8  C   UNL d   1      24.432 -17.210  -0.503  0.00  0.00    -0.054 C 
ATOM      9  C   UNL d   1      22.983 -16.764  -0.521  0.00  0.00     0.049 C 
ATOM     10  C   UNL d   1      25.369 -16.485  -1.276  0.00  0.00    -0.029 C 
ATOM     11  C   UNL d   1      24.714 -15.652  -2.257  0.00  0.00     0.051 C 
ENDBRANCH   1   4
BRANCH   1  12
ATOM     12  C   UNL d   1      28.006 -15.950  -3.362  0.00  0.00     0.218 C 
BRANCH  12  13
ATOM     13  C   UNL d   1      27.737 -14.902  -4.589  0.00  0.00     0.245 C 
ATOM     14  O   UNL d   1      27.029 -15.200  -5.557  0.00  0.00    -0.271 OA
ATOM     15  N   UNL d   1      28.169 -13.596  -4.492  0.00  0.00    -0.359 N 
ATOM     16  H   UNL d   1      28.907 -13.326  -3.891  0.00  0.00     0.162 HD
BRANCH  15  17
ATOM     17  C   UNL d   1      27.988 -12.598  -5.514  0.00  0.00     0.123 C 
BRANCH  17  18
ATOM     18  C   UNL d   1      26.780 -11.698  -5.198  0.00  0.00     0.023 C 
BRANCH  18  19
ATOM     19  C   UNL d   1      26.320 -11.892  -3.749  0.00  0.00    -0.021 C 
ATOM     20  C   UNL d   1      25.904 -10.553  -3.143  0.00  0.00     0.009 C 
ATOM     21  C   UNL d   1      25.155 -12.876  -3.664  0.00  0.00     0.009 C 
ENDBRANCH  18  19
ENDBRANCH  17  18
ENDBRANCH  15  17
ENDBRANCH  12  13
BRANCH  12  22
ATOM     22  C   UNL d   1      29.386 -16.586  -3.639  0.00  0.00    -0.026 C 
ATOM     23  C   UNL d   1      29.735 -16.715  -4.957  0.00  0.00     0.013 C 
ATOM     24  C   UNL d   1      31.006 -16.928  -5.456  0.00  0.00     0.043 C 
ATOM     25  C   UNL d   1      31.837 -17.607  -4.631  0.00  0.00     0.116 C 
ATOM     26  F   UNL d   1      32.954 -18.136  -5.144  0.00  0.00    -0.206 F 
ATOM     27  C   UNL d   1      31.411 -17.895  -3.332  0.00  0.00     0.043 C 
ATOM     28  C   UNL d   1      30.213 -17.332  -2.806  0.00  0.00     0.013 C 
ENDBRANCH  12  22
ENDBRANCH   1  12
BRANCH   2  29
ATOM     29  C   UNL d   1      28.137 -13.535   0.148  0.00  0.00     0.115 C 
ATOM     30  S   UNL d   1      27.035 -12.218   0.454  0.00  0.00     0.019 SA
ATOM     31  N   UNL d   1      26.930 -12.501   2.107  0.00  0.00    -0.203 NA
ATOM     32  C   UNL d   1      27.847 -13.434   2.434  0.00  0.00     0.155 C 
ATOM     33  C   UNL d   1      28.623 -13.992   1.328  0.00  0.00     0.065 C 
BRANCH  32  34
ATOM     34  C   UNL d   1      27.813 -14.120   3.735  0.00  0.00     0.270 C 
ATOM     35  N   UNL d   1      28.867 -14.912   4.073  0.00  0.00    -0.365 N 
ATOM     36  H   UNL d   1      29.636 -15.075   3.439  0.00  0.00     0.159 HD
ATOM     37  H   UNL d   1      28.760 -15.452   4.919  0.00  0.00     0.159 HD
ATOM     38  O   UNL d   1      26.915 -13.935   4.557  0.00  0.00    -0.266 OA
ENDBRANCH  32  34
BRANCH  33  39
ATOM     39  N   UNL d   1      29.352 -15.147   1.347  0.00  0.00    -0.299 NA
ATOM     40  H   UNL d   1      30.028 -15.204   2.114  0.00  0.00     0.124 HD
ATOM     41  H   UNL d   1      28.824 -16.023   1.356  0.00  0.00     0.124 HD
ENDBRANCH  33  39
ENDBRANCH   2  29
TORSDOF 10
ENDMDL
MODEL 2
REMARK VINA RESULT:    -8.959      0.941      1.882
REMARK INTER + INTRA:         -16.030
REMARK INTER:                 -11.942
REMARK INTRA:                  -4.088
REMARK CONF_INDEPENDENT:        2.983
REMARK UNBOUND:                -4.088
REMARK  10 active torsions:
REMARK  status: ('A' for Active; 'I' for Inactive)
REMARK    1  A    between atoms: C_6  and  N_7 
REMARK       I    between atoms: N_7  and  C_8 
REMARK    2  A    between atoms: N_7  and  C_19 
REMARK    3  A    between atoms: C_8  and  C_10 
REMARK    4  A    between atoms: C_13  and  C_14 
REMARK       I    between atoms: C_14  and  N_15 
REMARK    5  A    between atoms: C_17  and  N_18 
REMARK    6  A    between atoms: C_19  and  C_20 
REMARK    7  A    between atoms: C_19  and  C_28 
REMARK       I    between atoms: C_20  and  N_22 
REMARK    8  A    between atoms: N_22  and  C_23 
REMARK    9  A    between atoms: C_23  and  C_24 
REMARK   10  A    between atoms: C_24  and  C_25 
ROOT
ATOM      1  N   UNL d   1      27.440 -15.490  -1.556  0.00  0.00    -0.295 N 
ATOM      2  C   UNL d   1      28.125 -14.181  -0.863  0.00  0.00     0.269 C 
ATOM      3  O   UNL d   1      28.931 -13.440  -1.335  0.00  0.00    -0.266 OA
ENDROOT
BRANCH   1   4
ATOM      4  C   UNL d   1      26.417 -16.459  -0.891  0.00  0.00     0.045 C 
ATOM      5  C   UNL d   1      26.755 -17.448   0.051  0.00  0.00     0.030 C 
ATOM      6  C   UNL d   1      25.804 -18.401   0.531  0.00  0.00     0.003 C 
ATOM      7  C   UNL d   1      24.438 -18.220   0.354  0.00  0.00     0.007 C 
ATOM      8  C   UNL d   1      24.038 -17.196  -0.456  0.00  0.00    -0.054 C 
ATOM      9  C   UNL d   1      22.607 -16.703  -0.533  0.00  0.00     0.049 C 
ATOM     10  C   UNL d   1      25.035 -16.484  -1.163  0.00  0.00    -0.029 C 
ATOM     11  C   UNL d   1      24.457 -15.607  -2.154  0.00  0.00     0.051 C 
ENDBRANCH   1   4
BRANCH   1  12
ATOM     12  C   UNL d   1      27.736 -15.948  -3.126  0.00  0.00     0.218 C 
BRANCH  12  13
ATOM     13  C   UNL d   1      27.434 -14.862  -4.312  0.00  0.00     0.245 C 
ATOM     14  O   UNL d   1      26.976 -15.203  -5.407  0.00  0.00    -0.271 OA
ATOM     15  N   UNL d   1      27.538 -13.510  -4.056  0.00  0.00    -0.359 N 
ATOM     16  H   UNL d   1      28.090 -13.152  -3.317  0.00  0.00     0.162 HD
BRANCH  15  17
ATOM     17  C   UNL d   1      27.300 -12.475  -5.027  0.00  0.00     0.123 C 
BRANCH  17  18
ATOM     18  C   UNL d   1      28.534 -12.267  -5.925  0.00  0.00     0.023 C 
BRANCH  18  19
ATOM     19  C   UNL d   1      28.532 -13.260  -7.091  0.00  0.00    -0.021 C 
ATOM     20  C   UNL d   1      28.763 -12.527  -8.411  0.00  0.00     0.009 C 
ATOM     21  C   UNL d   1      29.605 -14.333  -6.907  0.00  0.00     0.009 C 
ENDBRANCH  18  19
ENDBRANCH  17  18
ENDBRANCH  15  17
ENDBRANCH  12  13
BRANCH  12  22
ATOM     22  C   UNL d   1      29.131 -16.536  -3.432  0.00  0.00    -0.026 C 
ATOM     23  C   UNL d   1      29.978 -16.662  -2.363  0.00  0.00     0.013 C 
ATOM     24  C   UNL d   1      31.115 -17.444  -2.300  0.00  0.00     0.043 C 
ATOM     25  C   UNL d   1      31.744 -17.634  -3.484  0.00  0.00     0.116 C 
ATOM     26  F   UNL d   1      33.002 -18.090  -3.473  0.00  0.00    -0.206 F 
ATOM     27  C   UNL d   1      31.135 -17.170  -4.653  0.00  0.00     0.043 C 
ATOM     28  C   UNL d   1      29.799 -16.678  -4.644  0.00  0.00     0.013 C 
ENDBRANCH  12  22
ENDBRANCH   1  12
BRANCH   2  29
ATOM     29  C   UNL d   1      27.912 -13.730   0.509  0.00  0.00     0.115 C 
ATOM     30  S   UNL d   1      26.650 -12.590   0.899  0.00  0.00     0.019 SA
ATOM     31  N   UNL d   1      26.668 -12.917   2.548  0.00  0.00    -0.203 NA
ATOM     32  C   UNL d   1      27.723 -13.715   2.808  0.00  0.00     0.155 C 
ATOM     33  C   UNL d   1      28.515 -14.135   1.653  0.00  0.00     0.065 C 
BRANCH  32  34
ATOM     34  C   UNL d   1      27.851 -14.423   4.091  0.00  0.00     0.270 C 
ATOM     35  N   UNL d   1      28.997 -15.117   4.332  0.00  0.00    -0.365 N 
ATOM     36  H   UNL d   1      29.728 -15.195   3.639  0.00  0.00     0.159 HD
ATOM     37  H   UNL d   1      29.005 -15.679   5.170  0.00  0.00     0.159 HD
ATOM     38  O   UNL d   1      27.004 -14.339   4.980  0.00  0.00    -0.266 OA
ENDBRANCH  32  34
BRANCH  33  39
ATOM     39  N   UNL d   1      29.401 -15.173   1.609  0.00  0.00    -0.299 NA
ATOM     40  H   UNL d   1      30.040 -15.215   2.409  0.00  0.00     0.124 HD
ATOM     41  H   UNL d   1      29.005 -16.111   1.502  0.00  0.00     0.124 HD
ENDBRANCH  33  39
ENDBRANCH   2  29
TORSDOF 10
ENDMDL
MODEL 3
REMARK VINA RESULT:    -8.933      3.162      7.579
REMARK INTER + INTRA:         -15.982
REMARK INTER:                 -11.916
REMARK INTRA:                  -4.066
REMARK CONF_INDEPENDENT:        2.983
REMARK UNBOUND:                -4.066
REMARK  10 active torsions:
REMARK  status: ('A' for Active; 'I' for Inactive)
REMARK    1  A    between atoms: C_6  and  N_7 
REMARK       I    between atoms: N_7  and  C_8 
REMARK    2  A    between atoms: N_7  and  C_19 
REMARK    3  A    between atoms: C_8  and  C_10 
REMARK    4  A    between atoms: C_13  and  C_14 
REMARK       I    between atoms: C_14  and  N_15 
REMARK    5  A    between atoms: C_17  and  N_18 
REMARK    6  A    between atoms: C_19  and  C_20 
REMARK    7  A    between atoms: C_19  and  C_28 
REMARK       I    between atoms: C_20  and  N_22 
REMARK    8  A    between atoms: N_22  and  C_23 
REMARK    9  A    between atoms: C_23  and  C_24 
REMARK   10  A    between atoms: C_24  and  C_25 
ROOT
ATOM      1  N   UNL d   1      27.927 -15.747  -2.507  0.00  0.00    -0.295 N 
ATOM      2  C   UNL d   1      29.085 -16.475  -3.399  0.00  0.00     0.269 C 
ATOM      3  O   UNL d   1      29.862 -17.309  -3.049  0.00  0.00    -0.266 OA
ENDROOT
BRANCH   1   4
ATOM      4  C   UNL d   1      26.954 -14.630  -2.991  0.00  0.00     0.045 C 
ATOM      5  C   UNL d   1      25.684 -14.867  -3.544  0.00  0.00     0.030 C 
ATOM      6  C   UNL d   1      24.884 -13.819  -4.098  0.00  0.00     0.003 C 
ATOM      7  C   UNL d   1      25.157 -12.482  -3.841  0.00  0.00     0.007 C 
ATOM      8  C   UNL d   1      26.324 -12.190  -3.194  0.00  0.00    -0.054 C 
ATOM      9  C   UNL d   1      26.634 -10.828  -2.606  0.00  0.00     0.049 C 
ATOM     10  C   UNL d   1      27.231 -13.249  -2.957  0.00  0.00    -0.029 C 
ATOM     11  C   UNL d   1      28.508 -12.758  -2.496  0.00  0.00     0.051 C 
ENDBRANCH   1   4
BRANCH   1  12
ATOM     12  C   UNL d   1      27.612 -16.146  -0.925  0.00  0.00     0.218 C 
BRANCH  12  13
ATOM     13  C   UNL d   1      27.770 -14.976   0.208  0.00  0.00     0.245 C 
ATOM     14  O   UNL d   1      27.129 -13.922   0.150  0.00  0.00    -0.271 OA
ATOM     15  N   UNL d   1      28.512 -15.211   1.348  0.00  0.00    -0.359 N 
ATOM     16  H   UNL d   1      29.217 -15.903   1.386  0.00  0.00     0.162 HD
BRANCH  15  17
ATOM     17  C   UNL d   1      28.717 -14.251   2.400  0.00  0.00     0.123 C 
BRANCH  17  18
ATOM     18  C   UNL d   1      27.378 -13.844   3.044  0.00  0.00     0.023 C 
BRANCH  18  19
ATOM     19  C   UNL d   1      27.411 -14.074   4.558  0.00  0.00    -0.021 C 
ATOM     20  C   UNL d   1      28.385 -15.199   4.902  0.00  0.00     0.009 C 
ATOM     21  C   UNL d   1      27.814 -12.802   5.303  0.00  0.00     0.009 C 
ENDBRANCH  18  19
ENDBRANCH  17  18
ENDBRANCH  15  17
ENDBRANCH  12  13
BRANCH  12  22
ATOM     22  C   UNL d   1      26.263 -16.840  -0.634  0.00  0.00    -0.026 C 
ATOM     23  C   UNL d   1      25.148 -16.052  -0.728  0.00  0.00     0.013 C 
ATOM     24  C   UNL d   1      23.841 -16.483  -0.848  0.00  0.00     0.043 C 
ATOM     25  C   UNL d   1      23.580 -17.682  -0.277  0.00  0.00     0.116 C 
ATOM     26  F   UNL d   1      22.304 -18.023  -0.060  0.00  0.00    -0.206 F 
ATOM     27  C   UNL d   1      24.643 -18.431   0.236  0.00  0.00     0.043 C 
ATOM     28  C   UNL d   1      25.995 -18.047   0.004  0.00  0.00     0.013 C 
ENDBRANCH  12  22
ENDBRANCH   1  12
BRANCH   2  29
ATOM     29  C   UNL d   1      29.414 -16.167  -4.787  0.00  0.00     0.115 C 
ATOM     30  S   UNL d   1      28.350 -15.200  -5.775  0.00  0.00     0.019 SA
ATOM     31  N   UNL d   1      29.507 -14.865  -6.946  0.00  0.00    -0.203 NA
ATOM     32  C   UNL d   1      30.595 -15.620  -6.691  0.00  0.00     0.155 C 
ATOM     33  C   UNL d   1      30.537 -16.451  -5.490  0.00  0.00     0.065 C 
BRANCH  32  34
ATOM     34  C   UNL d   1      31.886 -15.350  -7.344  0.00  0.00     0.270 C 
ATOM     35  N   UNL d   1      31.906 -14.492  -8.400  0.00  0.00    -0.365 N 
ATOM     36  H   UNL d   1      31.060 -14.082  -8.770  0.00  0.00     0.159 HD
ATOM     37  H   UNL d   1      32.785 -14.416  -8.891  0.00  0.00     0.159 HD
ATOM     38  O   UNL d   1      32.949 -15.800  -6.918  0.00  0.00    -0.266 OA
ENDBRANCH  32  34
BRANCH  33  39
ATOM     39  N   UNL d   1      31.596 -17.031  -4.851  0.00  0.00    -0.299 NA
ATOM     40  H   UNL d   1      32.477 -16.517  -4.944  0.00  0.00     0.124 HD
ATOM     41  H   UNL d   1      31.477 -17.231  -3.854  0.00  0.00     0.124 HD
ENDBRANCH  33  39
ENDBRANCH   2  29
TORSDOF 10
ENDMDL
MODEL 4
REMARK VINA RESULT:    -8.916      1.385      1.989
REMARK INTER + INTRA:         -16.210
REMARK INTER:                 -11.899
REMARK INTRA:                  -4.310
REMARK CONF_INDEPENDENT:        2.983
REMARK UNBOUND:                -4.310
REMARK  10 active torsions:
REMARK  status: ('A' for Active; 'I' for Inactive)
REMARK    1  A    between atoms: C_6  and  N_7 
REMARK       I    between atoms: N_7  and  C_8 
REMARK    2  A    between atoms: N_7  and  C_19 
REMARK    3  A    between atoms: C_8  and  C_10 
REMARK    4  A    between atoms: C_13  and  C_14 
REMARK       I    between atoms: C_14  and  N_15 
REMARK    5  A    between atoms: C_17  and  N_18 
REMARK    6  A    between atoms: C_19  and  C_20 
REMARK    7  A    between atoms: C_19  and  C_28 
REMARK       I    between atoms: C_20  and  N_22 
REMARK    8  A    between atoms: N_22  and  C_23 
REMARK    9  A    between atoms: C_23  and  C_24 
REMARK   10  A    between atoms: C_24  and  C_25 
ROOT
ATOM      1  N   UNL d   1      26.705 -14.863  -1.355  0.00  0.00    -0.295 N 
ATOM      2  C   UNL d   1      27.236 -13.504  -0.625  0.00  0.00     0.269 C 
ATOM      3  O   UNL d   1      27.639 -12.506  -1.139  0.00  0.00    -0.266 OA
ENDROOT
BRANCH   1   4
ATOM      4  C   UNL d   1      26.221 -16.164  -0.647  0.00  0.00     0.045 C 
ATOM      5  C   UNL d   1      27.023 -16.959   0.190  0.00  0.00     0.030 C 
ATOM      6  C   UNL d   1      26.576 -18.215   0.708  0.00  0.00     0.003 C 
ATOM      7  C   UNL d   1      25.235 -18.575   0.687  0.00  0.00     0.007 C 
ATOM      8  C   UNL d   1      24.378 -17.774  -0.012  0.00  0.00    -0.054 C 
ATOM      9  C   UNL d   1      22.869 -17.874   0.093  0.00  0.00     0.049 C 
ATOM     10  C   UNL d   1      24.932 -16.720  -0.774  0.00  0.00    -0.029 C 
ATOM     11  C   UNL d   1      23.946 -16.120  -1.643  0.00  0.00     0.051 C 
ENDBRANCH   1   4
BRANCH   1  12
ATOM     12  C   UNL d   1      26.580 -15.020  -3.005  0.00  0.00     0.218 C 
BRANCH  12  13
ATOM     13  C   UNL d   1      25.822 -13.831  -3.835  0.00  0.00     0.245 C 
ATOM     14  O   UNL d   1      24.867 -14.065  -4.583  0.00  0.00    -0.271 OA
ATOM     15  N   UNL d   1      26.133 -12.509  -3.591  0.00  0.00    -0.359 N 
ATOM     16  H   UNL d   1      26.998 -12.234  -3.198  0.00  0.00     0.162 HD
BRANCH  15  17
ATOM     17  C   UNL d   1      25.530 -11.390  -4.267  0.00  0.00     0.123 C 
BRANCH  17  18
ATOM     18  C   UNL d   1      26.051 -11.272  -5.711  0.00  0.00     0.023 C 
BRANCH  18  19
ATOM     19  C   UNL d   1      27.454 -11.873  -5.834  0.00  0.00    -0.021 C 
ATOM     20  C   UNL d   1      27.860 -11.972  -7.304  0.00  0.00     0.009 C 
ATOM     21  C   UNL d   1      28.484 -11.039  -5.074  0.00  0.00     0.009 C 
ENDBRANCH  18  19
ENDBRANCH  17  18
ENDBRANCH  15  17
ENDBRANCH  12  13
BRANCH  12  22
ATOM     22  C   UNL d   1      27.884 -15.314  -3.780  0.00  0.00    -0.026 C 
ATOM     23  C   UNL d   1      27.814 -15.197  -5.142  0.00  0.00     0.013 C 
ATOM     24  C   UNL d   1      28.878 -15.076  -6.016  0.00  0.00     0.043 C 
ATOM     25  C   UNL d   1      30.025 -15.668  -5.605  0.00  0.00     0.116 C 
ATOM     26  F   UNL d   1      30.991 -15.883  -6.505  0.00  0.00    -0.206 F 
ATOM     27  C   UNL d   1      30.083 -16.202  -4.315  0.00  0.00     0.043 C 
ATOM     28  C   UNL d   1      29.040 -15.973  -3.373  0.00  0.00     0.013 C 
ENDBRANCH  12  22
ENDBRANCH   1  12
BRANCH   2  29
ATOM     29  C   UNL d   1      27.373 -13.305   0.815  0.00  0.00     0.115 C 
ATOM     30  S   UNL d   1      26.279 -12.267   1.692  0.00  0.00     0.019 SA
ATOM     31  N   UNL d   1      26.683 -12.880   3.204  0.00  0.00    -0.203 NA
ATOM     32  C   UNL d   1      27.745 -13.698   3.057  0.00  0.00     0.155 C 
ATOM     33  C   UNL d   1      28.222 -13.898   1.690  0.00  0.00     0.065 C 
BRANCH  32  34
ATOM     34  C   UNL d   1      28.156 -14.620   4.127  0.00  0.00     0.270 C 
ATOM     35  N   UNL d   1      29.384 -15.200   4.041  0.00  0.00    -0.365 N 
ATOM     36  H   UNL d   1      29.989 -15.051   3.246  0.00  0.00     0.159 HD
ATOM     37  H   UNL d   1      29.587 -15.908   4.730  0.00  0.00     0.159 HD
ATOM     38  O   UNL d   1      27.471 -14.817   5.131  0.00  0.00    -0.266 OA
ENDBRANCH  32  34
BRANCH  33  39
ATOM     39  N   UNL d   1      29.038 -14.901   1.252  0.00  0.00    -0.299 NA
ATOM     40  H   UNL d   1      30.023 -14.785   1.508  0.00  0.00     0.124 HD
ATOM     41  H   UNL d   1      28.778 -15.855   1.518  0.00  0.00     0.124 HD
ENDBRANCH  33  39
ENDBRANCH   2  29
TORSDOF 10
ENDMDL
MODEL 5
REMARK VINA RESULT:    -8.242      1.761      2.498
REMARK INTER + INTRA:         -16.327
REMARK INTER:                 -11.225
REMARK INTRA:                  -5.102
REMARK CONF_INDEPENDENT:        2.983
REMARK UNBOUND:                -5.102
REMARK  10 active torsions:
REMARK  status: ('A' for Active; 'I' for Inactive)
REMARK    1  A    between atoms: C_6  and  N_7 
REMARK       I    between atoms: N_7  and  C_8 
REMARK    2  A    between atoms: N_7  and  C_19 
REMARK    3  A    between atoms: C_8  and  C_10 
REMARK    4  A    between atoms: C_13  and  C_14 
REMARK       I    between atoms: C_14  and  N_15 
REMARK    5  A    between atoms: C_17  and  N_18 
REMARK    6  A    between atoms: C_19  and  C_20 
REMARK    7  A    between atoms: C_19  and  C_28 
REMARK       I    between atoms: C_20  and  N_22 
REMARK    8  A    between atoms: N_22  and  C_23 
REMARK    9  A    between atoms: C_23  and  C_24 
REMARK   10  A    between atoms: C_24  and  C_25 
ROOT
ATOM      1  N   UNL d   1      26.892 -14.860  -1.795  0.00  0.00    -0.295 N 
ATOM      2  C   UNL d   1      27.684 -13.619  -1.090  0.00  0.00     0.269 C 
ATOM      3  O   UNL d   1      28.096 -12.626  -1.606  0.00  0.00    -0.266 OA
ENDROOT
BRANCH   1   4
ATOM      4  C   UNL d   1      26.403 -16.162  -1.094  0.00  0.00     0.045 C 
ATOM      5  C   UNL d   1      27.233 -17.035  -0.369  0.00  0.00     0.030 C 
ATOM      6  C   UNL d   1      26.766 -18.286   0.142  0.00  0.00     0.003 C 
ATOM      7  C   UNL d   1      25.410 -18.572   0.238  0.00  0.00     0.007 C 
ATOM      8  C   UNL d   1      24.538 -17.696  -0.343  0.00  0.00    -0.054 C 
ATOM      9  C   UNL d   1      23.043 -17.719  -0.096  0.00  0.00     0.049 C 
ATOM     10  C   UNL d   1      25.078 -16.641  -1.115  0.00  0.00    -0.029 C 
ATOM     11  C   UNL d   1      24.050 -15.952  -1.860  0.00  0.00     0.051 C 
ENDBRANCH   1   4
BRANCH   1  12
ATOM     12  C   UNL d   1      26.466 -14.871  -3.402  0.00  0.00     0.218 C 
BRANCH  12  13
ATOM     13  C   UNL d   1      25.686 -13.563  -3.999  0.00  0.00     0.245 C 
ATOM     14  O   UNL d   1      24.611 -13.662  -4.599  0.00  0.00    -0.271 OA
ATOM     15  N   UNL d   1      26.138 -12.293  -3.703  0.00  0.00    -0.359 N 
ATOM     16  H   UNL d   1      27.073 -12.114  -3.434  0.00  0.00     0.162 HD
BRANCH  15  17
ATOM     17  C   UNL d   1      25.530 -11.079  -4.180  0.00  0.00     0.123 C 
BRANCH  17  18
ATOM     18  C   UNL d   1      26.412 -10.401  -5.245  0.00  0.00     0.023 C 
BRANCH  18  19
ATOM     19  C   UNL d   1      26.991 -11.438  -6.213  0.00  0.00    -0.021 C 
ATOM     20  C   UNL d   1      26.653 -11.063  -7.654  0.00  0.00     0.009 C 
ATOM     21  C   UNL d   1      28.506 -11.558  -6.056  0.00  0.00     0.009 C 
ENDBRANCH  18  19
ENDBRANCH  17  18
ENDBRANCH  15  17
ENDBRANCH  12  13
BRANCH  12  22
ATOM     22  C   UNL d   1      27.581 -15.203  -4.418  0.00  0.00    -0.026 C 
ATOM     23  C   UNL d   1      28.754 -15.674  -3.892  0.00  0.00     0.013 C 
ATOM     24  C   UNL d   1      29.754 -16.343  -4.572  0.00  0.00     0.043 C 
ATOM     25  C   UNL d   1      29.866 -16.022  -5.883  0.00  0.00     0.116 C 
ATOM     26  F   UNL d   1      30.986 -16.363  -6.530  0.00  0.00    -0.206 F 
ATOM     27  C   UNL d   1      28.904 -15.187  -6.458  0.00  0.00     0.043 C 
ATOM     28  C   UNL d   1      27.722 -14.825  -5.750  0.00  0.00     0.013 C 
ENDBRANCH  12  22
ENDBRANCH   1  12
BRANCH   2  29
ATOM     29  C   UNL d   1      28.091 -13.550   0.310  0.00  0.00     0.115 C 
ATOM     30  S   UNL d   1      27.029 -14.086   1.586  0.00  0.00     0.019 SA
ATOM     31  N   UNL d   1      28.241 -14.188   2.747  0.00  0.00    -0.203 NA
ATOM     32  C   UNL d   1      29.364 -13.649   2.231  0.00  0.00     0.155 C 
ATOM     33  C   UNL d   1      29.284 -13.192   0.845  0.00  0.00     0.065 C 
BRANCH  32  34
ATOM     34  C   UNL d   1      30.674 -13.849   2.870  0.00  0.00     0.270 C 
ATOM     35  N   UNL d   1      30.788 -14.825   3.811  0.00  0.00    -0.365 N 
ATOM     36  H   UNL d   1      29.994 -15.373   4.111  0.00  0.00     0.159 HD
ATOM     37  H   UNL d   1      31.667 -14.861   4.306  0.00  0.00     0.159 HD
ATOM     38  O   UNL d   1      31.680 -13.230   2.525  0.00  0.00    -0.266 OA
ENDBRANCH  32  34
BRANCH  33  39
ATOM     39  N   UNL d   1      30.334 -12.926   0.014  0.00  0.00    -0.299 NA
ATOM     40  H   UNL d   1      30.112 -12.287  -0.755  0.00  0.00     0.124 HD
ATOM     41  H   UNL d   1      31.188 -12.570   0.453  0.00  0.00     0.124 HD
ENDBRANCH  33  39
ENDBRANCH   2  29
TORSDOF 10
ENDMDL
MODEL 6
REMARK VINA RESULT:    -8.046      3.315      5.745
REMARK INTER + INTRA:         -16.219
REMARK INTER:                 -11.029
REMARK INTRA:                  -5.189
REMARK CONF_INDEPENDENT:        2.983
REMARK UNBOUND:                -5.189
REMARK  10 active torsions:
REMARK  status: ('A' for Active; 'I' for Inactive)
REMARK    1  A    between atoms: C_6  and  N_7 
REMARK       I    between atoms: N_7  and  C_8 
REMARK    2  A    between atoms: N_7  and  C_19 
REMARK    3  A    between atoms: C_8  and  C_10 
REMARK    4  A    between atoms: C_13  and  C_14 
REMARK       I    between atoms: C_14  and  N_15 
REMARK    5  A    between atoms: C_17  and  N_18 
REMARK    6  A    between atoms: C_19  and  C_20 
REMARK    7  A    between atoms: C_19  and  C_28 
REMARK       I    between atoms: C_20  and  N_22 
REMARK    8  A    between atoms: N_22  and  C_23 
REMARK    9  A    between atoms: C_23  and  C_24 
REMARK   10  A    between atoms: C_24  and  C_25 
ROOT
ATOM      1  N   UNL d   1      27.094 -14.984  -0.799  0.00  0.00    -0.295 N 
ATOM      2  C   UNL d   1      28.359 -15.924  -1.225  0.00  0.00     0.269 C 
ATOM      3  O   UNL d   1      28.362 -16.851  -1.976  0.00  0.00    -0.266 OA
ENDROOT
BRANCH   1   4
ATOM      4  C   UNL d   1      27.122 -13.804   0.218  0.00  0.00     0.045 C 
ATOM      5  C   UNL d   1      26.860 -12.463  -0.113  0.00  0.00     0.030 C 
ATOM      6  C   UNL d   1      27.030 -11.398   0.825  0.00  0.00     0.003 C 
ATOM      7  C   UNL d   1      27.149 -11.640   2.188  0.00  0.00     0.007 C 
ATOM      8  C   UNL d   1      27.286 -12.938   2.588  0.00  0.00    -0.054 C 
ATOM      9  C   UNL d   1      27.154 -13.386   4.030  0.00  0.00     0.049 C 
ATOM     10  C   UNL d   1      27.435 -13.926   1.586  0.00  0.00    -0.029 C 
ATOM     11  C   UNL d   1      27.812 -15.200   2.152  0.00  0.00     0.051 C 
ENDBRANCH   1   4
BRANCH   1  12
ATOM     12  C   UNL d   1      25.573 -15.158  -1.446  0.00  0.00     0.218 C 
BRANCH  12  13
ATOM     13  C   UNL d   1      25.407 -15.010  -3.067  0.00  0.00     0.245 C 
ATOM     14  O   UNL d   1      24.430 -14.450  -3.574  0.00  0.00    -0.271 OA
ATOM     15  N   UNL d   1      26.442 -15.372  -3.905  0.00  0.00    -0.359 N 
ATOM     16  H   UNL d   1      27.145 -16.012  -3.632  0.00  0.00     0.162 HD
BRANCH  15  17
ATOM     17  C   UNL d   1      26.397 -15.287  -5.341  0.00  0.00     0.123 C 
BRANCH  17  18
ATOM     18  C   UNL d   1      27.750 -14.817  -5.908  0.00  0.00     0.023 C 
BRANCH  18  19
ATOM     19  C   UNL d   1      28.909 -15.554  -5.232  0.00  0.00    -0.021 C 
ATOM     20  C   UNL d   1      29.953 -15.963  -6.270  0.00  0.00     0.009 C 
ATOM     21  C   UNL d   1      29.567 -14.688  -4.159  0.00  0.00     0.009 C 
ENDBRANCH  18  19
ENDBRANCH  17  18
ENDBRANCH  15  17
ENDBRANCH  12  13
BRANCH  12  22
ATOM     22  C   UNL d   1      24.786 -16.427  -1.051  0.00  0.00    -0.026 C 
ATOM     23  C   UNL d   1      23.433 -16.275  -0.907  0.00  0.00     0.013 C 
ATOM     24  C   UNL d   1      22.487 -17.282  -0.894  0.00  0.00     0.043 C 
ATOM     25  C   UNL d   1      22.927 -18.473  -0.425  0.00  0.00     0.116 C 
ATOM     26  F   UNL d   1      22.023 -19.395  -0.074  0.00  0.00    -0.206 F 
ATOM     27  C   UNL d   1      24.288 -18.627  -0.145  0.00  0.00     0.043 C 
ATOM     28  C   UNL d   1      25.235 -17.630  -0.516  0.00  0.00     0.013 C 
ENDBRANCH  12  22
ENDBRANCH   1  12
BRANCH   2  29
ATOM     29  C   UNL d   1      29.714 -15.828  -0.692  0.00  0.00     0.115 C 
ATOM     30  S   UNL d   1      30.384 -14.294  -0.200  0.00  0.00     0.019 SA
ATOM     31  N   UNL d   1      31.636 -14.965   0.698  0.00  0.00    -0.203 NA
ATOM     32  C   UNL d   1      31.653 -16.294   0.469  0.00  0.00     0.155 C 
ATOM     33  C   UNL d   1      30.600 -16.812  -0.403  0.00  0.00     0.065 C 
BRANCH  32  34
ATOM     34  C   UNL d   1      32.425 -17.210   1.323  0.00  0.00     0.270 C 
ATOM     35  N   UNL d   1      32.992 -16.710   2.454  0.00  0.00    -0.365 N 
ATOM     36  H   UNL d   1      32.936 -15.729   2.690  0.00  0.00     0.159 HD
ATOM     37  H   UNL d   1      33.604 -17.336   2.955  0.00  0.00     0.159 HD
ATOM     38  O   UNL d   1      32.503 -18.417   1.097  0.00  0.00    -0.266 OA
ENDBRANCH  32  34
BRANCH  33  39
ATOM     39  N   UNL d   1      30.210 -18.116  -0.520  0.00  0.00    -0.299 NA
ATOM     40  H   UNL d   1      30.568 -18.730   0.217  0.00  0.00     0.124 HD
ATOM     41  H   UNL d   1      29.203 -18.291  -0.583  0.00  0.00     0.124 HD
ENDBRANCH  33  39
ENDBRANCH   2  29
TORSDOF 10
ENDMDL
MODEL 7
REMARK VINA RESULT:    -8.032      3.267      5.749
REMARK INTER + INTRA:         -16.223
REMARK INTER:                 -11.015
REMARK INTRA:                  -5.207
REMARK CONF_INDEPENDENT:        2.983
REMARK UNBOUND:                -5.207
REMARK  10 active torsions:
REMARK  status: ('A' for Active; 'I' for Inactive)
REMARK    1  A    between atoms: C_6  and  N_7 
REMARK       I    between atoms: N_7  and  C_8 
REMARK    2  A    between atoms: N_7  and  C_19 
REMARK    3  A    between atoms: C_8  and  C_10 
REMARK    4  A    between atoms: C_13  and  C_14 
REMARK       I    between atoms: C_14  and  N_15 
REMARK    5  A    between atoms: C_17  and  N_18 
REMARK    6  A    between atoms: C_19  and  C_20 
REMARK    7  A    between atoms: C_19  and  C_28 
REMARK       I    between atoms: C_20  and  N_22 
REMARK    8  A    between atoms: N_22  and  C_23 
REMARK    9  A    between atoms: C_23  and  C_24 
REMARK   10  A    between atoms: C_24  and  C_25 
ROOT
ATOM      1  N   UNL d   1      27.080 -15.074  -0.704  0.00  0.00    -0.295 N 
ATOM      2  C   UNL d   1      28.337 -16.008  -1.165  0.00  0.00     0.269 C 
ATOM      3  O   UNL d   1      28.332 -16.907  -1.949  0.00  0.00    -0.266 OA
ENDROOT
BRANCH   1   4
ATOM      4  C   UNL d   1      27.118 -13.932   0.355  0.00  0.00     0.045 C 
ATOM      5  C   UNL d   1      27.133 -14.137   1.746  0.00  0.00     0.030 C 
ATOM      6  C   UNL d   1      27.031 -13.058   2.678  0.00  0.00     0.003 C 
ATOM      7  C   UNL d   1      27.231 -11.739   2.290  0.00  0.00     0.007 C 
ATOM      8  C   UNL d   1      27.346 -11.486   0.953  0.00  0.00    -0.054 C 
ATOM      9  C   UNL d   1      27.832 -10.164   0.393  0.00  0.00     0.049 C 
ATOM     10  C   UNL d   1      27.116 -12.555   0.056  0.00  0.00    -0.029 C 
ATOM     11  C   UNL d   1      27.030 -12.091  -1.309  0.00  0.00     0.051 C 
ENDBRANCH   1   4
BRANCH   1  12
ATOM     12  C   UNL d   1      25.558 -15.211  -1.357  0.00  0.00     0.218 C 
BRANCH  12  13
ATOM     13  C   UNL d   1      25.394 -15.014  -2.973  0.00  0.00     0.245 C 
ATOM     14  O   UNL d   1      24.413 -14.448  -3.464  0.00  0.00    -0.271 OA
ATOM     15  N   UNL d   1      26.435 -15.338  -3.818  0.00  0.00    -0.359 N 
ATOM     16  H   UNL d   1      27.145 -15.978  -3.563  0.00  0.00     0.162 HD
BRANCH  15  17
ATOM     17  C   UNL d   1      26.393 -15.207  -5.251  0.00  0.00     0.123 C 
BRANCH  17  18
ATOM     18  C   UNL d   1      27.776 -14.825  -5.811  0.00  0.00     0.023 C 
BRANCH  18  19
ATOM     19  C   UNL d   1      28.895 -15.418  -4.951  0.00  0.00    -0.021 C 
ATOM     20  C   UNL d   1      29.822 -16.278  -5.808  0.00  0.00     0.009 C 
ATOM     21  C   UNL d   1      29.706 -14.322  -4.262  0.00  0.00     0.009 C 
ENDBRANCH  18  19
ENDBRANCH  17  18
ENDBRANCH  15  17
ENDBRANCH  12  13
BRANCH  12  22
ATOM     22  C   UNL d   1      24.756 -16.482  -0.999  0.00  0.00    -0.026 C 
ATOM     23  C   UNL d   1      23.402 -16.324  -0.873  0.00  0.00     0.013 C 
ATOM     24  C   UNL d   1      22.449 -17.324  -0.895  0.00  0.00     0.043 C 
ATOM     25  C   UNL d   1      22.874 -18.528  -0.443  0.00  0.00     0.116 C 
ATOM     26  F   UNL d   1      21.959 -19.450  -0.124  0.00  0.00    -0.206 F 
ATOM     27  C   UNL d   1      24.229 -18.697  -0.145  0.00  0.00     0.043 C 
ATOM     28  C   UNL d   1      25.188 -17.699  -0.481  0.00  0.00     0.013 C 
ENDBRANCH  12  22
ENDBRANCH   1  12
BRANCH   2  29
ATOM     29  C   UNL d   1      29.693 -15.942  -0.628  0.00  0.00     0.115 C 
ATOM     30  S   UNL d   1      30.380 -14.430  -0.095  0.00  0.00     0.019 SA
ATOM     31  N   UNL d   1      31.624 -15.141   0.784  0.00  0.00    -0.203 NA
ATOM     32  C   UNL d   1      31.625 -16.463   0.519  0.00  0.00     0.155 C 
ATOM     33  C   UNL d   1      30.567 -16.945  -0.367  0.00  0.00     0.065 C 
BRANCH  32  34
ATOM     34  C   UNL d   1      32.387 -17.411   1.347  0.00  0.00     0.270 C 
ATOM     35  N   UNL d   1      32.995 -16.940   2.469  0.00  0.00    -0.365 N 
ATOM     36  H   UNL d   1      32.976 -15.960   2.715  0.00  0.00     0.159 HD
ATOM     37  H   UNL d   1      33.597 -17.591   2.952  0.00  0.00     0.159 HD
ATOM     38  O   UNL d   1      32.420 -18.618   1.110  0.00  0.00    -0.266 OA
ENDBRANCH  32  34
BRANCH  33  39
ATOM     39  N   UNL d   1      30.162 -18.240  -0.520  0.00  0.00    -0.299 NA
ATOM     40  H   UNL d   1      30.511 -18.878   0.200  0.00  0.00     0.124 HD
ATOM     41  H   UNL d   1      29.153 -18.401  -0.589  0.00  0.00     0.124 HD
ENDBRANCH  33  39
ENDBRANCH   2  29
TORSDOF 10
ENDMDL
MODEL 8
REMARK VINA RESULT:    -7.906      2.893      5.396
REMARK INTER + INTRA:         -15.182
REMARK INTER:                 -10.889
REMARK INTRA:                  -4.293
REMARK CONF_INDEPENDENT:        2.983
REMARK UNBOUND:                -4.293
REMARK  10 active torsions:
REMARK  status: ('A' for Active; 'I' for Inactive)
REMARK    1  A    between atoms: C_6  and  N_7 
REMARK       I    between atoms: N_7  and  C_8 
REMARK    2  A    between atoms: N_7  and  C_19 
REMARK    3  A    between atoms: C_8  and  C_10 
REMARK    4  A    between atoms: C_13  and  C_14 
REMARK       I    between atoms: C_14  and  N_15 
REMARK    5  A    between atoms: C_17  and  N_18 
REMARK    6  A    between atoms: C_19  and  C_20 
REMARK    7  A    between atoms: C_19  and  C_28 
REMARK       I    between atoms: C_20  and  N_22 
REMARK    8  A    between atoms: N_22  and  C_23 
REMARK    9  A    between atoms: C_23  and  C_24 
REMARK   10  A    between atoms: C_24  and  C_25 
ROOT
ATOM      1  N   UNL d   1      26.673 -13.813  -1.338  0.00  0.00    -0.295 N 
ATOM      2  C   UNL d   1      27.152 -14.240   0.163  0.00  0.00     0.269 C 
ATOM      3  O   UNL d   1      26.790 -15.175   0.809  0.00  0.00    -0.266 OA
ENDROOT
BRANCH   1   4
ATOM      4  C   UNL d   1      27.142 -12.560  -2.136  0.00  0.00     0.045 C 
ATOM      5  C   UNL d   1      26.281 -11.566  -2.634  0.00  0.00     0.030 C 
ATOM      6  C   UNL d   1      26.743 -10.507  -3.476  0.00  0.00     0.003 C 
ATOM      7  C   UNL d   1      28.094 -10.205  -3.591  0.00  0.00     0.007 C 
ATOM      8  C   UNL d   1      28.983 -11.070  -3.021  0.00  0.00    -0.054 C 
ATOM      9  C   UNL d   1      30.451 -10.748  -2.824  0.00  0.00     0.049 C 
ATOM     10  C   UNL d   1      28.479 -12.275  -2.478  0.00  0.00    -0.029 C 
ATOM     11  C   UNL d   1      29.544 -13.189  -2.138  0.00  0.00     0.051 C 
ENDBRANCH   1   4
BRANCH   1  12
ATOM     12  C   UNL d   1      25.612 -14.715  -2.245  0.00  0.00     0.218 C 
BRANCH  12  13
ATOM     13  C   UNL d   1      26.012 -15.039  -3.798  0.00  0.00     0.245 C 
ATOM     14  O   UNL d   1      25.154 -15.242  -4.664  0.00  0.00    -0.271 OA
ATOM     15  N   UNL d   1      27.324 -14.934  -4.212  0.00  0.00    -0.359 N 
ATOM     16  H   UNL d   1      28.084 -14.997  -3.581  0.00  0.00     0.162 HD
BRANCH  15  17
ATOM     17  C   UNL d   1      27.782 -15.200  -5.550  0.00  0.00     0.123 C 
BRANCH  17  18
ATOM     18  C   UNL d   1      29.038 -14.372  -5.879  0.00  0.00     0.023 C 
BRANCH  18  19
ATOM     19  C   UNL d   1      28.738 -13.334  -6.964  0.00  0.00    -0.021 C 
ATOM     20  C   UNL d   1      27.664 -12.360  -6.482  0.00  0.00     0.009 C 
ATOM     21  C   UNL d   1      29.995 -12.559  -7.354  0.00  0.00     0.009 C 
ENDBRANCH  18  19
ENDBRANCH  17  18
ENDBRANCH  15  17
ENDBRANCH  12  13
BRANCH  12  22
ATOM     22  C   UNL d   1      25.138 -16.054  -1.640  0.00  0.00    -0.026 C 
ATOM     23  C   UNL d   1      23.821 -16.115  -1.269  0.00  0.00     0.013 C 
ATOM     24  C   UNL d   1      23.084 -17.258  -1.027  0.00  0.00     0.043 C 
ATOM     25  C   UNL d   1      23.799 -18.313  -0.569  0.00  0.00     0.116 C 
ATOM     26  F   UNL d   1      23.143 -19.335  -0.008  0.00  0.00    -0.206 F 
ATOM     27  C   UNL d   1      25.193 -18.214  -0.524  0.00  0.00     0.043 C 
ATOM     28  C   UNL d   1      25.874 -17.113  -1.117  0.00  0.00     0.013 C 
ENDBRANCH  12  22
ENDBRANCH   1  12
BRANCH   2  29
ATOM     29  C   UNL d   1      28.074 -13.491   1.011  0.00  0.00     0.115 C 
ATOM     30  S   UNL d   1      27.673 -11.896   1.593  0.00  0.00     0.019 SA
ATOM     31  N   UNL d   1      28.844 -11.885   2.798  0.00  0.00    -0.203 NA
ATOM     32  C   UNL d   1      29.629 -12.968   2.633  0.00  0.00     0.155 C 
ATOM     33  C   UNL d   1      29.257 -13.876   1.549  0.00  0.00     0.065 C 
BRANCH  32  34
ATOM     34  C   UNL d   1      30.554 -13.413   3.687  0.00  0.00     0.270 C 
ATOM     35  N   UNL d   1      30.609 -14.741   3.976  0.00  0.00    -0.365 N 
ATOM     36  H   UNL d   1      30.002 -15.411   3.524  0.00  0.00     0.159 HD
ATOM     37  H   UNL d   1      31.169 -14.996   4.776  0.00  0.00     0.159 HD
ATOM     38  O   UNL d   1      31.334 -12.645   4.249  0.00  0.00    -0.266 OA
ENDBRANCH  32  34
BRANCH  33  39
ATOM     39  N   UNL d   1      29.674 -15.166   1.390  0.00  0.00    -0.299 NA
ATOM     40  H   UNL d   1      30.363 -15.475   2.082  0.00  0.00     0.124 HD
ATOM     41  H   UNL d   1      28.946 -15.885   1.362  0.00  0.00     0.124 HD
ENDBRANCH  33  39
ENDBRANCH   2  29
TORSDOF 10
ENDMDL
MODEL 9
REMARK VINA RESULT:    -7.676      2.790      5.072
REMARK INTER + INTRA:         -15.144
REMARK INTER:                 -10.659
REMARK INTRA:                  -4.485
REMARK CONF_INDEPENDENT:        2.983
REMARK UNBOUND:                -4.485
REMARK  10 active torsions:
REMARK  status: ('A' for Active; 'I' for Inactive)
REMARK    1  A    between atoms: C_6  and  N_7 
REMARK       I    between atoms: N_7  and  C_8 
REMARK    2  A    between atoms: N_7  and  C_19 
REMARK    3  A    between atoms: C_8  and  C_10 
REMARK    4  A    between atoms: C_13  and  C_14 
REMARK       I    between atoms: C_14  and  N_15 
REMARK    5  A    between atoms: C_17  and  N_18 
REMARK    6  A    between atoms: C_19  and  C_20 
REMARK    7  A    between atoms: C_19  and  C_28 
REMARK       I    between atoms: C_20  and  N_22 
REMARK    8  A    between atoms: N_22  and  C_23 
REMARK    9  A    between atoms: C_23  and  C_24 
REMARK   10  A    between atoms: C_24  and  C_25 
ROOT
ATOM      1  N   UNL d   1      26.836 -15.014  -0.130  0.00  0.00    -0.295 N 
ATOM      2  C   UNL d   1      26.969 -14.080   1.202  0.00  0.00     0.269 C 
ATOM      3  O   UNL d   1      26.131 -13.393   1.701  0.00  0.00    -0.266 OA
ENDROOT
BRANCH   1   4
ATOM      4  C   UNL d   1      27.967 -15.869  -0.775  0.00  0.00     0.045 C 
ATOM      5  C   UNL d   1      28.308 -17.172  -0.372  0.00  0.00     0.030 C 
ATOM      6  C   UNL d   1      29.441 -17.864  -0.903  0.00  0.00     0.003 C 
ATOM      7  C   UNL d   1      30.078 -17.436  -2.061  0.00  0.00     0.007 C 
ATOM      8  C   UNL d   1      29.705 -16.228  -2.576  0.00  0.00    -0.054 C 
ATOM      9  C   UNL d   1      30.101 -15.753  -3.960  0.00  0.00     0.049 C 
ATOM     10  C   UNL d   1      28.804 -15.439  -1.824  0.00  0.00    -0.029 C 
ATOM     11  C   UNL d   1      28.694 -14.103  -2.363  0.00  0.00     0.051 C 
ENDBRANCH   1   4
BRANCH   1  12
ATOM     12  C   UNL d   1      25.415 -15.201  -0.972  0.00  0.00     0.218 C 
BRANCH  12  13
ATOM     13  C   UNL d   1      25.449 -14.980  -2.593  0.00  0.00     0.245 C 
ATOM     14  O   UNL d   1      25.573 -15.926  -3.377  0.00  0.00    -0.271 OA
ATOM     15  N   UNL d   1      25.177 -13.738  -3.129  0.00  0.00    -0.359 N 
ATOM     16  H   UNL d   1      25.283 -12.903  -2.609  0.00  0.00     0.162 HD
BRANCH  15  17
ATOM     17  C   UNL d   1      25.185 -13.437  -4.536  0.00  0.00     0.123 C 
BRANCH  17  18
ATOM     18  C   UNL d   1      26.536 -12.834  -4.964  0.00  0.00     0.023 C 
BRANCH  18  19
ATOM     19  C   UNL d   1      27.547 -13.938  -5.288  0.00  0.00    -0.021 C 
ATOM     20  C   UNL d   1      26.822 -15.198  -5.756  0.00  0.00     0.009 C 
ATOM     21  C   UNL d   1      28.535 -13.487  -6.362  0.00  0.00     0.009 C 
ENDBRANCH  18  19
ENDBRANCH  17  18
ENDBRANCH  15  17
ENDBRANCH  12  13
BRANCH  12  22
ATOM     22  C   UNL d   1      24.630 -16.510  -0.737  0.00  0.00    -0.026 C 
ATOM     23  C   UNL d   1      23.265 -16.403  -0.745  0.00  0.00     0.013 C 
ATOM     24  C   UNL d   1      22.357 -17.434  -0.894  0.00  0.00     0.043 C 
ATOM     25  C   UNL d   1      22.779 -18.637  -0.438  0.00  0.00     0.116 C 
ATOM     26  F   UNL d   1      21.871 -19.600  -0.242  0.00  0.00    -0.206 F 
ATOM     27  C   UNL d   1      24.103 -18.769  -0.008  0.00  0.00     0.043 C 
ATOM     28  C   UNL d   1      25.053 -17.728  -0.214  0.00  0.00     0.013 C 
ENDBRANCH  12  22
ENDBRANCH   1  12
BRANCH   2  29
ATOM     29  C   UNL d   1      28.185 -13.870   1.981  0.00  0.00     0.115 C 
ATOM     30  S   UNL d   1      29.674 -13.381   1.215  0.00  0.00     0.019 SA
ATOM     31  N   UNL d   1      30.410 -12.881   2.641  0.00  0.00    -0.203 NA
ATOM     32  C   UNL d   1      29.626 -13.254   3.673  0.00  0.00     0.155 C 
ATOM     33  C   UNL d   1      28.366 -13.907   3.323  0.00  0.00     0.065 C 
BRANCH  32  34
ATOM     34  C   UNL d   1      29.829 -12.711   5.025  0.00  0.00     0.270 C 
ATOM     35  N   UNL d   1      31.104 -12.579   5.481  0.00  0.00    -0.365 N 
ATOM     36  H   UNL d   1      31.899 -12.885   4.938  0.00  0.00     0.159 HD
ATOM     37  H   UNL d   1      31.202 -12.309   6.449  0.00  0.00     0.159 HD
ATOM     38  O   UNL d   1      28.900 -12.297   5.718  0.00  0.00    -0.266 OA
ENDBRANCH  32  34
BRANCH  33  39
ATOM     39  N   UNL d   1      27.283 -14.075   4.139  0.00  0.00    -0.299 NA
ATOM     40  H   UNL d   1      27.315 -13.520   4.999  0.00  0.00     0.124 HD
ATOM     41  H   UNL d   1      26.363 -13.913   3.720  0.00  0.00     0.124 HD
ENDBRANCH  33  39
ENDBRANCH   2  29
TORSDOF 10
ENDMDL
