MODEL 1
REMARK VINA RESULT:    -8.113      0.000      0.000
REMARK INTER + INTRA:         -11.268
REMARK INTER:                  -9.605
REMARK INTRA:                  -1.663
REMARK CONF_INDEPENDENT:        1.492
REMARK UNBOUND:                -1.663
REMARK  5 active torsions:
REMARK  status: ('A' for Active; 'I' for Inactive)
REMARK    1  A    between atoms: C_10  and  C_11 
REMARK       I    between atoms: C_11  and  N_13 
REMARK    2  A    between atoms: N_13  and  C_14 
REMARK    3  A    between atoms: C_14  and  C_15 
REMARK    4  A    between atoms: C_15  and  N_16 
REMARK    5  A    between atoms: C_20  and  N_21 
ROOT
ATOM      1  N   UNL d   1      27.149 -12.081   3.044  0.00  0.00    -0.250 N 
ATOM      2  N   UNL d   1      27.340 -10.898   3.653  0.00  0.00    -0.182 NA
ATOM      3  C   UNL d   1      27.958 -11.221   4.775  0.00  0.00     0.158 A 
ATOM      4  C   UNL d   1      28.166 -12.604   4.933  0.00  0.00     0.076 A 
ATOM      5  C   UNL d   1      28.738 -13.445   5.919  0.00  0.00     0.142 A 
ATOM      6  N   UNL d   1      28.732 -14.777   5.639  0.00  0.00    -0.224 NA
ATOM      7  C   UNL d   1      28.156 -15.200   4.482  0.00  0.00     0.237 A 
ATOM      8  N   UNL d   1      27.581 -14.470   3.491  0.00  0.00    -0.222 NA
ATOM      9  C   UNL d   1      27.621 -13.155   3.780  0.00  0.00     0.163 A 
ENDROOT
BRANCH   1  10
ATOM     10  C   UNL d   1      26.529 -12.039   1.730  0.00  0.00     0.172 C 
BRANCH  10  11
ATOM     11  C   UNL d   1      27.306 -12.854   0.660  0.00  0.00     0.145 C 
BRANCH  11  12
ATOM     12  N   UNL d   1      26.958 -14.269   0.624  0.00  0.00    -0.355 N 
ATOM     13  C   UNL d   1      26.281 -14.838  -0.452  0.00  0.00     0.254 C 
ATOM     14  O   UNL d   1      25.952 -14.159  -1.412  0.00  0.00    -0.268 OA
ATOM     15  H   UNL d   1      27.227 -14.831   1.404  0.00  0.00     0.162 HD
BRANCH  13  16
ATOM     16  C   UNL d   1      25.975 -16.289  -0.374  0.00  0.00     0.066 A 
ATOM     17  C   UNL d   1      24.646 -16.865  -0.425  0.00  0.00     0.008 A 
ATOM     18  C   UNL d   1      23.349 -16.324  -0.571  0.00  0.00     0.015 A 
ATOM     19  C   UNL d   1      24.756 -18.250  -0.293  0.00  0.00     0.043 A 
ATOM     20  C   UNL d   1      22.229 -17.164  -0.588  0.00  0.00     0.001 A 
ATOM     21  C   UNL d   1      22.375 -18.538  -0.439  0.00  0.00     0.002 A 
ATOM     22  C   UNL d   1      23.643 -19.109  -0.285  0.00  0.00     0.030 A 
ATOM     23  N   UNL d   1      26.097 -18.527  -0.194  0.00  0.00    -0.358 N 
ATOM     24  C   UNL d   1      26.846 -17.370  -0.241  0.00  0.00     0.022 A 
ATOM     25  H   UNL d   1      26.473 -19.462  -0.103  0.00  0.00     0.166 HD
ATOM     26  C   UNL d   1      28.325 -17.428  -0.145  0.00  0.00     0.069 C 
ENDBRANCH  13  16
ENDBRANCH  11  12
ENDBRANCH  10  11
ENDBRANCH   1  10
BRANCH   5  27
ATOM     27  N   UNL d   1      29.152 -12.982   7.170  0.00  0.00    -0.360 N 
ATOM     28  C   UNL d   1      28.177 -12.176   7.917  0.00  0.00     0.156 C 
ATOM     29  C   UNL d   1      28.468 -12.204   9.405  0.00  0.00     0.136 C 
ATOM     30  O   UNL d   1      29.798 -11.743   9.671  0.00  0.00    -0.378 OA
ATOM     31  C   UNL d   1      28.201 -13.610   9.920  0.00  0.00     0.041 C 
ATOM     32  C   UNL d   1      30.830 -12.431   8.925  0.00  0.00     0.136 C 
ATOM     33  C   UNL d   1      30.533 -12.512   7.392  0.00  0.00     0.156 C 
ATOM     34  C   UNL d   1      31.165 -13.787   9.551  0.00  0.00     0.041 C 
ENDBRANCH   5  27
TORSDOF 5
ENDMDL
MODEL 2
REMARK VINA RESULT:    -7.929      6.960     11.294
REMARK INTER + INTRA:         -10.791
REMARK INTER:                  -9.421
REMARK INTRA:                  -1.370
REMARK CONF_INDEPENDENT:        1.492
REMARK UNBOUND:                -1.370
REMARK  5 active torsions:
REMARK  status: ('A' for Active; 'I' for Inactive)
REMARK    1  A    between atoms: C_10  and  C_11 
REMARK       I    between atoms: C_11  and  N_13 
REMARK    2  A    between atoms: N_13  and  C_14 
REMARK    3  A    between atoms: C_14  and  C_15 
REMARK    4  A    between atoms: C_15  and  N_16 
REMARK    5  A    between atoms: C_20  and  N_21 
ROOT
ATOM      1  N   UNL d   1      28.781 -14.015  -6.210  0.00  0.00    -0.250 N 
ATOM      2  N   UNL d   1      28.352 -15.200  -5.742  0.00  0.00    -0.182 NA
ATOM      3  C   UNL d   1      29.280 -16.049  -6.146  0.00  0.00     0.158 A 
ATOM      4  C   UNL d   1      30.313 -15.452  -6.894  0.00  0.00     0.076 A 
ATOM      5  C   UNL d   1      31.487 -15.896  -7.549  0.00  0.00     0.142 A 
ATOM      6  N   UNL d   1      32.223 -14.931  -8.165  0.00  0.00    -0.224 NA
ATOM      7  C   UNL d   1      31.771 -13.648  -8.143  0.00  0.00     0.237 A 
ATOM      8  N   UNL d   1      30.660 -13.138  -7.549  0.00  0.00    -0.222 NA
ATOM      9  C   UNL d   1      29.962 -14.108  -6.927  0.00  0.00     0.163 A 
ENDROOT
BRANCH   1  10
ATOM     10  C   UNL d   1      27.978 -12.855  -5.865  0.00  0.00     0.172 C 
BRANCH  10  11
ATOM     11  C   UNL d   1      26.689 -13.215  -5.076  0.00  0.00     0.145 C 
BRANCH  11  12
ATOM     12  N   UNL d   1      26.895 -14.199  -4.021  0.00  0.00    -0.355 N 
ATOM     13  C   UNL d   1      25.834 -14.766  -3.320  0.00  0.00     0.254 C 
ATOM     14  O   UNL d   1      24.682 -14.452  -3.570  0.00  0.00    -0.268 OA
ATOM     15  H   UNL d   1      27.835 -14.463  -3.813  0.00  0.00     0.162 HD
BRANCH  13  16
ATOM     16  C   UNL d   1      26.167 -15.754  -2.262  0.00  0.00     0.066 A 
ATOM     17  C   UNL d   1      25.200 -16.538  -1.519  0.00  0.00     0.008 A 
ATOM     18  C   UNL d   1      23.791 -16.641  -1.551  0.00  0.00     0.015 A 
ATOM     19  C   UNL d   1      25.884 -17.330  -0.596  0.00  0.00     0.043 A 
ATOM     20  C   UNL d   1      23.126 -17.518  -0.685  0.00  0.00     0.001 A 
ATOM     21  C   UNL d   1      23.839 -18.281   0.232  0.00  0.00     0.002 A 
ATOM     22  C   UNL d   1      25.234 -18.199   0.297  0.00  0.00     0.030 A 
ATOM     23  N   UNL d   1      27.221 -17.072  -0.776  0.00  0.00    -0.358 N 
ATOM     24  C   UNL d   1      27.415 -16.134  -1.768  0.00  0.00     0.022 A 
ATOM     25  H   UNL d   1      27.956 -17.522  -0.247  0.00  0.00     0.166 HD
ATOM     26  C   UNL d   1      28.784 -15.696  -2.131  0.00  0.00     0.069 C 
ENDBRANCH  13  16
ENDBRANCH  11  12
ENDBRANCH  10  11
ENDBRANCH   1  10
BRANCH   5  27
ATOM     27  N   UNL d   1      31.814 -17.245  -7.700  0.00  0.00    -0.360 N 
ATOM     28  C   UNL d   1      32.103 -17.983  -6.463  0.00  0.00     0.156 C 
ATOM     29  C   UNL d   1      31.892 -19.472  -6.652  0.00  0.00     0.136 C 
ATOM     30  O   UNL d   1      32.702 -19.968  -7.724  0.00  0.00    -0.378 OA
ATOM     31  C   UNL d   1      30.405 -19.726  -6.849  0.00  0.00     0.041 C 
ATOM     32  C   UNL d   1      32.541 -19.257  -8.973  0.00  0.00     0.136 C 
ATOM     33  C   UNL d   1      32.658 -17.705  -8.819  0.00  0.00     0.156 C 
ATOM     34  C   UNL d   1      31.275 -19.700  -9.712  0.00  0.00     0.041 C 
ENDBRANCH   5  27
TORSDOF 5
ENDMDL
MODEL 3
REMARK VINA RESULT:    -7.684      1.819      3.150
REMARK INTER + INTRA:         -10.905
REMARK INTER:                  -9.176
REMARK INTRA:                  -1.729
REMARK CONF_INDEPENDENT:        1.492
REMARK UNBOUND:                -1.729
REMARK  5 active torsions:
REMARK  status: ('A' for Active; 'I' for Inactive)
REMARK    1  A    between atoms: C_10  and  C_11 
REMARK       I    between atoms: C_11  and  N_13 
REMARK    2  A    between atoms: N_13  and  C_14 
REMARK    3  A    between atoms: C_14  and  C_15 
REMARK    4  A    between atoms: C_15  and  N_16 
REMARK    5  A    between atoms: C_20  and  N_21 
ROOT
ATOM      1  N   UNL d   1      27.716 -11.985  -0.094  0.00  0.00    -0.250 N 
ATOM      2  N   UNL d   1      28.298 -13.169   0.163  0.00  0.00    -0.182 NA
ATOM      3  C   UNL d   1      28.259 -13.256   1.480  0.00  0.00     0.158 A 
ATOM      4  C   UNL d   1      27.678 -12.138   2.109  0.00  0.00     0.076 A 
ATOM      5  C   UNL d   1      27.422 -11.735   3.442  0.00  0.00     0.142 A 
ATOM      6  N   UNL d   1      26.807 -10.529   3.589  0.00  0.00    -0.224 NA
ATOM      7  C   UNL d   1      26.527  -9.797   2.477  0.00  0.00     0.237 A 
ATOM      8  N   UNL d   1      26.743 -10.102   1.170  0.00  0.00    -0.222 NA
ATOM      9  C   UNL d   1      27.329 -11.309   1.051  0.00  0.00     0.163 A 
ENDROOT
BRANCH   1  10
ATOM     10  C   UNL d   1      27.559 -11.633  -1.495  0.00  0.00     0.172 C 
BRANCH  10  11
ATOM     11  C   UNL d   1      26.582 -12.570  -2.256  0.00  0.00     0.145 C 
BRANCH  11  12
ATOM     12  N   UNL d   1      26.452 -13.896  -1.666  0.00  0.00    -0.355 N 
ATOM     13  C   UNL d   1      25.638 -14.879  -2.225  0.00  0.00     0.254 C 
ATOM     14  O   UNL d   1      24.999 -14.657  -3.241  0.00  0.00    -0.268 OA
ATOM     15  H   UNL d   1      26.975 -14.087  -0.838  0.00  0.00     0.162 HD
BRANCH  13  16
ATOM     16  C   UNL d   1      25.582 -16.192  -1.532  0.00  0.00     0.066 A 
ATOM     17  C   UNL d   1      24.365 -16.872  -1.135  0.00  0.00     0.008 A 
ATOM     18  C   UNL d   1      22.990 -16.579  -1.270  0.00  0.00     0.015 A 
ATOM     19  C   UNL d   1      24.711 -18.059  -0.488  0.00  0.00     0.043 A 
ATOM     20  C   UNL d   1      22.024 -17.462  -0.772  0.00  0.00     0.001 A 
ATOM     21  C   UNL d   1      22.406 -18.629  -0.119  0.00  0.00     0.002 A 
ATOM     22  C   UNL d   1      23.758 -18.949   0.040  0.00  0.00     0.030 A 
ATOM     23  N   UNL d   1      26.082 -18.128  -0.506  0.00  0.00    -0.358 N 
ATOM     24  C   UNL d   1      26.625 -17.023  -1.127  0.00  0.00     0.022 A 
ATOM     25  H   UNL d   1      26.611 -18.897  -0.116  0.00  0.00     0.166 HD
ATOM     26  C   UNL d   1      28.095 -16.881  -1.258  0.00  0.00     0.069 C 
ENDBRANCH  13  16
ENDBRANCH  11  12
ENDBRANCH  10  11
ENDBRANCH   1  10
BRANCH   5  27
ATOM     27  N   UNL d   1      27.891 -12.435   4.556  0.00  0.00    -0.360 N 
ATOM     28  C   UNL d   1      27.405 -13.813   4.706  0.00  0.00     0.156 C 
ATOM     29  C   UNL d   1      28.350 -14.637   5.558  0.00  0.00     0.136 C 
ATOM     30  O   UNL d   1      28.532 -14.034   6.844  0.00  0.00    -0.378 OA
ATOM     31  C   UNL d   1      29.649 -14.825   4.789  0.00  0.00     0.041 C 
ATOM     32  C   UNL d   1      28.944 -12.647   6.802  0.00  0.00     0.136 C 
ATOM     33  C   UNL d   1      28.055 -11.768   5.861  0.00  0.00     0.156 C 
ATOM     34  C   UNL d   1      30.442 -12.515   6.518  0.00  0.00     0.041 C 
ENDBRANCH   5  27
TORSDOF 5
ENDMDL
MODEL 4
REMARK VINA RESULT:    -7.409      6.653      9.602
REMARK INTER + INTRA:         -10.488
REMARK INTER:                  -8.900
REMARK INTRA:                  -1.588
REMARK CONF_INDEPENDENT:        1.492
REMARK UNBOUND:                -1.588
REMARK  5 active torsions:
REMARK  status: ('A' for Active; 'I' for Inactive)
REMARK    1  A    between atoms: C_10  and  C_11 
REMARK       I    between atoms: C_11  and  N_13 
REMARK    2  A    between atoms: N_13  and  C_14 
REMARK    3  A    between atoms: C_14  and  C_15 
REMARK    4  A    between atoms: C_15  and  N_16 
REMARK    5  A    between atoms: C_20  and  N_21 
ROOT
ATOM      1  N   UNL d   1      28.661 -14.634  -4.832  0.00  0.00    -0.250 N 
ATOM      2  N   UNL d   1      29.236 -15.522  -4.002  0.00  0.00    -0.182 NA
ATOM      3  C   UNL d   1      28.240 -15.922  -3.234  0.00  0.00     0.158 A 
ATOM      4  C   UNL d   1      27.010 -15.299  -3.523  0.00  0.00     0.076 A 
ATOM      5  C   UNL d   1      25.692 -15.352  -3.007  0.00  0.00     0.142 A 
ATOM      6  N   UNL d   1      24.781 -14.552  -3.626  0.00  0.00    -0.224 NA
ATOM      7  C   UNL d   1      25.197 -13.750  -4.643  0.00  0.00     0.237 A 
ATOM      8  N   UNL d   1      26.434 -13.631  -5.193  0.00  0.00    -0.222 NA
ATOM      9  C   UNL d   1      27.311 -14.450  -4.580  0.00  0.00     0.163 A 
ENDROOT
BRANCH   1  10
ATOM     10  C   UNL d   1      29.516 -14.055  -5.853  0.00  0.00     0.172 C 
BRANCH  10  11
ATOM     11  C   UNL d   1      30.832 -14.851  -6.073  0.00  0.00     0.145 C 
BRANCH  11  12
ATOM     12  N   UNL d   1      30.674 -16.296  -5.976  0.00  0.00    -0.355 N 
ATOM     13  C   UNL d   1      31.501 -17.179  -6.666  0.00  0.00     0.254 C 
ATOM     14  O   UNL d   1      32.396 -16.765  -7.384  0.00  0.00    -0.268 OA
ATOM     15  H   UNL d   1      29.947 -16.642  -5.387  0.00  0.00     0.162 HD
BRANCH  13  16
ATOM     16  C   UNL d   1      31.241 -18.632  -6.492  0.00  0.00     0.066 A 
ATOM     17  C   UNL d   1      31.255 -19.335  -5.224  0.00  0.00     0.008 A 
ATOM     18  C   UNL d   1      31.468 -18.937  -3.886  0.00  0.00     0.015 A 
ATOM     19  C   UNL d   1      30.997 -20.685  -5.463  0.00  0.00     0.043 A 
ATOM     20  C   UNL d   1      31.411 -19.877  -2.849  0.00  0.00     0.001 A 
ATOM     21  C   UNL d   1      31.166 -21.218  -3.126  0.00  0.00     0.002 A 
ATOM     22  C   UNL d   1      30.957 -21.649  -4.440  0.00  0.00     0.030 A 
ATOM     23  N   UNL d   1      30.802 -20.812  -6.816  0.00  0.00    -0.358 N 
ATOM     24  C   UNL d   1      30.942 -19.597  -7.452  0.00  0.00     0.022 A 
ATOM     25  H   UNL d   1      30.581 -21.688  -7.272  0.00  0.00     0.166 HD
ATOM     26  C   UNL d   1      30.780 -19.495  -8.923  0.00  0.00     0.069 C 
ENDBRANCH  13  16
ENDBRANCH  11  12
ENDBRANCH  10  11
ENDBRANCH   1  10
BRANCH   5  27
ATOM     27  N   UNL d   1      25.353 -16.051  -1.847  0.00  0.00    -0.360 N 
ATOM     28  C   UNL d   1      23.937 -16.012  -1.459  0.00  0.00     0.156 C 
ATOM     29  C   UNL d   1      23.577 -17.193  -0.580  0.00  0.00     0.136 C 
ATOM     30  O   UNL d   1      24.409 -17.230   0.586  0.00  0.00    -0.378 OA
ATOM     31  C   UNL d   1      23.656 -18.459  -1.419  0.00  0.00     0.041 C 
ATOM     32  C   UNL d   1      25.828 -17.200   0.310  0.00  0.00     0.136 C 
ATOM     33  C   UNL d   1      26.242 -16.053  -0.670  0.00  0.00     0.156 C 
ATOM     34  C   UNL d   1      26.347 -18.576  -0.115  0.00  0.00     0.041 C 
ENDBRANCH   5  27
TORSDOF 5
ENDMDL
MODEL 5
REMARK VINA RESULT:    -7.369      7.035      9.934
REMARK INTER + INTRA:         -10.568
REMARK INTER:                  -8.860
REMARK INTRA:                  -1.708
REMARK CONF_INDEPENDENT:        1.492
REMARK UNBOUND:                -1.708
REMARK  5 active torsions:
REMARK  status: ('A' for Active; 'I' for Inactive)
REMARK    1  A    between atoms: C_10  and  C_11 
REMARK       I    between atoms: C_11  and  N_13 
REMARK    2  A    between atoms: N_13  and  C_14 
REMARK    3  A    between atoms: C_14  and  C_15 
REMARK    4  A    between atoms: C_15  and  N_16 
REMARK    5  A    between atoms: C_20  and  N_21 
ROOT
ATOM      1  N   UNL d   1      27.770 -13.230  -5.087  0.00  0.00    -0.250 N 
ATOM      2  N   UNL d   1      27.054 -14.199  -5.683  0.00  0.00    -0.182 NA
ATOM      3  C   UNL d   1      27.910 -15.200  -5.786  0.00  0.00     0.158 A 
ATOM      4  C   UNL d   1      29.193 -14.907  -5.286  0.00  0.00     0.076 A 
ATOM      5  C   UNL d   1      30.428 -15.592  -5.177  0.00  0.00     0.142 A 
ATOM      6  N   UNL d   1      31.441 -14.897  -4.592  0.00  0.00    -0.224 NA
ATOM      7  C   UNL d   1      31.216 -13.614  -4.200  0.00  0.00     0.237 A 
ATOM      8  N   UNL d   1      30.073 -12.882  -4.272  0.00  0.00    -0.222 NA
ATOM      9  C   UNL d   1      29.079 -13.599  -4.831  0.00  0.00     0.163 A 
ENDROOT
BRANCH   1  10
ATOM     10  C   UNL d   1      27.062 -11.998  -4.783  0.00  0.00     0.172 C 
BRANCH  10  11
ATOM     11  C   UNL d   1      26.059 -12.143  -3.605  0.00  0.00     0.145 C 
BRANCH  11  12
ATOM     12  N   UNL d   1      26.280 -13.324  -2.781  0.00  0.00    -0.355 N 
ATOM     13  C   UNL d   1      25.597 -14.518  -2.999  0.00  0.00     0.254 C 
ATOM     14  O   UNL d   1      24.780 -14.614  -3.901  0.00  0.00    -0.268 OA
ATOM     15  H   UNL d   1      26.949 -13.255  -2.044  0.00  0.00     0.162 HD
BRANCH  13  16
ATOM     16  C   UNL d   1      25.902 -15.653  -2.091  0.00  0.00     0.066 A 
ATOM     17  C   UNL d   1      24.915 -16.418  -1.354  0.00  0.00     0.008 A 
ATOM     18  C   UNL d   1      23.505 -16.376  -1.270  0.00  0.00     0.015 A 
ATOM     19  C   UNL d   1      25.579 -17.379  -0.590  0.00  0.00     0.043 A 
ATOM     20  C   UNL d   1      22.817 -17.278  -0.449  0.00  0.00     0.001 A 
ATOM     21  C   UNL d   1      23.513 -18.213   0.311  0.00  0.00     0.002 A 
ATOM     22  C   UNL d   1      24.909 -18.279   0.258  0.00  0.00     0.030 A 
ATOM     23  N   UNL d   1      26.917 -17.236  -0.860  0.00  0.00    -0.358 N 
ATOM     24  C   UNL d   1      27.134 -16.212  -1.756  0.00  0.00     0.022 A 
ATOM     25  H   UNL d   1      27.638 -17.818  -0.452  0.00  0.00     0.166 HD
ATOM     26  C   UNL d   1      28.511 -15.872  -2.191  0.00  0.00     0.069 C 
ENDBRANCH  13  16
ENDBRANCH  11  12
ENDBRANCH  10  11
ENDBRANCH   1  10
BRANCH   5  27
ATOM     27  N   UNL d   1      30.663 -16.840  -5.758  0.00  0.00    -0.360 N 
ATOM     28  C   UNL d   1      30.744 -16.866  -7.225  0.00  0.00     0.156 C 
ATOM     29  C   UNL d   1      31.526 -18.070  -7.709  0.00  0.00     0.136 C 
ATOM     30  O   UNL d   1      30.940 -19.285  -7.225  0.00  0.00    -0.378 OA
ATOM     31  C   UNL d   1      32.981 -17.895  -7.299  0.00  0.00     0.041 C 
ATOM     32  C   UNL d   1      30.752 -19.327  -5.791  0.00  0.00     0.136 C 
ATOM     33  C   UNL d   1      30.030 -18.061  -5.225  0.00  0.00     0.156 C 
ATOM     34  C   UNL d   1      32.059 -19.656  -5.063  0.00  0.00     0.041 C 
ENDBRANCH   5  27
TORSDOF 5
ENDMDL
MODEL 6
REMARK VINA RESULT:    -7.123      2.177      3.356
REMARK INTER + INTRA:         -10.625
REMARK INTER:                  -8.615
REMARK INTRA:                  -2.010
REMARK CONF_INDEPENDENT:        1.492
REMARK UNBOUND:                -2.010
REMARK  5 active torsions:
REMARK  status: ('A' for Active; 'I' for Inactive)
REMARK    1  A    between atoms: C_10  and  C_11 
REMARK       I    between atoms: C_11  and  N_13 
REMARK    2  A    between atoms: N_13  and  C_14 
REMARK    3  A    between atoms: C_14  and  C_15 
REMARK    4  A    between atoms: C_15  and  N_16 
REMARK    5  A    between atoms: C_20  and  N_21 
ROOT
ATOM      1  N   UNL d   1      27.700 -11.668  -0.992  0.00  0.00    -0.250 N 
ATOM      2  N   UNL d   1      27.032 -10.844  -0.167  0.00  0.00    -0.182 NA
ATOM      3  C   UNL d   1      27.376 -11.262   1.038  0.00  0.00     0.158 A 
ATOM      4  C   UNL d   1      28.250 -12.367   1.030  0.00  0.00     0.076 A 
ATOM      5  C   UNL d   1      28.879 -13.178   2.005  0.00  0.00     0.142 A 
ATOM      6  N   UNL d   1      29.680 -14.168   1.525  0.00  0.00    -0.224 NA
ATOM      7  C   UNL d   1      29.786 -14.331   0.179  0.00  0.00     0.237 A 
ATOM      8  N   UNL d   1      29.216 -13.608  -0.822  0.00  0.00    -0.222 NA
ATOM      9  C   UNL d   1      28.449 -12.621  -0.322  0.00  0.00     0.163 A 
ENDROOT
BRANCH   1  10
ATOM     10  C   UNL d   1      27.562 -11.409  -2.415  0.00  0.00     0.172 C 
BRANCH  10  11
ATOM     11  C   UNL d   1      26.847 -12.557  -3.181  0.00  0.00     0.145 C 
BRANCH  11  12
ATOM     12  N   UNL d   1      26.788 -13.813  -2.445  0.00  0.00    -0.355 N 
ATOM     13  C   UNL d   1      25.757 -14.731  -2.629  0.00  0.00     0.254 C 
ATOM     14  O   UNL d   1      24.858 -14.508  -3.423  0.00  0.00    -0.268 OA
ATOM     15  H   UNL d   1      27.522 -14.004  -1.796  0.00  0.00     0.162 HD
BRANCH  13  16
ATOM     16  C   UNL d   1      25.800 -15.975  -1.818  0.00  0.00     0.066 A 
ATOM     17  C   UNL d   1      24.648 -16.618  -1.217  0.00  0.00     0.008 A 
ATOM     18  C   UNL d   1      23.263 -16.340  -1.211  0.00  0.00     0.015 A 
ATOM     19  C   UNL d   1      25.084 -17.741  -0.512  0.00  0.00     0.043 A 
ATOM     20  C   UNL d   1      22.376 -17.175  -0.522  0.00  0.00     0.001 A 
ATOM     21  C   UNL d   1      22.847 -18.278   0.183  0.00  0.00     0.002 A 
ATOM     22  C   UNL d   1      24.213 -18.580   0.205  0.00  0.00     0.030 A 
ATOM     23  N   UNL d   1      26.444 -17.810  -0.690  0.00  0.00    -0.358 N 
ATOM     24  C   UNL d   1      26.894 -16.765  -1.469  0.00  0.00     0.022 A 
ATOM     25  H   UNL d   1      27.025 -18.539  -0.299  0.00  0.00     0.166 HD
ATOM     26  C   UNL d   1      28.337 -16.634  -1.788  0.00  0.00     0.069 C 
ENDBRANCH  13  16
ENDBRANCH  11  12
ENDBRANCH  10  11
ENDBRANCH   1  10
BRANCH   5  27
ATOM     27  N   UNL d   1      28.597 -13.090   3.370  0.00  0.00    -0.360 N 
ATOM     28  C   UNL d   1      27.352 -13.730   3.816  0.00  0.00     0.156 C 
ATOM     29  C   UNL d   1      27.409 -14.069   5.292  0.00  0.00     0.136 C 
ATOM     30  O   UNL d   1      27.670 -12.897   6.073  0.00  0.00    -0.378 OA
ATOM     31  C   UNL d   1      28.438 -15.171   5.492  0.00  0.00     0.041 C 
ATOM     32  C   UNL d   1      28.842 -12.155   5.664  0.00  0.00     0.136 C 
ATOM     33  C   UNL d   1      28.879 -11.857   4.129  0.00  0.00     0.156 C 
ATOM     34  C   UNL d   1      30.127 -12.801   6.187  0.00  0.00     0.041 C 
ENDBRANCH   5  27
TORSDOF 5
ENDMDL
MODEL 7
REMARK VINA RESULT:    -7.059      6.179     10.598
REMARK INTER + INTRA:         -10.451
REMARK INTER:                  -8.551
REMARK INTRA:                  -1.900
REMARK CONF_INDEPENDENT:        1.492
REMARK UNBOUND:                -1.900
REMARK  5 active torsions:
REMARK  status: ('A' for Active; 'I' for Inactive)
REMARK    1  A    between atoms: C_10  and  C_11 
REMARK       I    between atoms: C_11  and  N_13 
REMARK    2  A    between atoms: N_13  and  C_14 
REMARK    3  A    between atoms: C_14  and  C_15 
REMARK    4  A    between atoms: C_15  and  N_16 
REMARK    5  A    between atoms: C_20  and  N_21 
ROOT
ATOM      1  N   UNL d   1      29.334 -14.800  -5.628  0.00  0.00    -0.250 N 
ATOM      2  N   UNL d   1      29.581 -15.064  -6.923  0.00  0.00    -0.182 NA
ATOM      3  C   UNL d   1      30.030 -16.306  -6.908  0.00  0.00     0.158 A 
ATOM      4  C   UNL d   1      30.106 -16.870  -5.619  0.00  0.00     0.076 A 
ATOM      5  C   UNL d   1      30.519 -18.107  -5.069  0.00  0.00     0.142 A 
ATOM      6  N   UNL d   1      30.406 -18.222  -3.717  0.00  0.00    -0.224 NA
ATOM      7  C   UNL d   1      29.953 -17.155  -3.005  0.00  0.00     0.237 A 
ATOM      8  N   UNL d   1      29.545 -15.937  -3.447  0.00  0.00    -0.222 NA
ATOM      9  C   UNL d   1      29.644 -15.857  -4.788  0.00  0.00     0.163 A 
ENDROOT
BRANCH   1  10
ATOM     10  C   UNL d   1      28.762 -13.498  -5.331  0.00  0.00     0.172 C 
BRANCH  10  11
ATOM     11  C   UNL d   1      27.348 -13.581  -4.693  0.00  0.00     0.145 C 
BRANCH  11  12
ATOM     12  N   UNL d   1      27.294 -14.374  -3.472  0.00  0.00    -0.355 N 
ATOM     13  C   UNL d   1      26.115 -14.964  -3.023  0.00  0.00     0.254 C 
ATOM     14  O   UNL d   1      25.074 -14.832  -3.647  0.00  0.00    -0.268 OA
ATOM     15  H   UNL d   1      28.142 -14.489  -2.958  0.00  0.00     0.162 HD
BRANCH  13  16
ATOM     16  C   UNL d   1      26.182 -15.745  -1.761  0.00  0.00     0.066 A 
ATOM     17  C   UNL d   1      25.209 -16.735  -1.342  0.00  0.00     0.008 A 
ATOM     18  C   UNL d   1      24.027 -17.253  -1.918  0.00  0.00     0.015 A 
ATOM     19  C   UNL d   1      25.591 -17.233  -0.095  0.00  0.00     0.043 A 
ATOM     20  C   UNL d   1      23.285 -18.235  -1.251  0.00  0.00     0.001 A 
ATOM     21  C   UNL d   1      23.688 -18.697  -0.003  0.00  0.00     0.002 A 
ATOM     22  C   UNL d   1      24.848 -18.202   0.602  0.00  0.00     0.030 A 
ATOM     23  N   UNL d   1      26.765 -16.602   0.234  0.00  0.00    -0.358 N 
ATOM     24  C   UNL d   1      27.139 -15.709  -0.748  0.00  0.00     0.022 A 
ATOM     25  H   UNL d   1      27.280 -16.782   1.086  0.00  0.00     0.166 HD
ATOM     26  C   UNL d   1      28.377 -14.906  -0.602  0.00  0.00     0.069 C 
ENDBRANCH  13  16
ENDBRANCH  11  12
ENDBRANCH  10  11
ENDBRANCH   1  10
BRANCH   5  27
ATOM     27  N   UNL d   1      31.147 -19.105  -5.817  0.00  0.00    -0.360 N 
ATOM     28  C   UNL d   1      30.407 -19.600  -6.986  0.00  0.00     0.156 C 
ATOM     29  C   UNL d   1      31.342 -20.219  -8.005  0.00  0.00     0.136 C 
ATOM     30  O   UNL d   1      32.104 -21.280  -7.416  0.00  0.00    -0.378 OA
ATOM     31  C   UNL d   1      32.203 -19.116  -8.601  0.00  0.00     0.041 C 
ATOM     32  C   UNL d   1      32.816 -20.909  -6.213  0.00  0.00     0.136 C 
ATOM     33  C   UNL d   1      31.916 -20.180  -5.163  0.00  0.00     0.156 C 
ATOM     34  C   UNL d   1      34.106 -20.150  -6.536  0.00  0.00     0.041 C 
ENDBRANCH   5  27
TORSDOF 5
ENDMDL
MODEL 8
REMARK VINA RESULT:    -7.040      2.290      3.537
REMARK INTER + INTRA:         -10.510
REMARK INTER:                  -8.532
REMARK INTRA:                  -1.978
REMARK CONF_INDEPENDENT:        1.492
REMARK UNBOUND:                -1.978
REMARK  5 active torsions:
REMARK  status: ('A' for Active; 'I' for Inactive)
REMARK    1  A    between atoms: C_10  and  C_11 
REMARK       I    between atoms: C_11  and  N_13 
REMARK    2  A    between atoms: N_13  and  C_14 
REMARK    3  A    between atoms: C_14  and  C_15 
REMARK    4  A    between atoms: C_15  and  N_16 
REMARK    5  A    between atoms: C_20  and  N_21 
ROOT
ATOM      1  N   UNL d   1      30.410 -14.530   0.863  0.00  0.00    -0.250 N 
ATOM      2  N   UNL d   1      31.344 -14.618   1.826  0.00  0.00    -0.182 NA
ATOM      3  C   UNL d   1      30.686 -14.310   2.929  0.00  0.00     0.158 A 
ATOM      4  C   UNL d   1      29.330 -13.998   2.715  0.00  0.00     0.076 A 
ATOM      5  C   UNL d   1      28.235 -13.599   3.519  0.00  0.00     0.142 A 
ATOM      6  N   UNL d   1      27.057 -13.408   2.864  0.00  0.00    -0.224 NA
ATOM      7  C   UNL d   1      27.024 -13.569   1.514  0.00  0.00     0.237 A 
ATOM      8  N   UNL d   1      28.021 -13.939   0.669  0.00  0.00    -0.222 NA
ATOM      9  C   UNL d   1      29.169 -14.146   1.343  0.00  0.00     0.163 A 
ENDROOT
BRANCH   1  10
ATOM     10  C   UNL d   1      30.833 -14.878  -0.482  0.00  0.00     0.172 C 
BRANCH  10  11
ATOM     11  C   UNL d   1      30.097 -16.121  -1.054  0.00  0.00     0.145 C 
BRANCH  11  12
ATOM     12  N   UNL d   1      28.646 -15.992  -1.076  0.00  0.00    -0.355 N 
ATOM     13  C   UNL d   1      27.923 -15.956  -2.266  0.00  0.00     0.254 C 
ATOM     14  O   UNL d   1      28.491 -16.033  -3.343  0.00  0.00    -0.268 OA
ATOM     15  H   UNL d   1      28.173 -15.932  -0.199  0.00  0.00     0.162 HD
BRANCH  13  16
ATOM     16  C   UNL d   1      26.448 -15.817  -2.163  0.00  0.00     0.066 A 
ATOM     17  C   UNL d   1      25.588 -16.643  -1.339  0.00  0.00     0.008 A 
ATOM     18  C   UNL d   1      25.820 -17.712  -0.445  0.00  0.00     0.015 A 
ATOM     19  C   UNL d   1      24.267 -16.233  -1.526  0.00  0.00     0.043 A 
ATOM     20  C   UNL d   1      24.752 -18.321   0.224  0.00  0.00     0.001 A 
ATOM     21  C   UNL d   1      23.447 -17.896   0.003  0.00  0.00     0.002 A 
ATOM     22  C   UNL d   1      23.178 -16.846  -0.881  0.00  0.00     0.030 A 
ATOM     23  N   UNL d   1      24.305 -15.180  -2.406  0.00  0.00    -0.358 N 
ATOM     24  C   UNL d   1      25.599 -14.912  -2.800  0.00  0.00     0.022 A 
ATOM     25  H   UNL d   1      23.485 -14.674  -2.712  0.00  0.00     0.166 HD
ATOM     26  C   UNL d   1      25.881 -13.814  -3.756  0.00  0.00     0.069 C 
ENDBRANCH  13  16
ENDBRANCH  11  12
ENDBRANCH  10  11
ENDBRANCH   1  10
BRANCH   5  27
ATOM     27  N   UNL d   1      28.359 -13.270   4.871  0.00  0.00    -0.360 N 
ATOM     28  C   UNL d   1      28.231 -14.382   5.822  0.00  0.00     0.156 C 
ATOM     29  C   UNL d   1      28.912 -14.058   7.137  0.00  0.00     0.136 C 
ATOM     30  O   UNL d   1      28.375 -12.858   7.705  0.00  0.00    -0.378 OA
ATOM     31  C   UNL d   1      30.413 -13.996   6.899  0.00  0.00     0.041 C 
ATOM     32  C   UNL d   1      28.391 -11.717   6.816  0.00  0.00     0.136 C 
ATOM     33  C   UNL d   1      27.782 -12.023   5.408  0.00  0.00     0.156 C 
ATOM     34  C   UNL d   1      29.780 -11.076   6.750  0.00  0.00     0.041 C 
ENDBRANCH   5  27
TORSDOF 5
ENDMDL
MODEL 9
REMARK VINA RESULT:    -6.208      5.899      8.785
REMARK INTER + INTRA:         -10.571
REMARK INTER:                  -7.700
REMARK INTRA:                  -2.871
REMARK CONF_INDEPENDENT:        1.492
REMARK UNBOUND:                -2.871
REMARK  5 active torsions:
REMARK  status: ('A' for Active; 'I' for Inactive)
REMARK    1  A    between atoms: C_10  and  C_11 
REMARK       I    between atoms: C_11  and  N_13 
REMARK    2  A    between atoms: N_13  and  C_14 
REMARK    3  A    between atoms: C_14  and  C_15 
REMARK    4  A    between atoms: C_15  and  N_16 
REMARK    5  A    between atoms: C_20  and  N_21 
ROOT
ATOM      1  N   UNL d   1      26.506 -11.238  -2.474  0.00  0.00    -0.250 N 
ATOM      2  N   UNL d   1      27.122 -11.582  -1.330  0.00  0.00    -0.182 NA
ATOM      3  C   UNL d   1      26.984 -12.895  -1.284  0.00  0.00     0.158 A 
ATOM      4  C   UNL d   1      26.268 -13.431  -2.371  0.00  0.00     0.076 A 
ATOM      5  C   UNL d   1      25.841 -14.719  -2.777  0.00  0.00     0.142 A 
ATOM      6  N   UNL d   1      25.154 -14.773  -3.951  0.00  0.00    -0.224 NA
ATOM      7  C   UNL d   1      24.897 -13.614  -4.614  0.00  0.00     0.237 A 
ATOM      8  N   UNL d   1      25.260 -12.343  -4.295  0.00  0.00    -0.222 NA
ATOM      9  C   UNL d   1      25.958 -12.319  -3.144  0.00  0.00     0.163 A 
ENDROOT
BRANCH   1  10
ATOM     10  C   UNL d   1      26.546  -9.830  -2.831  0.00  0.00     0.172 C 
BRANCH  10  11
ATOM     11  C   UNL d   1      27.055  -9.580  -4.277  0.00  0.00     0.145 C 
BRANCH  11  12
ATOM     12  N   UNL d   1      27.345 -10.797  -5.023  0.00  0.00    -0.355 N 
ATOM     13  C   UNL d   1      28.605 -11.390  -5.012  0.00  0.00     0.254 C 
ATOM     14  O   UNL d   1      29.519 -10.901  -4.368  0.00  0.00    -0.268 OA
ATOM     15  H   UNL d   1      26.601 -11.205  -5.549  0.00  0.00     0.162 HD
BRANCH  13  16
ATOM     16  C   UNL d   1      28.783 -12.627  -5.815  0.00  0.00     0.066 A 
ATOM     17  C   UNL d   1      29.184 -13.915  -5.283  0.00  0.00     0.008 A 
ATOM     18  C   UNL d   1      29.483 -14.390  -3.987  0.00  0.00     0.015 A 
ATOM     19  C   UNL d   1      29.272 -14.823  -6.340  0.00  0.00     0.043 A 
ATOM     20  C   UNL d   1      29.846 -15.727  -3.789  0.00  0.00     0.001 A 
ATOM     21  C   UNL d   1      29.938 -16.601  -4.867  0.00  0.00     0.002 A 
ATOM     22  C   UNL d   1      29.656 -16.164  -6.165  0.00  0.00     0.030 A 
ATOM     23  N   UNL d   1      28.915 -14.138  -7.475  0.00  0.00    -0.358 N 
ATOM     24  C   UNL d   1      28.616 -12.823  -7.185  0.00  0.00     0.022 A 
ATOM     25  H   UNL d   1      28.875 -14.557  -8.395  0.00  0.00     0.166 HD
ATOM     26  C   UNL d   1      28.208 -11.890  -8.264  0.00  0.00     0.069 C 
ENDBRANCH  13  16
ENDBRANCH  11  12
ENDBRANCH  10  11
ENDBRANCH   1  10
BRANCH   5  27
ATOM     27  N   UNL d   1      25.969 -15.855  -1.975  0.00  0.00    -0.360 N 
ATOM     28  C   UNL d   1      27.342 -16.274  -1.661  0.00  0.00     0.156 C 
ATOM     29  C   UNL d   1      27.383 -17.110  -0.397  0.00  0.00     0.136 C 
ATOM     30  O   UNL d   1      26.532 -18.255  -0.517  0.00  0.00    -0.378 OA
ATOM     31  C   UNL d   1      27.032 -16.215   0.782  0.00  0.00     0.041 C 
ATOM     32  C   UNL d   1      25.169 -17.950  -0.894  0.00  0.00     0.136 C 
ATOM     33  C   UNL d   1      25.070 -17.012  -2.142  0.00  0.00     0.156 C 
ATOM     34  C   UNL d   1      24.352 -17.456   0.302  0.00  0.00     0.041 C 
ENDBRANCH   5  27
TORSDOF 5
ENDMDL
