MODEL 1
REMARK VINA RESULT:    -7.475      0.000      0.000
REMARK INTER + INTRA:         -10.043
REMARK INTER:                  -9.265
REMARK INTRA:                  -0.778
REMARK CONF_INDEPENDENT:        1.790
REMARK UNBOUND:                -0.778
REMARK  6 active torsions:
REMARK  status: ('A' for Active; 'I' for Inactive)
REMARK    1  A    between atoms: C_7  and  C_8 
REMARK       I    between atoms: C_8  and  N_10 
REMARK    2  A    between atoms: C_11  and  N_10 
REMARK    3  A    between atoms: C_11  and  C_13 
REMARK    4  A    between atoms: C_13  and  O_14 
REMARK    5  A    between atoms: C_13  and  C_15 
REMARK    6  A    between atoms: C_18  and  O_19 
ROOT
ATOM      1  C   UNL d   1      26.171 -16.488  -1.174  0.00  0.00     0.114 C 
ATOM      2  C   UNL d   1      27.598 -16.560  -0.993  0.00  0.00     0.035 C 
ENDROOT
BRANCH   1   3
ATOM      3  C   UNL d   1      25.768 -17.783  -0.477  0.00  0.00     0.173 C 
BRANCH   3   4
ATOM      4  O   UNL d   1      26.167 -17.829   0.911  0.00  0.00    -0.389 OA
ATOM      5  H   UNL d   1      27.047 -17.419   0.988  0.00  0.00     0.210 HD
ENDBRANCH   3   4
BRANCH   3   6
ATOM      6  C   UNL d   1      24.298 -17.794  -0.536  0.00  0.00    -0.028 A 
ATOM      7  C   UNL d   1      23.656 -19.028  -0.529  0.00  0.00     0.012 A 
ATOM      8  C   UNL d   1      22.285 -19.059  -0.665  0.00  0.00     0.037 A 
ATOM      9  C   UNL d   1      21.593 -17.857  -0.818  0.00  0.00     0.065 A 
ATOM     10  C   UNL d   1      22.241 -16.632  -0.894  0.00  0.00     0.037 A 
ATOM     11  C   UNL d   1      23.606 -16.598  -0.768  0.00  0.00     0.012 A 
BRANCH   9  12
ATOM     12  O   UNL d   1      20.237 -17.828  -0.903  0.00  0.00    -0.361 OA
ATOM     13  H   UNL d   1      20.003 -17.369  -1.723  0.00  0.00     0.217 HD
ENDBRANCH   9  12
ENDBRANCH   3   6
ENDBRANCH   1   3
BRANCH   1  14
ATOM     14  N   UNL d   1      25.863 -16.320  -2.622  0.00  0.00    -0.350 N 
ATOM     15  C   UNL d   1      25.810 -15.248  -3.541  0.00  0.00     0.252 C 
ATOM     16  O   UNL d   1      25.530 -15.573  -4.686  0.00  0.00    -0.268 OA
ATOM     17  H   UNL d   1      25.536 -17.177  -3.067  0.00  0.00     0.163 HD
BRANCH  15  18
ATOM     18  C   UNL d   1      26.081 -13.737  -3.266  0.00  0.00     0.033 A 
ATOM     19  C   UNL d   1      25.716 -12.771  -4.175  0.00  0.00     0.023 A 
ATOM     20  C   UNL d   1      25.988 -11.386  -3.888  0.00  0.00    -0.061 A 
ATOM     21  C   UNL d   1      26.657 -10.921  -2.723  0.00  0.00     0.013 A 
ATOM     22  C   UNL d   1      25.547 -10.359  -4.866  0.00  0.00     0.048 C 
ATOM     23  C   UNL d   1      27.031 -11.837  -1.814  0.00  0.00    -0.061 A 
ATOM     24  C   UNL d   1      27.735 -11.716  -0.477  0.00  0.00     0.048 C 
ATOM     25  C   UNL d   1      26.655 -13.123  -2.154  0.00  0.00     0.023 A 
ENDBRANCH  15  18
ENDBRANCH   1  14
TORSDOF 6
ENDMDL
MODEL 2
REMARK VINA RESULT:    -7.362      0.232      2.097
REMARK INTER + INTRA:         -10.007
REMARK INTER:                  -9.152
REMARK INTRA:                  -0.855
REMARK CONF_INDEPENDENT:        1.790
REMARK UNBOUND:                -0.855
REMARK  6 active torsions:
REMARK  status: ('A' for Active; 'I' for Inactive)
REMARK    1  A    between atoms: C_7  and  C_8 
REMARK       I    between atoms: C_8  and  N_10 
REMARK    2  A    between atoms: C_11  and  N_10 
REMARK    3  A    between atoms: C_11  and  C_13 
REMARK    4  A    between atoms: C_13  and  O_14 
REMARK    5  A    between atoms: C_13  and  C_15 
REMARK    6  A    between atoms: C_18  and  O_19 
ROOT
ATOM      1  C   UNL d   1      26.281 -16.550  -1.240  0.00  0.00     0.114 C 
ATOM      2  C   UNL d   1      27.702 -16.768  -1.156  0.00  0.00     0.035 C 
ENDROOT
BRANCH   1   3
ATOM      3  C   UNL d   1      25.796 -17.813  -0.534  0.00  0.00     0.173 C 
BRANCH   3   4
ATOM      4  O   UNL d   1      26.070 -17.811   0.884  0.00  0.00    -0.389 OA
ATOM      5  H   UNL d   1      27.005 -18.055   1.013  0.00  0.00     0.210 HD
ENDBRANCH   3   4
BRANCH   3   6
ATOM      6  C   UNL d   1      24.337 -17.805  -0.723  0.00  0.00    -0.028 A 
ATOM      7  C   UNL d   1      23.666 -16.597  -0.556  0.00  0.00     0.012 A 
ATOM      8  C   UNL d   1      22.292 -16.588  -0.650  0.00  0.00     0.037 A 
ATOM      9  C   UNL d   1      21.622 -17.788  -0.895  0.00  0.00     0.065 A 
ATOM     10  C   UNL d   1      22.286 -19.002  -0.993  0.00  0.00     0.037 A 
ATOM     11  C   UNL d   1      23.655 -19.017  -0.892  0.00  0.00     0.012 A 
BRANCH   9  12
ATOM     12  O   UNL d   1      20.272 -17.825  -1.049  0.00  0.00    -0.361 OA
ATOM     13  H   UNL d   1      20.035 -17.167  -1.719  0.00  0.00     0.217 HD
ENDBRANCH   9  12
ENDBRANCH   3   6
ENDBRANCH   1   3
BRANCH   1  14
ATOM     14  N   UNL d   1      25.897 -16.325  -2.662  0.00  0.00    -0.350 N 
ATOM     15  C   UNL d   1      25.837 -15.222  -3.544  0.00  0.00     0.252 C 
ATOM     16  O   UNL d   1      25.478 -15.499  -4.680  0.00  0.00    -0.268 OA
ATOM     17  H   UNL d   1      25.508 -17.152  -3.112  0.00  0.00     0.163 HD
BRANCH  15  18
ATOM     18  C   UNL d   1      26.189 -13.734  -3.242  0.00  0.00     0.033 A 
ATOM     19  C   UNL d   1      26.716 -13.359  -2.028  0.00  0.00     0.023 A 
ATOM     20  C   UNL d   1      27.024 -11.974  -1.784  0.00  0.00    -0.061 A 
ATOM     21  C   UNL d   1      26.789 -10.921  -2.710  0.00  0.00     0.013 A 
ATOM     22  C   UNL d   1      27.630 -11.601  -0.480  0.00  0.00     0.048 C 
ATOM     23  C   UNL d   1      26.274 -11.249  -3.905  0.00  0.00    -0.061 A 
ATOM     24  C   UNL d   1      25.911 -10.419  -5.121  0.00  0.00     0.048 C 
ATOM     25  C   UNL d   1      26.087 -12.610  -4.060  0.00  0.00     0.023 A 
ENDBRANCH  15  18
ENDBRANCH   1  14
TORSDOF 6
ENDMDL
MODEL 3
REMARK VINA RESULT:    -7.257      2.238      3.077
REMARK INTER + INTRA:          -9.539
REMARK INTER:                  -9.047
REMARK INTRA:                  -0.492
REMARK CONF_INDEPENDENT:        1.790
REMARK UNBOUND:                -0.492
REMARK  6 active torsions:
REMARK  status: ('A' for Active; 'I' for Inactive)
REMARK    1  A    between atoms: C_7  and  C_8 
REMARK       I    between atoms: C_8  and  N_10 
REMARK    2  A    between atoms: C_11  and  N_10 
REMARK    3  A    between atoms: C_11  and  C_13 
REMARK    4  A    between atoms: C_13  and  O_14 
REMARK    5  A    between atoms: C_13  and  C_15 
REMARK    6  A    between atoms: C_18  and  O_19 
ROOT
ATOM      1  C   UNL d   1      25.740 -15.466  -1.182  0.00  0.00     0.114 C 
ATOM      2  C   UNL d   1      27.162 -15.246  -1.139  0.00  0.00     0.035 C 
ENDROOT
BRANCH   1   3
ATOM      3  C   UNL d   1      25.714 -16.965  -0.904  0.00  0.00     0.173 C 
BRANCH   3   4
ATOM      4  O   UNL d   1      26.323 -17.320   0.356  0.00  0.00    -0.389 OA
ATOM      5  H   UNL d   1      27.291 -17.272   0.251  0.00  0.00     0.210 HD
ENDBRANCH   3   4
BRANCH   3   6
ATOM      6  C   UNL d   1      24.284 -17.305  -0.838  0.00  0.00    -0.028 A 
ATOM      7  C   UNL d   1      23.932 -18.650  -0.903  0.00  0.00     0.012 A 
ATOM      8  C   UNL d   1      22.594 -18.981  -0.923  0.00  0.00     0.037 A 
ATOM      9  C   UNL d   1      21.644 -17.959  -0.892  0.00  0.00     0.065 A 
ATOM     10  C   UNL d   1      21.996 -16.617  -0.897  0.00  0.00     0.037 A 
ATOM     11  C   UNL d   1      23.327 -16.283  -0.885  0.00  0.00     0.012 A 
BRANCH   9  12
ATOM     12  O   UNL d   1      20.313 -18.233  -0.857  0.00  0.00    -0.361 OA
ATOM     13  H   UNL d   1      19.908 -17.826  -1.637  0.00  0.00     0.217 HD
ENDBRANCH   9  12
ENDBRANCH   3   6
ENDBRANCH   1   3
BRANCH   1  14
ATOM     14  N   UNL d   1      25.198 -14.960  -2.474  0.00  0.00    -0.350 N 
ATOM     15  C   UNL d   1      25.687 -14.773  -3.787  0.00  0.00     0.252 C 
ATOM     16  O   UNL d   1      24.862 -14.341  -4.580  0.00  0.00    -0.268 OA
ATOM     17  H   UNL d   1      24.255 -14.582  -2.396  0.00  0.00     0.163 HD
BRANCH  15  18
ATOM     18  C   UNL d   1      27.119 -15.068  -4.326  0.00  0.00     0.033 A 
ATOM     19  C   UNL d   1      27.589 -14.463  -5.469  0.00  0.00     0.023 A 
ATOM     20  C   UNL d   1      28.916 -14.765  -5.939  0.00  0.00    -0.061 A 
ATOM     21  C   UNL d   1      29.798 -15.694  -5.321  0.00  0.00     0.013 A 
ATOM     22  C   UNL d   1      29.415 -14.068  -7.152  0.00  0.00     0.048 C 
ATOM     23  C   UNL d   1      29.372 -16.306  -4.205  0.00  0.00    -0.061 A 
ATOM     24  C   UNL d   1      30.026 -17.320  -3.287  0.00  0.00     0.048 C 
ATOM     25  C   UNL d   1      28.118 -15.887  -3.802  0.00  0.00     0.023 A 
ENDBRANCH  15  18
ENDBRANCH   1  14
TORSDOF 6
ENDMDL
MODEL 4
REMARK VINA RESULT:    -7.037      2.176      3.074
REMARK INTER + INTRA:          -9.563
REMARK INTER:                  -8.827
REMARK INTRA:                  -0.736
REMARK CONF_INDEPENDENT:        1.790
REMARK UNBOUND:                -0.736
REMARK  6 active torsions:
REMARK  status: ('A' for Active; 'I' for Inactive)
REMARK    1  A    between atoms: C_7  and  C_8 
REMARK       I    between atoms: C_8  and  N_10 
REMARK    2  A    between atoms: C_11  and  N_10 
REMARK    3  A    between atoms: C_11  and  C_13 
REMARK    4  A    between atoms: C_13  and  O_14 
REMARK    5  A    between atoms: C_13  and  C_15 
REMARK    6  A    between atoms: C_18  and  O_19 
ROOT
ATOM      1  C   UNL d   1      26.755 -16.953  -0.635  0.00  0.00     0.114 C 
ATOM      2  C   UNL d   1      26.939 -16.223   0.593  0.00  0.00     0.035 C 
ENDROOT
BRANCH   1   3
ATOM      3  C   UNL d   1      26.061 -18.194  -0.083  0.00  0.00     0.173 C 
BRANCH   3   4
ATOM      4  O   UNL d   1      26.169 -18.313   1.352  0.00  0.00    -0.389 OA
ATOM      5  H   UNL d   1      27.109 -18.433   1.578  0.00  0.00     0.210 HD
ENDBRANCH   3   4
BRANCH   3   6
ATOM      6  C   UNL d   1      24.642 -18.008  -0.426  0.00  0.00    -0.028 A 
ATOM      7  C   UNL d   1      24.151 -16.707  -0.480  0.00  0.00     0.012 A 
ATOM      8  C   UNL d   1      22.808 -16.519  -0.721  0.00  0.00     0.037 A 
ATOM      9  C   UNL d   1      21.987 -17.637  -0.889  0.00  0.00     0.065 A 
ATOM     10  C   UNL d   1      22.465 -18.933  -0.767  0.00  0.00     0.037 A 
ATOM     11  C   UNL d   1      23.801 -19.125  -0.518  0.00  0.00     0.012 A 
BRANCH   9  12
ATOM     12  O   UNL d   1      20.667 -17.505  -1.181  0.00  0.00    -0.361 OA
ATOM     13  H   UNL d   1      20.560 -16.698  -1.705  0.00  0.00     0.217 HD
ENDBRANCH   9  12
ENDBRANCH   3   6
ENDBRANCH   1   3
BRANCH   1  14
ATOM     14  N   UNL d   1      28.068 -17.105  -1.323  0.00  0.00    -0.350 N 
ATOM     15  C   UNL d   1      28.681 -16.589  -2.487  0.00  0.00     0.252 C 
ATOM     16  O   UNL d   1      29.827 -16.972  -2.671  0.00  0.00    -0.268 OA
ATOM     17  H   UNL d   1      28.666 -17.812  -0.898  0.00  0.00     0.163 HD
BRANCH  15  18
ATOM     18  C   UNL d   1      28.078 -15.594  -3.525  0.00  0.00     0.033 A 
ATOM     19  C   UNL d   1      26.835 -15.035  -3.337  0.00  0.00     0.023 A 
ATOM     20  C   UNL d   1      26.310 -14.124  -4.321  0.00  0.00    -0.061 A 
ATOM     21  C   UNL d   1      26.974 -13.769  -5.527  0.00  0.00     0.013 A 
ATOM     22  C   UNL d   1      24.983 -13.502  -4.075  0.00  0.00     0.048 C 
ATOM     23  C   UNL d   1      28.189 -14.297  -5.745  0.00  0.00    -0.061 A 
ATOM     24  C   UNL d   1      29.178 -14.141  -6.883  0.00  0.00     0.048 C 
ATOM     25  C   UNL d   1      28.627 -15.096  -4.705  0.00  0.00     0.023 A 
ENDBRANCH  15  18
ENDBRANCH   1  14
TORSDOF 6
ENDMDL
MODEL 5
REMARK VINA RESULT:    -6.847      3.777      6.871
REMARK INTER + INTRA:          -9.421
REMARK INTER:                  -8.636
REMARK INTRA:                  -0.784
REMARK CONF_INDEPENDENT:        1.790
REMARK UNBOUND:                -0.784
REMARK  6 active torsions:
REMARK  status: ('A' for Active; 'I' for Inactive)
REMARK    1  A    between atoms: C_7  and  C_8 
REMARK       I    between atoms: C_8  and  N_10 
REMARK    2  A    between atoms: C_11  and  N_10 
REMARK    3  A    between atoms: C_11  and  C_13 
REMARK    4  A    between atoms: C_13  and  O_14 
REMARK    5  A    between atoms: C_13  and  C_15 
REMARK    6  A    between atoms: C_18  and  O_19 
ROOT
ATOM      1  C   UNL d   1      28.424 -14.258   1.600  0.00  0.00     0.114 C 
ATOM      2  C   UNL d   1      29.634 -13.540   1.907  0.00  0.00     0.035 C 
ENDROOT
BRANCH   1   3
ATOM      3  C   UNL d   1      27.765 -14.231   2.976  0.00  0.00     0.173 C 
BRANCH   3   4
ATOM      4  O   UNL d   1      28.575 -14.840   4.005  0.00  0.00    -0.389 OA
ATOM      5  H   UNL d   1      29.162 -15.494   3.583  0.00  0.00     0.210 HD
ENDBRANCH   3   4
BRANCH   3   6
ATOM      6  C   UNL d   1      27.619 -12.801   3.288  0.00  0.00    -0.028 A 
ATOM      7  C   UNL d   1      28.040 -12.363   4.540  0.00  0.00     0.012 A 
ATOM      8  C   UNL d   1      27.837 -11.043   4.879  0.00  0.00     0.037 A 
ATOM      9  C   UNL d   1      27.206 -10.198   3.964  0.00  0.00     0.065 A 
ATOM     10  C   UNL d   1      26.726 -10.652   2.744  0.00  0.00     0.037 A 
ATOM     11  C   UNL d   1      26.918 -11.968   2.406  0.00  0.00     0.012 A 
BRANCH   9  12
ATOM     12  O   UNL d   1      27.029  -8.877   4.228  0.00  0.00    -0.361 OA
ATOM     13  H   UNL d   1      26.627  -8.804   5.107  0.00  0.00     0.217 HD
ENDBRANCH   9  12
ENDBRANCH   3   6
ENDBRANCH   1   3
BRANCH   1  14
ATOM     14  N   UNL d   1      28.769 -15.573   0.990  0.00  0.00    -0.350 N 
ATOM     15  C   UNL d   1      28.141 -16.497   0.124  0.00  0.00     0.252 C 
ATOM     16  O   UNL d   1      28.821 -17.475  -0.155  0.00  0.00    -0.268 OA
ATOM     17  H   UNL d   1      29.652 -15.955   1.326  0.00  0.00     0.163 HD
BRANCH  15  18
ATOM     18  C   UNL d   1      26.722 -16.400  -0.514  0.00  0.00     0.033 A 
ATOM     19  C   UNL d   1      26.439 -15.462  -1.480  0.00  0.00     0.023 A 
ATOM     20  C   UNL d   1      25.115 -15.399  -2.043  0.00  0.00    -0.061 A 
ATOM     21  C   UNL d   1      24.030 -16.228  -1.645  0.00  0.00     0.013 A 
ATOM     22  C   UNL d   1      24.845 -14.406  -3.114  0.00  0.00     0.048 C 
ATOM     23  C   UNL d   1      24.269 -17.154  -0.702  0.00  0.00    -0.061 A 
ATOM     24  C   UNL d   1      23.384 -18.200  -0.054  0.00  0.00     0.048 C 
ATOM     25  C   UNL d   1      25.588 -17.176  -0.287  0.00  0.00     0.023 A 
ENDBRANCH  15  18
ENDBRANCH   1  14
TORSDOF 6
ENDMDL
MODEL 6
REMARK VINA RESULT:    -6.831      3.745      7.013
REMARK INTER + INTRA:          -9.398
REMARK INTER:                  -8.621
REMARK INTRA:                  -0.777
REMARK CONF_INDEPENDENT:        1.790
REMARK UNBOUND:                -0.777
REMARK  6 active torsions:
REMARK  status: ('A' for Active; 'I' for Inactive)
REMARK    1  A    between atoms: C_7  and  C_8 
REMARK       I    between atoms: C_8  and  N_10 
REMARK    2  A    between atoms: C_11  and  N_10 
REMARK    3  A    between atoms: C_11  and  C_13 
REMARK    4  A    between atoms: C_13  and  O_14 
REMARK    5  A    between atoms: C_13  and  C_15 
REMARK    6  A    between atoms: C_18  and  O_19 
ROOT
ATOM      1  C   UNL d   1      28.392 -14.250   1.571  0.00  0.00     0.114 C 
ATOM      2  C   UNL d   1      29.590 -13.543   1.942  0.00  0.00     0.035 C 
ENDROOT
BRANCH   1   3
ATOM      3  C   UNL d   1      27.660 -14.215   2.909  0.00  0.00     0.173 C 
BRANCH   3   4
ATOM      4  O   UNL d   1      28.397 -14.852   3.975  0.00  0.00    -0.389 OA
ATOM      5  H   UNL d   1      29.161 -15.314   3.584  0.00  0.00     0.210 HD
ENDBRANCH   3   4
BRANCH   3   6
ATOM      6  C   UNL d   1      27.533 -12.784   3.225  0.00  0.00    -0.028 A 
ATOM      7  C   UNL d   1      27.966 -12.354   4.475  0.00  0.00     0.012 A 
ATOM      8  C   UNL d   1      27.781 -11.032   4.818  0.00  0.00     0.037 A 
ATOM      9  C   UNL d   1      27.155 -10.178   3.908  0.00  0.00     0.065 A 
ATOM     10  C   UNL d   1      26.663 -10.624   2.690  0.00  0.00     0.037 A 
ATOM     11  C   UNL d   1      26.838 -11.941   2.348  0.00  0.00     0.012 A 
BRANCH   9  12
ATOM     12  O   UNL d   1      26.996  -8.856   4.175  0.00  0.00    -0.361 OA
ATOM     13  H   UNL d   1      26.741  -8.772   5.106  0.00  0.00     0.217 HD
ENDBRANCH   9  12
ENDBRANCH   3   6
ENDBRANCH   1   3
BRANCH   1  14
ATOM     14  N   UNL d   1      28.757 -15.568   0.980  0.00  0.00    -0.350 N 
ATOM     15  C   UNL d   1      28.132 -16.529   0.153  0.00  0.00     0.252 C 
ATOM     16  O   UNL d   1      28.830 -17.493  -0.124  0.00  0.00    -0.268 OA
ATOM     17  H   UNL d   1      29.658 -15.919   1.300  0.00  0.00     0.163 HD
BRANCH  15  18
ATOM     18  C   UNL d   1      26.693 -16.484  -0.448  0.00  0.00     0.033 A 
ATOM     19  C   UNL d   1      25.722 -17.368  -0.037  0.00  0.00     0.023 A 
ATOM     20  C   UNL d   1      24.407 -17.299  -0.618  0.00  0.00    -0.061 A 
ATOM     21  C   UNL d   1      24.024 -16.388  -1.641  0.00  0.00     0.013 A 
ATOM     22  C   UNL d   1      23.364 -18.237  -0.128  0.00  0.00     0.048 C 
ATOM     23  C   UNL d   1      24.947 -15.512  -2.068  0.00  0.00    -0.061 A 
ATOM     24  C   UNL d   1      24.900 -14.408  -3.107  0.00  0.00     0.048 C 
ATOM     25  C   UNL d   1      26.148 -15.616  -1.392  0.00  0.00     0.023 A 
ENDBRANCH  15  18
ENDBRANCH   1  14
TORSDOF 6
ENDMDL
MODEL 7
REMARK VINA RESULT:    -6.809      2.371      2.900
REMARK INTER + INTRA:          -9.564
REMARK INTER:                  -8.599
REMARK INTRA:                  -0.965
REMARK CONF_INDEPENDENT:        1.790
REMARK UNBOUND:                -0.965
REMARK  6 active torsions:
REMARK  status: ('A' for Active; 'I' for Inactive)
REMARK    1  A    between atoms: C_7  and  C_8 
REMARK       I    between atoms: C_8  and  N_10 
REMARK    2  A    between atoms: C_11  and  N_10 
REMARK    3  A    between atoms: C_11  and  C_13 
REMARK    4  A    between atoms: C_13  and  O_14 
REMARK    5  A    between atoms: C_13  and  C_15 
REMARK    6  A    between atoms: C_18  and  O_19 
ROOT
ATOM      1  C   UNL d   1      27.120 -16.878  -0.423  0.00  0.00     0.114 C 
ATOM      2  C   UNL d   1      27.361 -16.390   0.909  0.00  0.00     0.035 C 
ENDROOT
BRANCH   1   3
ATOM      3  C   UNL d   1      26.416 -18.187  -0.083  0.00  0.00     0.173 C 
BRANCH   3   4
ATOM      4  O   UNL d   1      26.640 -18.615   1.278  0.00  0.00    -0.389 OA
ATOM      5  H   UNL d   1      27.347 -19.285   1.275  0.00  0.00     0.210 HD
ENDBRANCH   3   4
BRANCH   3   6
ATOM      6  C   UNL d   1      24.984 -17.892  -0.246  0.00  0.00    -0.028 A 
ATOM      7  C   UNL d   1      24.087 -18.951  -0.150  0.00  0.00     0.012 A 
ATOM      8  C   UNL d   1      22.751 -18.706  -0.379  0.00  0.00     0.037 A 
ATOM      9  C   UNL d   1      22.347 -17.411  -0.711  0.00  0.00     0.065 A 
ATOM     10  C   UNL d   1      23.251 -16.371  -0.874  0.00  0.00     0.037 A 
ATOM     11  C   UNL d   1      24.584 -16.613  -0.655  0.00  0.00     0.012 A 
BRANCH   9  12
ATOM     12  O   UNL d   1      21.036 -17.105  -0.895  0.00  0.00    -0.361 OA
ATOM     13  H   UNL d   1      20.711 -17.635  -1.638  0.00  0.00     0.217 HD
ENDBRANCH   9  12
ENDBRANCH   3   6
ENDBRANCH   1   3
BRANCH   1  14
ATOM     14  N   UNL d   1      28.405 -16.922  -1.176  0.00  0.00    -0.350 N 
ATOM     15  C   UNL d   1      28.893 -16.417  -2.402  0.00  0.00     0.252 C 
ATOM     16  O   UNL d   1      30.066 -16.677  -2.629  0.00  0.00    -0.268 OA
ATOM     17  H   UNL d   1      29.104 -17.527  -0.746  0.00  0.00     0.163 HD
BRANCH  15  18
ATOM     18  C   UNL d   1      28.125 -15.569  -3.461  0.00  0.00     0.033 A 
ATOM     19  C   UNL d   1      28.719 -15.202  -4.647  0.00  0.00     0.023 A 
ATOM     20  C   UNL d   1      27.979 -14.414  -5.598  0.00  0.00    -0.061 A 
ATOM     21  C   UNL d   1      26.656 -13.936  -5.393  0.00  0.00     0.013 A 
ATOM     22  C   UNL d   1      28.628 -14.066  -6.888  0.00  0.00     0.048 C 
ATOM     23  C   UNL d   1      26.045 -14.272  -4.246  0.00  0.00    -0.061 A 
ATOM     24  C   UNL d   1      24.665 -13.967  -3.699  0.00  0.00     0.048 C 
ATOM     25  C   UNL d   1      26.816 -15.090  -3.441  0.00  0.00     0.023 A 
ENDBRANCH  15  18
ENDBRANCH   1  14
TORSDOF 6
ENDMDL
MODEL 8
REMARK VINA RESULT:    -6.670      2.329      3.531
REMARK INTER + INTRA:          -9.252
REMARK INTER:                  -8.460
REMARK INTRA:                  -0.792
REMARK CONF_INDEPENDENT:        1.790
REMARK UNBOUND:                -0.792
REMARK  6 active torsions:
REMARK  status: ('A' for Active; 'I' for Inactive)
REMARK    1  A    between atoms: C_7  and  C_8 
REMARK       I    between atoms: C_8  and  N_10 
REMARK    2  A    between atoms: C_11  and  N_10 
REMARK    3  A    between atoms: C_11  and  C_13 
REMARK    4  A    between atoms: C_13  and  O_14 
REMARK    5  A    between atoms: C_13  and  C_15 
REMARK    6  A    between atoms: C_18  and  O_19 
ROOT
ATOM      1  C   UNL d   1      25.779 -14.894  -1.265  0.00  0.00     0.114 C 
ATOM      2  C   UNL d   1      27.079 -14.276  -1.206  0.00  0.00     0.035 C 
ENDROOT
BRANCH   1   3
ATOM      3  C   UNL d   1      26.188 -16.348  -1.052  0.00  0.00     0.173 C 
BRANCH   3   4
ATOM      4  O   UNL d   1      27.132 -16.520   0.028  0.00  0.00    -0.389 OA
ATOM      5  H   UNL d   1      26.720 -17.087   0.705  0.00  0.00     0.210 HD
ENDBRANCH   3   4
BRANCH   3   6
ATOM      6  C   UNL d   1      24.939 -17.034  -0.688  0.00  0.00    -0.028 A 
ATOM      7  C   UNL d   1      25.002 -18.397  -0.416  0.00  0.00     0.012 A 
ATOM      8  C   UNL d   1      23.830 -19.072  -0.152  0.00  0.00     0.037 A 
ATOM      9  C   UNL d   1      22.623 -18.369  -0.182  0.00  0.00     0.065 A 
ATOM     10  C   UNL d   1      22.555 -17.026  -0.521  0.00  0.00     0.037 A 
ATOM     11  C   UNL d   1      23.719 -16.353  -0.792  0.00  0.00     0.012 A 
BRANCH   9  12
ATOM     12  O   UNL d   1      21.446 -18.975   0.122  0.00  0.00    -0.361 OA
ATOM     13  H   UNL d   1      21.636 -19.692   0.746  0.00  0.00     0.217 HD
ENDBRANCH   9  12
ENDBRANCH   3   6
ENDBRANCH   1   3
BRANCH   1  14
ATOM     14  N   UNL d   1      25.105 -14.511  -2.538  0.00  0.00    -0.350 N 
ATOM     15  C   UNL d   1      25.469 -14.411  -3.899  0.00  0.00     0.252 C 
ATOM     16  O   UNL d   1      24.560 -14.073  -4.645  0.00  0.00    -0.268 OA
ATOM     17  H   UNL d   1      24.158 -14.161  -2.403  0.00  0.00     0.163 HD
BRANCH  15  18
ATOM     18  C   UNL d   1      26.860 -14.698  -4.543  0.00  0.00     0.033 A 
ATOM     19  C   UNL d   1      27.748 -15.570  -3.958  0.00  0.00     0.023 A 
ATOM     20  C   UNL d   1      29.026 -15.806  -4.580  0.00  0.00    -0.061 A 
ATOM     21  C   UNL d   1      29.475 -15.164  -5.767  0.00  0.00     0.013 A 
ATOM     22  C   UNL d   1      29.951 -16.783  -3.951  0.00  0.00     0.048 C 
ATOM     23  C   UNL d   1      28.635 -14.304  -6.363  0.00  0.00    -0.061 A 
ATOM     24  C   UNL d   1      28.759 -13.466  -7.620  0.00  0.00     0.048 C 
ATOM     25  C   UNL d   1      27.412 -14.210  -5.726  0.00  0.00     0.023 A 
ENDBRANCH  15  18
ENDBRANCH   1  14
TORSDOF 6
ENDMDL
MODEL 9
REMARK VINA RESULT:    -6.072      2.285      6.236
REMARK INTER + INTRA:          -9.301
REMARK INTER:                  -7.862
REMARK INTRA:                  -1.439
REMARK CONF_INDEPENDENT:        1.790
REMARK UNBOUND:                -1.439
REMARK  6 active torsions:
REMARK  status: ('A' for Active; 'I' for Inactive)
REMARK    1  A    between atoms: C_7  and  C_8 
REMARK       I    between atoms: C_8  and  N_10 
REMARK    2  A    between atoms: C_11  and  N_10 
REMARK    3  A    between atoms: C_11  and  C_13 
REMARK    4  A    between atoms: C_13  and  O_14 
REMARK    5  A    between atoms: C_13  and  C_15 
REMARK    6  A    between atoms: C_18  and  O_19 
ROOT
ATOM      1  C   UNL d   1      26.464 -12.757  -2.227  0.00  0.00     0.114 C 
ATOM      2  C   UNL d   1      26.461 -11.413  -2.743  0.00  0.00     0.035 C 
ENDROOT
BRANCH   1   3
ATOM      3  C   UNL d   1      27.916 -12.843  -1.769  0.00  0.00     0.173 C 
BRANCH   3   4
ATOM      4  O   UNL d   1      28.557 -11.553  -1.669  0.00  0.00    -0.389 OA
ATOM      5  H   UNL d   1      29.367 -11.655  -1.137  0.00  0.00     0.210 HD
ENDBRANCH   3   4
BRANCH   3   6
ATOM      6  C   UNL d   1      27.846 -13.430  -0.422  0.00  0.00    -0.028 A 
ATOM      7  C   UNL d   1      26.896 -12.923   0.459  0.00  0.00     0.012 A 
ATOM      8  C   UNL d   1      26.869 -13.406   1.750  0.00  0.00     0.037 A 
ATOM      9  C   UNL d   1      27.802 -14.372   2.130  0.00  0.00     0.065 A 
ATOM     10  C   UNL d   1      28.792 -14.827   1.270  0.00  0.00     0.037 A 
ATOM     11  C   UNL d   1      28.827 -14.343  -0.013  0.00  0.00     0.012 A 
BRANCH   9  12
ATOM     12  O   UNL d   1      27.785 -14.919   3.373  0.00  0.00    -0.361 OA
ATOM     13  H   UNL d   1      28.520 -15.548   3.429  0.00  0.00     0.217 HD
ENDBRANCH   9  12
ENDBRANCH   3   6
ENDBRANCH   1   3
BRANCH   1  14
ATOM     14  N   UNL d   1      25.982 -13.694  -3.281  0.00  0.00    -0.350 N 
ATOM     15  C   UNL d   1      25.462 -15.007  -3.324  0.00  0.00     0.252 C 
ATOM     16  O   UNL d   1      25.155 -15.396  -4.442  0.00  0.00    -0.268 OA
ATOM     17  H   UNL d   1      26.120 -13.343  -4.227  0.00  0.00     0.163 HD
BRANCH  15  18
ATOM     18  C   UNL d   1      25.223 -15.982  -2.131  0.00  0.00     0.033 A 
ATOM     19  C   UNL d   1      26.269 -16.437  -1.362  0.00  0.00     0.023 A 
ATOM     20  C   UNL d   1      26.009 -17.341  -0.272  0.00  0.00    -0.061 A 
ATOM     21  C   UNL d   1      24.724 -17.847   0.067  0.00  0.00     0.013 A 
ATOM     22  C   UNL d   1      27.151 -17.785   0.569  0.00  0.00     0.048 C 
ATOM     23  C   UNL d   1      23.679 -17.427  -0.664  0.00  0.00    -0.061 A 
ATOM     24  C   UNL d   1      22.196 -17.732  -0.590  0.00  0.00     0.048 C 
ATOM     25  C   UNL d   1      24.031 -16.507  -1.634  0.00  0.00     0.023 A 
ENDBRANCH  15  18
ENDBRANCH   1  14
TORSDOF 6
ENDMDL
