MODEL 1
REMARK VINA RESULT:    -8.923      0.000      0.000
REMARK INTER + INTRA:         -14.115
REMARK INTER:                 -11.906
REMARK INTRA:                  -2.210
REMARK CONF_INDEPENDENT:        2.983
REMARK UNBOUND:                -2.210
REMARK  10 active torsions:
REMARK  status: ('A' for Active; 'I' for Inactive)
REMARK    1  A    between atoms: O_2  and  C_3 
REMARK    2  A    between atoms: C_3  and  C_5 
REMARK    3  A    between atoms: C_8  and  C_9 
REMARK    4  A    between atoms: C_9  and  C_10 
REMARK    5  A    between atoms: C_16  and  O_17 
REMARK    6  A    between atoms: C_18  and  C_19 
REMARK    7  A    between atoms: C_19  and  N_20 
REMARK    8  A    between atoms: N_23  and  C_24 
REMARK    9  A    between atoms: C_24  and  C_25 
REMARK   10  A    between atoms: C_25  and  O_26 
ROOT
ATOM      1  C   UNL d   1      26.018 -15.037  -1.878  0.00  0.00     0.118 C 
ATOM      2  O   UNL d   1      25.163 -14.916  -3.017  0.00  0.00    -0.326 OA
ATOM      3  C   UNL d   1      25.821 -14.215  -3.956  0.00  0.00     0.153 C 
ATOM      4  C   UNL d   1      26.028 -12.970  -3.522  0.00  0.00     0.106 C 
ATOM      5  C   UNL d   1      25.929 -12.254  -4.688  0.00  0.00    -0.001 C 
ATOM      6  C   UNL d   1      26.713 -12.641  -5.770  0.00  0.00     0.034 C 
ATOM      7  C   UNL d   1      27.413 -13.819  -5.570  0.00  0.00     0.072 C 
ATOM      8  C   UNL d   1      26.975 -14.689  -4.586  0.00  0.00     0.018 C 
ATOM      9  C   UNL d   1      27.067 -13.590  -2.529  0.00  0.00     0.200 C 
ATOM     10  O   UNL d   1      28.277 -13.469  -2.370  0.00  0.00    -0.289 OA
ENDROOT
BRANCH   8  11
ATOM     11  C   UNL d   1      28.030 -15.573  -3.788  0.00  0.00     0.275 C 
BRANCH  11  12
ATOM     12  N   UNL d   1      29.722 -15.094  -3.863  0.00  0.00    -0.064 N 
ATOM     13  C   UNL d   1      30.976 -14.756  -2.224  0.00  0.00     0.254 C 
ATOM     14  C   UNL d   1      32.509 -15.869  -2.061  0.00  0.00     0.144 C 
ATOM     15  N   UNL d   1      32.225 -17.502  -2.987  0.00  0.00    -0.407 N 
ATOM     16  C   UNL d   1      31.297 -17.419  -4.792  0.00  0.00     0.144 C 
ATOM     17  C   UNL d   1      29.937 -16.638  -5.077  0.00  0.00     0.254 C 
ATOM     18  H   UNL d   1      29.868 -14.291  -4.483  0.00  0.00     0.280 HD
BRANCH  15  19
ATOM     19  C   UNL d   1      31.983 -18.641  -2.113  0.00  0.00     0.143 C 
BRANCH  19  20
ATOM     20  C   UNL d   1      30.666 -18.580  -1.464  0.00  0.00     0.183 C 
BRANCH  20  21
ATOM     21  O   UNL d   1      30.908 -17.714  -0.372  0.00  0.00    -0.399 OA
ATOM     22  H   UNL d   1      30.149 -17.835   0.235  0.00  0.00     0.209 HD
ENDBRANCH  20  21
ENDBRANCH  19  20
ENDBRANCH  15  19
ENDBRANCH  11  12
ENDBRANCH   8  11
BRANCH   7  23
ATOM     23  O   UNL d   1      28.574 -14.092  -6.184  0.00  0.00    -0.360 OA
ATOM     24  H   UNL d   1      28.465 -13.871  -7.123  0.00  0.00     0.217 HD
ENDBRANCH   7  23
BRANCH   1  25
ATOM     25  C   UNL d   1      26.001 -16.316  -0.657  0.00  0.00     0.052 C 
BRANCH  25  26
ATOM     26  C   UNL d   1      24.514 -17.615  -0.595  0.00  0.00    -0.033 C 
ATOM     27  C   UNL d   1      24.389 -18.857  -0.153  0.00  0.00     0.012 C 
ATOM     28  C   UNL d   1      23.063 -19.324  -0.459  0.00  0.00     0.018 C 
ATOM     29  C   UNL d   1      21.801 -18.528  -0.810  0.00  0.00     0.039 C 
ATOM     30  C   UNL d   1      21.683 -17.216  -0.896  0.00  0.00     0.018 C 
ATOM     31  C   UNL d   1      22.955 -16.933  -0.895  0.00  0.00     0.012 C 
BRANCH  29  32
ATOM     32  C   UNL d   1      20.510 -19.099  -1.012  0.00  0.00     0.292 C 
ATOM     33  O   UNL d   1      20.290 -19.706  -2.036  0.00  0.00    -0.259 OA
BRANCH  32  34
ATOM     34  O   UNL d   1      19.743 -18.950   0.106  0.00  0.00    -0.323 OA
ATOM     35  C   UNL d   1      20.129 -19.862   1.113  0.00  0.00     0.213 C 
ENDBRANCH  32  34
ENDBRANCH  29  32
ENDBRANCH  25  26
ENDBRANCH   1  25
TORSDOF 10
ENDMDL
MODEL 2
REMARK VINA RESULT:    -8.600      4.562      6.030
REMARK INTER + INTRA:         -14.347
REMARK INTER:                 -11.583
REMARK INTRA:                  -2.763
REMARK CONF_INDEPENDENT:        2.983
REMARK UNBOUND:                -2.763
REMARK  10 active torsions:
REMARK  status: ('A' for Active; 'I' for Inactive)
REMARK    1  A    between atoms: O_2  and  C_3 
REMARK    2  A    between atoms: C_3  and  C_5 
REMARK    3  A    between atoms: C_8  and  C_9 
REMARK    4  A    between atoms: C_9  and  C_10 
REMARK    5  A    between atoms: C_16  and  O_17 
REMARK    6  A    between atoms: C_18  and  C_19 
REMARK    7  A    between atoms: C_19  and  N_20 
REMARK    8  A    between atoms: N_23  and  C_24 
REMARK    9  A    between atoms: C_24  and  C_25 
REMARK   10  A    between atoms: C_25  and  O_26 
ROOT
ATOM      1  C   UNL d   1      26.930 -15.071  -0.439  0.00  0.00     0.118 C 
ATOM      2  O   UNL d   1      28.148 -14.806  -1.140  0.00  0.00    -0.326 OA
ATOM      3  C   UNL d   1      28.608 -13.611  -0.732  0.00  0.00     0.153 C 
ATOM      4  C   UNL d   1      27.757 -12.653  -1.105  0.00  0.00     0.106 C 
ATOM      5  C   UNL d   1      28.613 -11.612  -1.364  0.00  0.00    -0.001 C 
ATOM      6  C   UNL d   1      29.523 -11.244  -0.378  0.00  0.00     0.034 C 
ATOM      7  C   UNL d   1      29.542 -12.089   0.719  0.00  0.00     0.072 C 
ATOM      8  C   UNL d   1      29.039 -13.370   0.575  0.00  0.00     0.018 C 
ATOM      9  C   UNL d   1      26.787 -13.223  -0.017  0.00  0.00     0.200 C 
ATOM     10  O   UNL d   1      26.292 -12.770   1.011  0.00  0.00    -0.289 OA
ENDROOT
BRANCH   8  11
ATOM     11  C   UNL d   1      28.328 -14.082   1.808  0.00  0.00     0.275 C 
BRANCH  11  12
ATOM     12  N   UNL d   1      29.308 -14.424   3.230  0.00  0.00    -0.064 N 
ATOM     13  C   UNL d   1      30.962 -13.319   3.877  0.00  0.00     0.254 C 
ATOM     14  C   UNL d   1      30.846 -12.507   5.592  0.00  0.00     0.144 C 
ATOM     15  N   UNL d   1      29.025 -12.255   6.067  0.00  0.00    -0.407 N 
ATOM     16  C   UNL d   1      27.716 -13.745   5.629  0.00  0.00     0.144 C 
ATOM     17  C   UNL d   1      27.590 -14.452   4.206  0.00  0.00     0.254 C 
ATOM     18  H   UNL d   1      29.609 -15.403   3.265  0.00  0.00     0.280 HD
BRANCH  15  19
ATOM     19  C   UNL d   1      28.582 -10.870   5.988  0.00  0.00     0.143 C 
BRANCH  19  20
ATOM     20  C   UNL d   1      27.780 -10.607   4.785  0.00  0.00     0.183 C 
BRANCH  20  21
ATOM     21  O   UNL d   1      28.269 -11.577   3.878  0.00  0.00    -0.399 OA
ATOM     22  H   UNL d   1      29.243 -11.567   3.981  0.00  0.00     0.209 HD
ENDBRANCH  20  21
ENDBRANCH  19  20
ENDBRANCH  15  19
ENDBRANCH  11  12
ENDBRANCH   8  11
BRANCH   7  23
ATOM     23  O   UNL d   1      29.892 -11.681   1.948  0.00  0.00    -0.360 OA
ATOM     24  H   UNL d   1      29.334 -10.919   2.172  0.00  0.00     0.217 HD
ENDBRANCH   7  23
BRANCH   1  25
ATOM     25  C   UNL d   1      26.236 -16.652  -0.060  0.00  0.00     0.052 C 
BRANCH  25  26
ATOM     26  C   UNL d   1      24.331 -17.019  -0.429  0.00  0.00    -0.033 C 
ATOM     27  C   UNL d   1      23.342 -16.324  -0.970  0.00  0.00     0.012 C 
ATOM     28  C   UNL d   1      22.135 -17.102  -0.894  0.00  0.00     0.018 C 
ATOM     29  C   UNL d   1      21.954 -18.609  -0.678  0.00  0.00     0.039 C 
ATOM     30  C   UNL d   1      22.902 -19.513  -0.520  0.00  0.00     0.018 C 
ATOM     31  C   UNL d   1      23.888 -18.686  -0.315  0.00  0.00     0.012 C 
BRANCH  29  32
ATOM     32  C   UNL d   1      20.701 -19.289  -0.707  0.00  0.00     0.292 C 
ATOM     33  O   UNL d   1      20.279 -19.701  -1.765  0.00  0.00    -0.259 OA
BRANCH  32  34
ATOM     34  O   UNL d   1      20.227 -19.468   0.559  0.00  0.00    -0.323 OA
ATOM     35  C   UNL d   1      19.391 -20.603   0.635  0.00  0.00     0.213 C 
ENDBRANCH  32  34
ENDBRANCH  29  32
ENDBRANCH  25  26
ENDBRANCH   1  25
TORSDOF 10
ENDMDL
MODEL 3
REMARK VINA RESULT:    -8.265      4.841      6.504
REMARK INTER + INTRA:         -13.790
REMARK INTER:                 -11.248
REMARK INTRA:                  -2.542
REMARK CONF_INDEPENDENT:        2.983
REMARK UNBOUND:                -2.542
REMARK  10 active torsions:
REMARK  status: ('A' for Active; 'I' for Inactive)
REMARK    1  A    between atoms: O_2  and  C_3 
REMARK    2  A    between atoms: C_3  and  C_5 
REMARK    3  A    between atoms: C_8  and  C_9 
REMARK    4  A    between atoms: C_9  and  C_10 
REMARK    5  A    between atoms: C_16  and  O_17 
REMARK    6  A    between atoms: C_18  and  C_19 
REMARK    7  A    between atoms: C_19  and  N_20 
REMARK    8  A    between atoms: N_23  and  C_24 
REMARK    9  A    between atoms: C_24  and  C_25 
REMARK   10  A    between atoms: C_25  and  O_26 
ROOT
ATOM      1  C   UNL d   1      27.686 -14.634   2.210  0.00  0.00     0.118 C 
ATOM      2  O   UNL d   1      27.838 -13.225   2.015  0.00  0.00    -0.326 OA
ATOM      3  C   UNL d   1      28.380 -12.709   3.131  0.00  0.00     0.153 C 
ATOM      4  C   UNL d   1      27.526 -12.846   4.147  0.00  0.00     0.106 C 
ATOM      5  C   UNL d   1      27.779 -11.708   4.871  0.00  0.00    -0.001 C 
ATOM      6  C   UNL d   1      29.093 -11.434   5.235  0.00  0.00     0.034 C 
ATOM      7  C   UNL d   1      30.025 -12.299   4.687  0.00  0.00     0.072 C 
ATOM      8  C   UNL d   1      29.673 -13.022   3.560  0.00  0.00     0.018 C 
ATOM      9  C   UNL d   1      27.847 -14.377   4.087  0.00  0.00     0.200 C 
ATOM     10  O   UNL d   1      28.353 -15.177   4.867  0.00  0.00    -0.289 OA
ENDROOT
BRANCH   8  11
ATOM     11  C   UNL d   1      30.271 -14.480   3.339  0.00  0.00     0.275 C 
BRANCH  11  12
ATOM     12  N   UNL d   1      31.042 -14.821   1.793  0.00  0.00    -0.064 N 
ATOM     13  C   UNL d   1      31.651 -13.400   0.384  0.00  0.00     0.254 C 
ATOM     14  C   UNL d   1      33.504 -13.329  -0.031  0.00  0.00     0.144 C 
ATOM     15  N   UNL d   1      34.518 -14.044   1.405  0.00  0.00    -0.407 N 
ATOM     16  C   UNL d   1      33.813 -15.713   2.325  0.00  0.00     0.144 C 
ATOM     17  C   UNL d   1      32.319 -15.894   2.853  0.00  0.00     0.254 C 
ATOM     18  H   UNL d   1      30.534 -15.531   1.257  0.00  0.00     0.280 HD
BRANCH  15  19
ATOM     19  C   UNL d   1      35.216 -13.038   2.193  0.00  0.00     0.143 C 
BRANCH  19  20
ATOM     20  C   UNL d   1      34.306 -12.267   3.052  0.00  0.00     0.183 C 
BRANCH  20  21
ATOM     21  O   UNL d   1      33.227 -13.164   3.228  0.00  0.00    -0.399 OA
ATOM     22  H   UNL d   1      32.986 -13.106   4.176  0.00  0.00     0.209 HD
ENDBRANCH  20  21
ENDBRANCH  19  20
ENDBRANCH  15  19
ENDBRANCH  11  12
ENDBRANCH   8  11
BRANCH   7  23
ATOM     23  O   UNL d   1      31.198 -12.577   5.275  0.00  0.00    -0.360 OA
ATOM     24  H   UNL d   1      31.631 -13.270   4.749  0.00  0.00     0.217 HD
ENDBRANCH   7  23
BRANCH   1  25
ATOM     25  C   UNL d   1      27.653 -15.889   0.966  0.00  0.00     0.052 C 
BRANCH  25  26
ATOM     26  C   UNL d   1      25.991 -16.257  -0.037  0.00  0.00    -0.033 C 
ATOM     27  C   UNL d   1      25.364 -15.659  -1.038  0.00  0.00     0.012 C 
ATOM     28  C   UNL d   1      24.132 -16.357  -1.293  0.00  0.00     0.018 C 
ATOM     29  C   UNL d   1      23.706 -17.772  -0.885  0.00  0.00     0.039 C 
ATOM     30  C   UNL d   1      24.414 -18.654  -0.205  0.00  0.00     0.018 C 
ATOM     31  C   UNL d   1      25.344 -17.840   0.207  0.00  0.00     0.012 C 
BRANCH  29  32
ATOM     32  C   UNL d   1      22.482 -18.394  -1.270  0.00  0.00     0.292 C 
ATOM     33  O   UNL d   1      22.513 -19.324  -2.045  0.00  0.00    -0.259 OA
BRANCH  32  34
ATOM     34  O   UNL d   1      21.440 -17.874  -0.560  0.00  0.00    -0.323 OA
ATOM     35  C   UNL d   1      20.246 -18.586  -0.810  0.00  0.00     0.213 C 
ENDBRANCH  32  34
ENDBRANCH  29  32
ENDBRANCH  25  26
ENDBRANCH   1  25
TORSDOF 10
ENDMDL
MODEL 4
REMARK VINA RESULT:    -8.128      1.558      2.444
REMARK INTER + INTRA:         -13.942
REMARK INTER:                 -11.111
REMARK INTRA:                  -2.831
REMARK CONF_INDEPENDENT:        2.983
REMARK UNBOUND:                -2.831
REMARK  10 active torsions:
REMARK  status: ('A' for Active; 'I' for Inactive)
REMARK    1  A    between atoms: O_2  and  C_3 
REMARK    2  A    between atoms: C_3  and  C_5 
REMARK    3  A    between atoms: C_8  and  C_9 
REMARK    4  A    between atoms: C_9  and  C_10 
REMARK    5  A    between atoms: C_16  and  O_17 
REMARK    6  A    between atoms: C_18  and  C_19 
REMARK    7  A    between atoms: C_19  and  N_20 
REMARK    8  A    between atoms: N_23  and  C_24 
REMARK    9  A    between atoms: C_24  and  C_25 
REMARK   10  A    between atoms: C_25  and  O_26 
ROOT
ATOM      1  C   UNL d   1      26.014 -14.975  -1.957  0.00  0.00     0.118 C 
ATOM      2  O   UNL d   1      25.238 -14.936  -3.157  0.00  0.00    -0.326 OA
ATOM      3  C   UNL d   1      25.879 -14.150  -4.039  0.00  0.00     0.153 C 
ATOM      4  C   UNL d   1      25.907 -12.896  -3.583  0.00  0.00     0.106 C 
ATOM      5  C   UNL d   1      25.814 -12.179  -4.749  0.00  0.00    -0.001 C 
ATOM      6  C   UNL d   1      26.716 -12.457  -5.770  0.00  0.00     0.034 C 
ATOM      7  C   UNL d   1      27.530 -13.550  -5.525  0.00  0.00     0.072 C 
ATOM      8  C   UNL d   1      27.124 -14.478  -4.582  0.00  0.00     0.018 C 
ATOM      9  C   UNL d   1      26.934 -13.407  -2.517  0.00  0.00     0.200 C 
ATOM     10  O   UNL d   1      28.106 -13.150  -2.266  0.00  0.00    -0.289 OA
ENDROOT
BRANCH   8  11
ATOM     11  C   UNL d   1      28.211 -15.248  -3.712  0.00  0.00     0.275 C 
BRANCH  11  12
ATOM     12  N   UNL d   1      29.325 -16.319  -4.556  0.00  0.00    -0.064 N 
ATOM     13  C   UNL d   1      29.970 -16.107  -6.535  0.00  0.00     0.254 C 
ATOM     14  C   UNL d   1      31.833 -15.859  -6.817  0.00  0.00     0.144 C 
ATOM     15  N   UNL d   1      32.636 -15.142  -5.253  0.00  0.00    -0.407 N 
ATOM     16  C   UNL d   1      32.036 -15.878  -3.457  0.00  0.00     0.144 C 
ATOM     17  C   UNL d   1      30.515 -16.036  -3.005  0.00  0.00     0.254 C 
ATOM     18  H   UNL d   1      29.056 -17.303  -4.464  0.00  0.00     0.280 HD
BRANCH  15  19
ATOM     19  C   UNL d   1      32.989 -13.734  -5.365  0.00  0.00     0.143 C 
BRANCH  19  20
ATOM     20  C   UNL d   1      31.808 -12.868  -5.484  0.00  0.00     0.183 C 
BRANCH  20  21
ATOM     21  O   UNL d   1      30.893 -13.482  -4.597  0.00  0.00    -0.399 OA
ATOM     22  H   UNL d   1      30.568 -14.280  -5.063  0.00  0.00     0.209 HD
ENDBRANCH  20  21
ENDBRANCH  19  20
ENDBRANCH  15  19
ENDBRANCH  11  12
ENDBRANCH   8  11
BRANCH   7  23
ATOM     23  O   UNL d   1      28.758 -13.678  -6.050  0.00  0.00    -0.360 OA
ATOM     24  H   UNL d   1      29.233 -12.847  -5.887  0.00  0.00     0.217 HD
ENDBRANCH   7  23
BRANCH   1  25
ATOM     25  C   UNL d   1      26.053 -16.264  -0.749  0.00  0.00     0.052 C 
BRANCH  25  26
ATOM     26  C   UNL d   1      24.589 -17.587  -0.654  0.00  0.00    -0.033 C 
ATOM     27  C   UNL d   1      24.492 -18.830  -0.208  0.00  0.00     0.012 C 
ATOM     28  C   UNL d   1      23.168 -19.318  -0.485  0.00  0.00     0.018 C 
ATOM     29  C   UNL d   1      21.887 -18.543  -0.811  0.00  0.00     0.039 C 
ATOM     30  C   UNL d   1      21.746 -17.233  -0.896  0.00  0.00     0.018 C 
ATOM     31  C   UNL d   1      23.013 -16.930  -0.922  0.00  0.00     0.012 C 
BRANCH  29  32
ATOM     32  C   UNL d   1      20.601 -19.134  -0.985  0.00  0.00     0.292 C 
ATOM     33  O   UNL d   1      20.351 -19.701  -2.026  0.00  0.00    -0.259 OA
BRANCH  32  34
ATOM     34  O   UNL d   1      19.879 -19.054   0.169  0.00  0.00    -0.323 OA
ATOM     35  C   UNL d   1      19.231 -20.276   0.452  0.00  0.00     0.213 C 
ENDBRANCH  32  34
ENDBRANCH  29  32
ENDBRANCH  25  26
ENDBRANCH   1  25
TORSDOF 10
ENDMDL
MODEL 5
REMARK VINA RESULT:    -8.126      1.003      1.209
REMARK INTER + INTRA:         -14.187
REMARK INTER:                 -11.109
REMARK INTRA:                  -3.078
REMARK CONF_INDEPENDENT:        2.983
REMARK UNBOUND:                -3.078
REMARK  10 active torsions:
REMARK  status: ('A' for Active; 'I' for Inactive)
REMARK    1  A    between atoms: O_2  and  C_3 
REMARK    2  A    between atoms: C_3  and  C_5 
REMARK    3  A    between atoms: C_8  and  C_9 
REMARK    4  A    between atoms: C_9  and  C_10 
REMARK    5  A    between atoms: C_16  and  O_17 
REMARK    6  A    between atoms: C_18  and  C_19 
REMARK    7  A    between atoms: C_19  and  N_20 
REMARK    8  A    between atoms: N_23  and  C_24 
REMARK    9  A    between atoms: C_24  and  C_25 
REMARK   10  A    between atoms: C_25  and  O_26 
ROOT
ATOM      1  C   UNL d   1      26.028 -15.041  -1.887  0.00  0.00     0.118 C 
ATOM      2  O   UNL d   1      25.164 -14.916  -3.019  0.00  0.00    -0.326 OA
ATOM      3  C   UNL d   1      25.813 -14.207  -3.958  0.00  0.00     0.153 C 
ATOM      4  C   UNL d   1      26.018 -12.964  -3.518  0.00  0.00     0.106 C 
ATOM      5  C   UNL d   1      25.909 -12.242  -4.680  0.00  0.00    -0.001 C 
ATOM      6  C   UNL d   1      26.687 -12.620  -5.770  0.00  0.00     0.034 C 
ATOM      7  C   UNL d   1      27.393 -13.796  -5.581  0.00  0.00     0.072 C 
ATOM      8  C   UNL d   1      26.965 -14.673  -4.598  0.00  0.00     0.018 C 
ATOM      9  C   UNL d   1      27.066 -13.586  -2.536  0.00  0.00     0.200 C 
ATOM     10  O   UNL d   1      28.277 -13.461  -2.384  0.00  0.00    -0.289 OA
ENDROOT
BRANCH   8  11
ATOM     11  C   UNL d   1      28.028 -15.558  -3.813  0.00  0.00     0.275 C 
BRANCH  11  12
ATOM     12  N   UNL d   1      29.734 -15.261  -4.132  0.00  0.00    -0.064 N 
ATOM     13  C   UNL d   1      30.878 -13.702  -3.334  0.00  0.00     0.254 C 
ATOM     14  C   UNL d   1      32.365 -14.184  -2.252  0.00  0.00     0.144 C 
ATOM     15  N   UNL d   1      32.103 -15.918  -1.526  0.00  0.00    -0.407 N 
ATOM     16  C   UNL d   1      31.307 -17.342  -2.736  0.00  0.00     0.144 C 
ATOM     17  C   UNL d   1      29.992 -17.151  -3.617  0.00  0.00     0.254 C 
ATOM     18  H   UNL d   1      29.945 -15.264  -5.134  0.00  0.00     0.280 HD
BRANCH  15  19
ATOM     19  C   UNL d   1      31.769 -15.920  -0.108  0.00  0.00     0.143 C 
BRANCH  19  20
ATOM     20  C   UNL d   1      30.365 -15.559   0.137  0.00  0.00     0.183 C 
BRANCH  20  21
ATOM     21  O   UNL d   1      29.846 -15.461  -1.175  0.00  0.00    -0.399 OA
ATOM     22  H   UNL d   1      29.593 -14.521  -1.290  0.00  0.00     0.209 HD
ENDBRANCH  20  21
ENDBRANCH  19  20
ENDBRANCH  15  19
ENDBRANCH  11  12
ENDBRANCH   8  11
BRANCH   7  23
ATOM     23  O   UNL d   1      28.550 -14.061  -6.204  0.00  0.00    -0.360 OA
ATOM     24  H   UNL d   1      28.339 -14.302  -7.121  0.00  0.00     0.217 HD
ENDBRANCH   7  23
BRANCH   1  25
ATOM     25  C   UNL d   1      26.023 -16.326  -0.673  0.00  0.00     0.052 C 
BRANCH  25  26
ATOM     26  C   UNL d   1      24.533 -17.621  -0.597  0.00  0.00    -0.033 C 
ATOM     27  C   UNL d   1      24.405 -18.859  -0.145  0.00  0.00     0.012 C 
ATOM     28  C   UNL d   1      23.077 -19.325  -0.444  0.00  0.00     0.018 C 
ATOM     29  C   UNL d   1      21.817 -18.528  -0.799  0.00  0.00     0.039 C 
ATOM     30  C   UNL d   1      21.702 -17.216  -0.895  0.00  0.00     0.018 C 
ATOM     31  C   UNL d   1      22.975 -16.937  -0.899  0.00  0.00     0.012 C 
BRANCH  29  32
ATOM     32  C   UNL d   1      20.524 -19.097  -0.994  0.00  0.00     0.292 C 
ATOM     33  O   UNL d   1      20.296 -19.701  -2.018  0.00  0.00    -0.259 OA
BRANCH  32  34
ATOM     34  O   UNL d   1      19.766 -18.952   0.131  0.00  0.00    -0.323 OA
ATOM     35  C   UNL d   1      19.981 -20.018   1.032  0.00  0.00     0.213 C 
ENDBRANCH  32  34
ENDBRANCH  29  32
ENDBRANCH  25  26
ENDBRANCH   1  25
TORSDOF 10
ENDMDL
MODEL 6
REMARK VINA RESULT:    -8.030      6.240      7.512
REMARK INTER + INTRA:         -13.695
REMARK INTER:                 -11.013
REMARK INTRA:                  -2.682
REMARK CONF_INDEPENDENT:        2.983
REMARK UNBOUND:                -2.682
REMARK  10 active torsions:
REMARK  status: ('A' for Active; 'I' for Inactive)
REMARK    1  A    between atoms: O_2  and  C_3 
REMARK    2  A    between atoms: C_3  and  C_5 
REMARK    3  A    between atoms: C_8  and  C_9 
REMARK    4  A    between atoms: C_9  and  C_10 
REMARK    5  A    between atoms: C_16  and  O_17 
REMARK    6  A    between atoms: C_18  and  C_19 
REMARK    7  A    between atoms: C_19  and  N_20 
REMARK    8  A    between atoms: N_23  and  C_24 
REMARK    9  A    between atoms: C_24  and  C_25 
REMARK   10  A    between atoms: C_25  and  O_26 
ROOT
ATOM      1  C   UNL d   1      27.501 -13.940   1.257  0.00  0.00     0.118 C 
ATOM      2  O   UNL d   1      27.878 -12.647   0.775  0.00  0.00    -0.326 OA
ATOM      3  C   UNL d   1      27.900 -11.805   1.822  0.00  0.00     0.153 C 
ATOM      4  C   UNL d   1      26.665 -11.665   2.309  0.00  0.00     0.106 C 
ATOM      5  C   UNL d   1      26.680 -10.356   2.719  0.00  0.00    -0.001 C 
ATOM      6  C   UNL d   1      27.702  -9.939   3.566  0.00  0.00     0.034 C 
ATOM      7  C   UNL d   1      28.680 -10.894   3.786  0.00  0.00     0.072 C 
ATOM      8  C   UNL d   1      28.808 -11.930   2.876  0.00  0.00     0.018 C 
ATOM      9  C   UNL d   1      26.809 -13.133   2.834  0.00  0.00     0.200 C 
ATOM     10  O   UNL d   1      26.809 -13.648   3.948  0.00  0.00    -0.289 OA
ENDROOT
BRANCH   8  11
ATOM     11  C   UNL d   1      29.278 -13.365   3.377  0.00  0.00     0.275 C 
BRANCH  11  12
ATOM     12  N   UNL d   1      30.755 -13.455   4.333  0.00  0.00    -0.064 N 
ATOM     13  C   UNL d   1      31.845 -11.826   5.063  0.00  0.00     0.254 C 
ATOM     14  C   UNL d   1      32.019 -11.675   6.950  0.00  0.00     0.144 C 
ATOM     15  N   UNL d   1      30.599 -12.598   7.808  0.00  0.00    -0.407 N 
ATOM     16  C   UNL d   1      30.039 -14.395   7.045  0.00  0.00     0.144 C 
ATOM     17  C   UNL d   1      29.727 -14.669   5.505  0.00  0.00     0.254 C 
ATOM     18  H   UNL d   1      31.450 -14.076   3.910  0.00  0.00     0.280 HD
BRANCH  15  19
ATOM     19  C   UNL d   1      29.588 -11.721   8.382  0.00  0.00     0.143 C 
BRANCH  19  20
ATOM     20  C   UNL d   1      28.223 -12.131   8.027  0.00  0.00     0.183 C 
BRANCH  20  21
ATOM     21  O   UNL d   1      27.935 -11.297   6.921  0.00  0.00    -0.399 OA
ATOM     22  H   UNL d   1      28.381 -11.711   6.154  0.00  0.00     0.209 HD
ENDBRANCH  20  21
ENDBRANCH  19  20
ENDBRANCH  15  19
ENDBRANCH  11  12
ENDBRANCH   8  11
BRANCH   7  23
ATOM     23  O   UNL d   1      29.414 -10.943   4.907  0.00  0.00    -0.360 OA
ATOM     24  H   UNL d   1      29.088 -10.246   5.500  0.00  0.00     0.217 HD
ENDBRANCH   7  23
BRANCH   1  25
ATOM     25  C   UNL d   1      27.906 -15.507   0.548  0.00  0.00     0.052 C 
BRANCH  25  26
ATOM     26  C   UNL d   1      26.492 -16.844   0.210  0.00  0.00    -0.033 C 
ATOM     27  C   UNL d   1      26.285 -18.091   0.604  0.00  0.00     0.012 C 
ATOM     28  C   UNL d   1      25.103 -18.591  -0.048  0.00  0.00     0.018 C 
ATOM     29  C   UNL d   1      23.963 -17.825  -0.729  0.00  0.00     0.039 C 
ATOM     30  C   UNL d   1      23.838 -16.516  -0.847  0.00  0.00     0.018 C 
ATOM     31  C   UNL d   1      25.055 -16.201  -0.502  0.00  0.00     0.012 C 
BRANCH  29  32
ATOM     32  C   UNL d   1      22.791 -18.428  -1.271  0.00  0.00     0.292 C 
ATOM     33  O   UNL d   1      22.909 -19.323  -2.079  0.00  0.00    -0.259 OA
BRANCH  32  34
ATOM     34  O   UNL d   1      21.676 -17.939  -0.657  0.00  0.00    -0.323 OA
ATOM     35  C   UNL d   1      20.710 -18.952  -0.470  0.00  0.00     0.213 C 
ENDBRANCH  32  34
ENDBRANCH  29  32
ENDBRANCH  25  26
ENDBRANCH   1  25
TORSDOF 10
ENDMDL
MODEL 7
REMARK VINA RESULT:    -8.017      2.972      4.827
REMARK INTER + INTRA:         -13.904
REMARK INTER:                 -11.000
REMARK INTRA:                  -2.905
REMARK CONF_INDEPENDENT:        2.983
REMARK UNBOUND:                -2.905
REMARK  10 active torsions:
REMARK  status: ('A' for Active; 'I' for Inactive)
REMARK    1  A    between atoms: O_2  and  C_3 
REMARK    2  A    between atoms: C_3  and  C_5 
REMARK    3  A    between atoms: C_8  and  C_9 
REMARK    4  A    between atoms: C_9  and  C_10 
REMARK    5  A    between atoms: C_16  and  O_17 
REMARK    6  A    between atoms: C_18  and  C_19 
REMARK    7  A    between atoms: C_19  and  N_20 
REMARK    8  A    between atoms: N_23  and  C_24 
REMARK    9  A    between atoms: C_24  and  C_25 
REMARK   10  A    between atoms: C_25  and  O_26 
ROOT
ATOM      1  C   UNL d   1      26.921 -15.384  -2.862  0.00  0.00     0.118 C 
ATOM      2  O   UNL d   1      28.222 -14.969  -3.286  0.00  0.00    -0.326 OA
ATOM      3  C   UNL d   1      28.091 -14.337  -4.465  0.00  0.00     0.153 C 
ATOM      4  C   UNL d   1      27.665 -15.200  -5.390  0.00  0.00     0.106 C 
ATOM      5  C   UNL d   1      28.305 -14.736  -6.511  0.00  0.00    -0.001 C 
ATOM      6  C   UNL d   1      28.163 -13.392  -6.845  0.00  0.00     0.034 C 
ATOM      7  C   UNL d   1      27.486 -12.642  -5.899  0.00  0.00     0.072 C 
ATOM      8  C   UNL d   1      27.407 -13.127  -4.604  0.00  0.00     0.018 C 
ATOM      9  C   UNL d   1      26.289 -15.174  -4.644  0.00  0.00     0.200 C 
ATOM     10  O   UNL d   1      25.154 -14.828  -4.953  0.00  0.00    -0.289 OA
ENDROOT
BRANCH   8  11
ATOM     11  C   UNL d   1      26.120 -12.815  -3.722  0.00  0.00     0.275 C 
BRANCH  11  12
ATOM     12  N   UNL d   1      26.300 -11.683  -2.385  0.00  0.00    -0.064 N 
ATOM     13  C   UNL d   1      28.048 -11.347  -1.287  0.00  0.00     0.254 C 
ATOM     14  C   UNL d   1      28.781  -9.594  -1.339  0.00  0.00     0.144 C 
ATOM     15  N   UNL d   1      28.211  -8.699  -2.913  0.00  0.00    -0.407 N 
ATOM     16  C   UNL d   1      26.280  -8.940  -3.494  0.00  0.00     0.144 C 
ATOM     17  C   UNL d   1      25.543 -10.347  -3.629  0.00  0.00     0.254 C 
ATOM     18  H   UNL d   1      25.560 -11.792  -1.686  0.00  0.00     0.280 HD
BRANCH  15  19
ATOM     19  C   UNL d   1      29.249  -8.570  -3.926  0.00  0.00     0.143 C 
BRANCH  19  20
ATOM     20  C   UNL d   1      29.718  -9.873  -4.418  0.00  0.00     0.183 C 
BRANCH  20  21
ATOM     21  O   UNL d   1      28.886 -10.088  -5.542  0.00  0.00    -0.399 OA
ATOM     22  H   UNL d   1      27.968 -10.033  -5.206  0.00  0.00     0.209 HD
ENDBRANCH  20  21
ENDBRANCH  19  20
ENDBRANCH  15  19
ENDBRANCH  11  12
ENDBRANCH   8  11
BRANCH   7  23
ATOM     23  O   UNL d   1      26.783 -11.542  -6.206  0.00  0.00    -0.360 OA
ATOM     24  H   UNL d   1      27.381 -10.935  -6.672  0.00  0.00     0.217 HD
ENDBRANCH   7  23
BRANCH   1  25
ATOM     25  C   UNL d   1      26.371 -15.656  -1.205  0.00  0.00     0.052 C 
BRANCH  25  26
ATOM     26  C   UNL d   1      25.046 -17.068  -0.812  0.00  0.00    -0.033 C 
ATOM     27  C   UNL d   1      25.098 -18.240  -0.198  0.00  0.00     0.012 C 
ATOM     28  C   UNL d   1      23.808 -18.869  -0.295  0.00  0.00     0.018 C 
ATOM     29  C   UNL d   1      22.440 -18.254  -0.611  0.00  0.00     0.039 C 
ATOM     30  C   UNL d   1      22.173 -16.985  -0.857  0.00  0.00     0.018 C 
ATOM     31  C   UNL d   1      23.402 -16.586  -1.030  0.00  0.00     0.012 C 
BRANCH  29  32
ATOM     32  C   UNL d   1      21.206 -18.967  -0.596  0.00  0.00     0.292 C 
ATOM     33  O   UNL d   1      20.717 -19.319  -1.647  0.00  0.00    -0.259 OA
BRANCH  32  34
ATOM     34  O   UNL d   1      20.833 -19.246   0.685  0.00  0.00    -0.323 OA
ATOM     35  C   UNL d   1      19.723 -20.119   0.715  0.00  0.00     0.213 C 
ENDBRANCH  32  34
ENDBRANCH  29  32
ENDBRANCH  25  26
ENDBRANCH   1  25
TORSDOF 10
ENDMDL
MODEL 8
REMARK VINA RESULT:    -7.930      3.718      5.506
REMARK INTER + INTRA:         -13.658
REMARK INTER:                 -10.913
REMARK INTRA:                  -2.745
REMARK CONF_INDEPENDENT:        2.983
REMARK UNBOUND:                -2.745
REMARK  10 active torsions:
REMARK  status: ('A' for Active; 'I' for Inactive)
REMARK    1  A    between atoms: O_2  and  C_3 
REMARK    2  A    between atoms: C_3  and  C_5 
REMARK    3  A    between atoms: C_8  and  C_9 
REMARK    4  A    between atoms: C_9  and  C_10 
REMARK    5  A    between atoms: C_16  and  O_17 
REMARK    6  A    between atoms: C_18  and  C_19 
REMARK    7  A    between atoms: C_19  and  N_20 
REMARK    8  A    between atoms: N_23  and  C_24 
REMARK    9  A    between atoms: C_24  and  C_25 
REMARK   10  A    between atoms: C_25  and  O_26 
ROOT
ATOM      1  C   UNL d   1      27.561 -16.730  -0.649  0.00  0.00     0.118 C 
ATOM      2  O   UNL d   1      28.870 -17.213  -0.961  0.00  0.00    -0.326 OA
ATOM      3  C   UNL d   1      29.674 -16.149  -1.126  0.00  0.00     0.153 C 
ATOM      4  C   UNL d   1      29.280 -15.450  -2.192  0.00  0.00     0.106 C 
ATOM      5  C   UNL d   1      30.479 -14.992  -2.677  0.00  0.00    -0.001 C 
ATOM      6  C   UNL d   1      31.329 -14.316  -1.808  0.00  0.00     0.034 C 
ATOM      7  C   UNL d   1      30.904 -14.311  -0.490  0.00  0.00     0.072 C 
ATOM      8  C   UNL d   1      29.995 -15.273  -0.085  0.00  0.00     0.018 C 
ATOM      9  C   UNL d   1      28.041 -15.023  -1.336  0.00  0.00     0.200 C 
ATOM     10  O   UNL d   1      27.618 -13.950  -0.918  0.00  0.00    -0.289 OA
ENDROOT
BRANCH   8  11
ATOM     11  C   UNL d   1      28.927 -14.925   1.041  0.00  0.00     0.275 C 
BRANCH  11  12
ATOM     12  N   UNL d   1      29.514 -14.715   2.688  0.00  0.00    -0.064 N 
ATOM     13  C   UNL d   1      31.350 -13.877   3.239  0.00  0.00     0.254 C 
ATOM     14  C   UNL d   1      31.301 -12.300   4.298  0.00  0.00     0.144 C 
ATOM     15  N   UNL d   1      29.646 -11.403   4.048  0.00  0.00    -0.407 N 
ATOM     16  C   UNL d   1      27.961 -12.533   3.946  0.00  0.00     0.144 C 
ATOM     17  C   UNL d   1      27.785 -13.816   3.015  0.00  0.00     0.254 C 
ATOM     18  H   UNL d   1      29.435 -15.575   3.238  0.00  0.00     0.280 HD
BRANCH  15  19
ATOM     19  C   UNL d   1      29.746 -10.197   3.238  0.00  0.00     0.143 C 
BRANCH  19  20
ATOM     20  C   UNL d   1      30.191 -10.479   1.866  0.00  0.00     0.183 C 
BRANCH  20  21
ATOM     21  O   UNL d   1      29.500 -11.677   1.565  0.00  0.00    -0.399 OA
ATOM     22  H   UNL d   1      30.179 -12.382   1.572  0.00  0.00     0.209 HD
ENDBRANCH  20  21
ENDBRANCH  19  20
ENDBRANCH  15  19
ENDBRANCH  11  12
ENDBRANCH   8  11
BRANCH   7  23
ATOM     23  O   UNL d   1      31.220 -13.336   0.375  0.00  0.00    -0.360 OA
ATOM     24  H   UNL d   1      30.613 -12.595   0.214  0.00  0.00     0.217 HD
ENDBRANCH   7  23
BRANCH   1  25
ATOM     25  C   UNL d   1      26.302 -17.567   0.267  0.00  0.00     0.052 C 
BRANCH  25  26
ATOM     26  C   UNL d   1      24.408 -17.422  -0.278  0.00  0.00    -0.033 C 
ATOM     27  C   UNL d   1      23.698 -16.508  -0.919  0.00  0.00     0.012 C 
ATOM     28  C   UNL d   1      22.322 -16.929  -0.950  0.00  0.00     0.018 C 
ATOM     29  C   UNL d   1      21.721 -18.322  -0.732  0.00  0.00     0.039 C 
ATOM     30  C   UNL d   1      22.371 -19.441  -0.472  0.00  0.00     0.018 C 
ATOM     31  C   UNL d   1      23.522 -18.902  -0.185  0.00  0.00     0.012 C 
BRANCH  29  32
ATOM     32  C   UNL d   1      20.338 -18.640  -0.872  0.00  0.00     0.292 C 
ATOM     33  O   UNL d   1      19.527 -17.741  -0.898  0.00  0.00    -0.259 OA
BRANCH  32  34
ATOM     34  O   UNL d   1      20.176 -19.977  -1.083  0.00  0.00    -0.323 OA
ATOM     35  C   UNL d   1      19.336 -20.551  -0.103  0.00  0.00     0.213 C 
ENDBRANCH  32  34
ENDBRANCH  29  32
ENDBRANCH  25  26
ENDBRANCH   1  25
TORSDOF 10
ENDMDL
MODEL 9
REMARK VINA RESULT:    -7.526      2.702      4.602
REMARK INTER + INTRA:         -13.816
REMARK INTER:                 -10.509
REMARK INTRA:                  -3.307
REMARK CONF_INDEPENDENT:        2.983
REMARK UNBOUND:                -3.307
REMARK  10 active torsions:
REMARK  status: ('A' for Active; 'I' for Inactive)
REMARK    1  A    between atoms: O_2  and  C_3 
REMARK    2  A    between atoms: C_3  and  C_5 
REMARK    3  A    between atoms: C_8  and  C_9 
REMARK    4  A    between atoms: C_9  and  C_10 
REMARK    5  A    between atoms: C_16  and  O_17 
REMARK    6  A    between atoms: C_18  and  C_19 
REMARK    7  A    between atoms: C_19  and  N_20 
REMARK    8  A    between atoms: N_23  and  C_24 
REMARK    9  A    between atoms: C_24  and  C_25 
REMARK   10  A    between atoms: C_25  and  O_26 
ROOT
ATOM      1  C   UNL d   1      27.742 -15.868   0.884  0.00  0.00     0.118 C 
ATOM      2  O   UNL d   1      27.455 -15.113   2.065  0.00  0.00    -0.326 OA
ATOM      3  C   UNL d   1      27.861 -13.849   1.857  0.00  0.00     0.153 C 
ATOM      4  C   UNL d   1      29.189 -13.822   1.722  0.00  0.00     0.106 C 
ATOM      5  C   UNL d   1      29.497 -12.615   2.297  0.00  0.00    -0.001 C 
ATOM      6  C   UNL d   1      28.834 -11.479   1.845  0.00  0.00     0.034 C 
ATOM      7  C   UNL d   1      27.817 -11.738   0.941  0.00  0.00     0.072 C 
ATOM      8  C   UNL d   1      27.277 -13.013   0.902  0.00  0.00     0.018 C 
ATOM      9  C   UNL d   1      28.967 -14.519   0.338  0.00  0.00     0.200 C 
ATOM     10  O   UNL d   1      29.197 -14.206  -0.825  0.00  0.00    -0.289 OA
ENDROOT
BRANCH   8  11
ATOM     11  C   UNL d   1      26.744 -13.602  -0.477  0.00  0.00     0.275 C 
BRANCH  11  12
ATOM     12  N   UNL d   1      26.955 -12.618  -1.922  0.00  0.00    -0.064 N 
ATOM     13  C   UNL d   1      28.766 -12.241  -2.898  0.00  0.00     0.254 C 
ATOM     14  C   UNL d   1      28.922 -12.836  -4.696  0.00  0.00     0.144 C 
ATOM     15  N   UNL d   1      27.708 -14.260  -5.016  0.00  0.00    -0.407 N 
ATOM     16  C   UNL d   1      25.844 -14.113  -4.221  0.00  0.00     0.144 C 
ATOM     17  C   UNL d   1      25.534 -13.749  -2.700  0.00  0.00     0.254 C 
ATOM     18  H   UNL d   1      26.500 -11.704  -1.835  0.00  0.00     0.280 HD
BRANCH  15  19
ATOM     19  C   UNL d   1      28.343 -15.567  -5.106  0.00  0.00     0.143 C 
BRANCH  19  20
ATOM     20  C   UNL d   1      29.027 -15.945  -3.861  0.00  0.00     0.183 C 
BRANCH  20  21
ATOM     21  O   UNL d   1      27.998 -15.807  -2.899  0.00  0.00    -0.399 OA
ATOM     22  H   UNL d   1      28.298 -15.099  -2.293  0.00  0.00     0.209 HD
ENDBRANCH  20  21
ENDBRANCH  19  20
ENDBRANCH  15  19
ENDBRANCH  11  12
ENDBRANCH   8  11
BRANCH   7  23
ATOM     23  O   UNL d   1      27.428 -10.858   0.006  0.00  0.00    -0.360 OA
ATOM     24  H   UNL d   1      27.949 -10.049   0.135  0.00  0.00     0.217 HD
ENDBRANCH   7  23
BRANCH   1  25
ATOM     25  C   UNL d   1      26.912 -17.319   0.313  0.00  0.00     0.052 C 
BRANCH  25  26
ATOM     26  C   UNL d   1      25.016 -17.234  -0.234  0.00  0.00    -0.033 C 
ATOM     27  C   UNL d   1      24.268 -16.325  -0.842  0.00  0.00     0.012 C 
ATOM     28  C   UNL d   1      22.912 -16.804  -0.896  0.00  0.00     0.018 C 
ATOM     29  C   UNL d   1      22.370 -18.228  -0.737  0.00  0.00     0.039 C 
ATOM     30  C   UNL d   1      23.067 -19.329  -0.519  0.00  0.00     0.018 C 
ATOM     31  C   UNL d   1      24.193 -18.753  -0.204  0.00  0.00     0.012 C 
BRANCH  29  32
ATOM     32  C   UNL d   1      21.003 -18.599  -0.896  0.00  0.00     0.292 C 
ATOM     33  O   UNL d   1      20.207 -17.767  -1.270  0.00  0.00    -0.259 OA
BRANCH  32  34
ATOM     34  O   UNL d   1      20.847 -19.940  -0.699  0.00  0.00    -0.323 OA
ATOM     35  C   UNL d   1      19.930 -20.200   0.343  0.00  0.00     0.213 C 
ENDBRANCH  32  34
ENDBRANCH  29  32
ENDBRANCH  25  26
ENDBRANCH   1  25
TORSDOF 10
ENDMDL
