MODEL 1
REMARK VINA RESULT:    -7.866      0.000      0.000
REMARK INTER + INTRA:         -11.699
REMARK INTER:                  -9.954
REMARK INTRA:                  -1.745
REMARK CONF_INDEPENDENT:        2.088
REMARK UNBOUND:                -1.745
REMARK  7 active torsions:
REMARK  status: ('A' for Active; 'I' for Inactive)
REMARK    1  A    between atoms: C_2  and  N_3 
REMARK       I    between atoms: N_3  and  C_4 
REMARK    2  A    between atoms: C_6  and  C_4 
REMARK    3  A    between atoms: C_6  and  N_8 
REMARK       I    between atoms: N_8  and  C_9 
REMARK    4  A    between atoms: C_9  and  C_11 
REMARK    5  A    between atoms: C_13  and  N_14 
REMARK       I    between atoms: N_14  and  C_15 
REMARK    6  A    between atoms: C_15  and  C_17 
REMARK    7  A    between atoms: C_21  and  O_22 
ROOT
ATOM      1  C   UNL d   1      24.733 -16.416  -1.730  0.00  0.00     0.067 A 
ATOM      2  C   UNL d   1      23.446 -16.815  -1.270  0.00  0.00     0.049 A 
ATOM      3  C   UNL d   1      23.324 -17.738  -0.219  0.00  0.00     0.035 A 
ATOM      4  C   UNL d   1      24.516 -18.200   0.358  0.00  0.00     0.032 A 
ATOM      5  C   UNL d   1      25.778 -17.804  -0.083  0.00  0.00     0.040 A 
ATOM      6  C   UNL d   1      25.890 -16.922  -1.139  0.00  0.00     0.081 A 
ENDROOT
BRANCH   1   7
ATOM      7  C   UNL d   1      24.849 -15.372  -2.769  0.00  0.00     0.255 C 
ATOM      8  N   UNL d   1      25.839 -15.514  -3.721  0.00  0.00    -0.344 N 
ATOM      9  H   UNL d   1      26.571 -16.192  -3.531  0.00  0.00     0.163 HD
ATOM     10  O   UNL d   1      24.030 -14.450  -2.758  0.00  0.00    -0.268 OA
BRANCH   8  11
ATOM     11  C   UNL d   1      26.073 -14.533  -4.796  0.00  0.00     0.172 C 
ATOM     12  C   UNL d   1      26.097 -13.100  -4.248  0.00  0.00     0.042 C 
BRANCH  11  13
ATOM     13  C   UNL d   1      27.426 -14.819  -5.506  0.00  0.00     0.240 C 
ATOM     14  N   UNL d   1      27.864 -13.821  -6.350  0.00  0.00    -0.360 N 
ATOM     15  H   UNL d   1      27.222 -13.046  -6.532  0.00  0.00     0.162 HD
ATOM     16  O   UNL d   1      28.081 -15.842  -5.315  0.00  0.00    -0.271 OA
BRANCH  14  17
ATOM     17  C   UNL d   1      29.014 -13.987  -7.200  0.00  0.00     0.118 C 
ATOM     18  C   UNL d   1      29.306 -12.743  -8.020  0.00  0.00     0.026 C 
ENDBRANCH  14  17
ENDBRANCH  11  13
ENDBRANCH   8  11
ENDBRANCH   1   7
BRANCH   6  19
ATOM     19  O   UNL d   1      27.127 -16.541  -1.575  0.00  0.00    -0.360 OA
ATOM     20  H   UNL d   1      27.781 -16.726  -0.878  0.00  0.00     0.217 HD
ENDBRANCH   6  19
BRANCH   3  21
ATOM     21  N   UNL d   1      22.041 -18.185   0.247  0.00  0.00    -0.327 N 
ATOM     22  C   UNL d   1      21.155 -18.945  -0.517  0.00  0.00     0.221 C 
ATOM     23  O   UNL d   1      21.369 -19.325  -1.668  0.00  0.00    -0.273 OA
ATOM     24  H   UNL d   1      21.766 -17.919   1.186  0.00  0.00     0.169 HD
BRANCH  22  25
ATOM     25  C   UNL d   1      19.828 -19.325   0.124  0.00  0.00     0.098 C 
ATOM     26  C   UNL d   1      19.915 -20.783   0.602  0.00  0.00     0.014 C 
ENDBRANCH  22  25
ENDBRANCH   3  21
TORSDOF 7
ENDMDL
MODEL 2
REMARK VINA RESULT:    -7.624      1.474      1.666
REMARK INTER + INTRA:         -11.821
REMARK INTER:                  -9.712
REMARK INTRA:                  -2.109
REMARK CONF_INDEPENDENT:        2.088
REMARK UNBOUND:                -2.109
REMARK  7 active torsions:
REMARK  status: ('A' for Active; 'I' for Inactive)
REMARK    1  A    between atoms: C_2  and  N_3 
REMARK       I    between atoms: N_3  and  C_4 
REMARK    2  A    between atoms: C_6  and  C_4 
REMARK    3  A    between atoms: C_6  and  N_8 
REMARK       I    between atoms: N_8  and  C_9 
REMARK    4  A    between atoms: C_9  and  C_11 
REMARK    5  A    between atoms: C_13  and  N_14 
REMARK       I    between atoms: N_14  and  C_15 
REMARK    6  A    between atoms: C_15  and  C_17 
REMARK    7  A    between atoms: C_21  and  O_22 
ROOT
ATOM      1  C   UNL d   1      25.458 -16.556  -1.450  0.00  0.00     0.067 A 
ATOM      2  C   UNL d   1      24.069 -16.807  -1.258  0.00  0.00     0.049 A 
ATOM      3  C   UNL d   1      23.639 -17.660  -0.229  0.00  0.00     0.035 A 
ATOM      4  C   UNL d   1      24.633 -18.203   0.598  0.00  0.00     0.032 A 
ATOM      5  C   UNL d   1      25.993 -17.952   0.420  0.00  0.00     0.040 A 
ATOM      6  C   UNL d   1      26.410 -17.138  -0.614  0.00  0.00     0.081 A 
ENDROOT
BRANCH   1   7
ATOM      7  C   UNL d   1      25.892 -15.582  -2.472  0.00  0.00     0.255 C 
ATOM      8  N   UNL d   1      25.533 -15.817  -3.784  0.00  0.00    -0.344 N 
ATOM      9  H   UNL d   1      25.193 -16.747  -4.012  0.00  0.00     0.163 HD
ATOM     10  O   UNL d   1      26.517 -14.587  -2.096  0.00  0.00    -0.268 OA
BRANCH   8  11
ATOM     11  C   UNL d   1      25.921 -14.935  -4.899  0.00  0.00     0.172 C 
ATOM     12  C   UNL d   1      25.781 -13.456  -4.515  0.00  0.00     0.042 C 
BRANCH  11  13
ATOM     13  C   UNL d   1      27.395 -15.205  -5.316  0.00  0.00     0.240 C 
ATOM     14  N   UNL d   1      28.234 -15.575  -4.287  0.00  0.00    -0.360 N 
ATOM     15  H   UNL d   1      27.860 -15.523  -3.337  0.00  0.00     0.162 HD
ATOM     16  O   UNL d   1      27.787 -15.128  -6.480  0.00  0.00    -0.271 OA
BRANCH  14  17
ATOM     17  C   UNL d   1      29.655 -15.712  -4.471  0.00  0.00     0.118 C 
ATOM     18  C   UNL d   1      30.020 -17.014  -5.163  0.00  0.00     0.026 C 
ENDBRANCH  14  17
ENDBRANCH  11  13
ENDBRANCH   8  11
ENDBRANCH   1   7
BRANCH   6  19
ATOM     19  O   UNL d   1      27.742 -16.899  -0.792  0.00  0.00    -0.360 OA
ATOM     20  H   UNL d   1      27.858 -16.009  -1.171  0.00  0.00     0.217 HD
ENDBRANCH   6  19
BRANCH   3  21
ATOM     21  N   UNL d   1      22.249 -17.959  -0.030  0.00  0.00    -0.327 N 
ATOM     22  C   UNL d   1      21.495 -18.770  -0.880  0.00  0.00     0.221 C 
ATOM     23  O   UNL d   1      21.931 -19.325  -1.889  0.00  0.00    -0.273 OA
ATOM     24  H   UNL d   1      21.792 -17.544   0.775  0.00  0.00     0.169 HD
BRANCH  22  25
ATOM     25  C   UNL d   1      20.029 -18.975  -0.531  0.00  0.00     0.098 C 
ATOM     26  C   UNL d   1      19.929 -20.067   0.547  0.00  0.00     0.014 C 
ENDBRANCH  22  25
ENDBRANCH   3  21
TORSDOF 7
ENDMDL
MODEL 3
REMARK VINA RESULT:    -7.590      1.411      1.548
REMARK INTER + INTRA:         -10.899
REMARK INTER:                  -9.679
REMARK INTRA:                  -1.220
REMARK CONF_INDEPENDENT:        2.088
REMARK UNBOUND:                -1.220
REMARK  7 active torsions:
REMARK  status: ('A' for Active; 'I' for Inactive)
REMARK    1  A    between atoms: C_2  and  N_3 
REMARK       I    between atoms: N_3  and  C_4 
REMARK    2  A    between atoms: C_6  and  C_4 
REMARK    3  A    between atoms: C_6  and  N_8 
REMARK       I    between atoms: N_8  and  C_9 
REMARK    4  A    between atoms: C_9  and  C_11 
REMARK    5  A    between atoms: C_13  and  N_14 
REMARK       I    between atoms: N_14  and  C_15 
REMARK    6  A    between atoms: C_15  and  C_17 
REMARK    7  A    between atoms: C_21  and  O_22 
ROOT
ATOM      1  C   UNL d   1      25.524 -16.549  -1.735  0.00  0.00     0.067 A 
ATOM      2  C   UNL d   1      24.145 -16.805  -1.488  0.00  0.00     0.049 A 
ATOM      3  C   UNL d   1      23.756 -17.601  -0.398  0.00  0.00     0.035 A 
ATOM      4  C   UNL d   1      24.780 -18.083   0.429  0.00  0.00     0.032 A 
ATOM      5  C   UNL d   1      26.132 -17.827   0.197  0.00  0.00     0.040 A 
ATOM      6  C   UNL d   1      26.508 -17.071  -0.896  0.00  0.00     0.081 A 
ENDROOT
BRANCH   1   7
ATOM      7  C   UNL d   1      25.916 -15.632  -2.825  0.00  0.00     0.255 C 
ATOM      8  N   UNL d   1      27.130 -14.984  -2.720  0.00  0.00    -0.344 N 
ATOM      9  H   UNL d   1      27.582 -14.990  -1.811  0.00  0.00     0.163 HD
ATOM     10  O   UNL d   1      25.158 -15.525  -3.792  0.00  0.00    -0.268 OA
BRANCH   8  11
ATOM     11  C   UNL d   1      27.626 -14.029  -3.728  0.00  0.00     0.172 C 
ATOM     12  C   UNL d   1      28.921 -13.350  -3.264  0.00  0.00     0.042 C 
BRANCH  11  13
ATOM     13  C   UNL d   1      27.898 -14.755  -5.076  0.00  0.00     0.240 C 
ATOM     14  N   UNL d   1      29.229 -14.898  -5.403  0.00  0.00    -0.360 N 
ATOM     15  H   UNL d   1      29.911 -14.420  -4.810  0.00  0.00     0.162 HD
ATOM     16  O   UNL d   1      27.001 -15.199  -5.792  0.00  0.00    -0.271 OA
BRANCH  14  17
ATOM     17  C   UNL d   1      29.652 -15.407  -6.682  0.00  0.00     0.118 C 
ATOM     18  C   UNL d   1      30.717 -16.481  -6.547  0.00  0.00     0.026 C 
ENDBRANCH  14  17
ENDBRANCH  11  13
ENDBRANCH   8  11
ENDBRANCH   1   7
BRANCH   6  19
ATOM     19  O   UNL d   1      27.831 -16.827  -1.127  0.00  0.00    -0.360 OA
ATOM     20  H   UNL d   1      28.091 -17.250  -1.964  0.00  0.00     0.217 HD
ENDBRANCH   6  19
BRANCH   3  21
ATOM     21  N   UNL d   1      22.377 -17.903  -0.141  0.00  0.00    -0.327 N 
ATOM     22  C   UNL d   1      21.599 -18.743  -0.939  0.00  0.00     0.221 C 
ATOM     23  O   UNL d   1      22.003 -19.324  -1.947  0.00  0.00    -0.273 OA
ATOM     24  H   UNL d   1      21.945 -17.468   0.668  0.00  0.00     0.169 HD
BRANCH  22  25
ATOM     25  C   UNL d   1      20.148 -18.948  -0.532  0.00  0.00     0.098 C 
ATOM     26  C   UNL d   1      20.053 -20.224   0.320  0.00  0.00     0.014 C 
ENDBRANCH  22  25
ENDBRANCH   3  21
TORSDOF 7
ENDMDL
MODEL 4
REMARK VINA RESULT:    -7.266      1.648      2.095
REMARK INTER + INTRA:         -11.277
REMARK INTER:                  -9.354
REMARK INTRA:                  -1.923
REMARK CONF_INDEPENDENT:        2.088
REMARK UNBOUND:                -1.923
REMARK  7 active torsions:
REMARK  status: ('A' for Active; 'I' for Inactive)
REMARK    1  A    between atoms: C_2  and  N_3 
REMARK       I    between atoms: N_3  and  C_4 
REMARK    2  A    between atoms: C_6  and  C_4 
REMARK    3  A    between atoms: C_6  and  N_8 
REMARK       I    between atoms: N_8  and  C_9 
REMARK    4  A    between atoms: C_9  and  C_11 
REMARK    5  A    between atoms: C_13  and  N_14 
REMARK       I    between atoms: N_14  and  C_15 
REMARK    6  A    between atoms: C_15  and  C_17 
REMARK    7  A    between atoms: C_21  and  O_22 
ROOT
ATOM      1  C   UNL d   1      25.945 -16.789  -1.151  0.00  0.00     0.067 A 
ATOM      2  C   UNL d   1      24.527 -16.924  -1.120  0.00  0.00     0.049 A 
ATOM      3  C   UNL d   1      23.916 -17.760  -0.172  0.00  0.00     0.035 A 
ATOM      4  C   UNL d   1      24.763 -18.406   0.740  0.00  0.00     0.032 A 
ATOM      5  C   UNL d   1      26.151 -18.269   0.720  0.00  0.00     0.040 A 
ATOM      6  C   UNL d   1      26.746 -17.470  -0.236  0.00  0.00     0.081 A 
ENDROOT
BRANCH   1   7
ATOM      7  C   UNL d   1      26.570 -15.833  -2.088  0.00  0.00     0.255 C 
ATOM      8  N   UNL d   1      27.706 -16.235  -2.762  0.00  0.00    -0.344 N 
ATOM      9  H   UNL d   1      28.179 -17.065  -2.416  0.00  0.00     0.163 HD
ATOM     10  O   UNL d   1      26.021 -14.740  -2.252  0.00  0.00    -0.268 OA
BRANCH   8  11
ATOM     11  C   UNL d   1      28.435 -15.369  -3.705  0.00  0.00     0.172 C 
ATOM     12  C   UNL d   1      29.480 -16.164  -4.500  0.00  0.00     0.042 C 
BRANCH  11  13
ATOM     13  C   UNL d   1      27.447 -14.704  -4.706  0.00  0.00     0.240 C 
ATOM     14  N   UNL d   1      26.921 -13.499  -4.292  0.00  0.00    -0.360 N 
ATOM     15  H   UNL d   1      27.121 -13.205  -3.333  0.00  0.00     0.162 HD
ATOM     16  O   UNL d   1      27.171 -15.192  -5.800  0.00  0.00    -0.271 OA
BRANCH  14  17
ATOM     17  C   UNL d   1      25.879 -12.827  -5.024  0.00  0.00     0.118 C 
ATOM     18  C   UNL d   1      26.293 -11.433  -5.461  0.00  0.00     0.026 C 
ENDBRANCH  14  17
ENDBRANCH  11  13
ENDBRANCH   8  11
ENDBRANCH   1   7
BRANCH   6  19
ATOM     19  O   UNL d   1      28.106 -17.343  -0.260  0.00  0.00    -0.360 OA
ATOM     20  H   UNL d   1      28.485 -17.828   0.493  0.00  0.00     0.217 HD
ENDBRANCH   6  19
BRANCH   3  21
ATOM     21  N   UNL d   1      22.493 -17.943  -0.135  0.00  0.00    -0.327 N 
ATOM     22  C   UNL d   1      21.780 -18.712  -1.056  0.00  0.00     0.221 C 
ATOM     23  O   UNL d   1      22.284 -19.325  -1.998  0.00  0.00    -0.273 OA
ATOM     24  H   UNL d   1      21.979 -17.473   0.603  0.00  0.00     0.169 HD
BRANCH  22  25
ATOM     25  C   UNL d   1      20.271 -18.791  -0.881  0.00  0.00     0.098 C 
ATOM     26  C   UNL d   1      19.962 -19.732   0.295  0.00  0.00     0.014 C 
ENDBRANCH  22  25
ENDBRANCH   3  21
TORSDOF 7
ENDMDL
MODEL 5
REMARK VINA RESULT:    -7.177      1.730      2.201
REMARK INTER + INTRA:         -11.270
REMARK INTER:                  -9.266
REMARK INTRA:                  -2.004
REMARK CONF_INDEPENDENT:        2.088
REMARK UNBOUND:                -2.004
REMARK  7 active torsions:
REMARK  status: ('A' for Active; 'I' for Inactive)
REMARK    1  A    between atoms: C_2  and  N_3 
REMARK       I    between atoms: N_3  and  C_4 
REMARK    2  A    between atoms: C_6  and  C_4 
REMARK    3  A    between atoms: C_6  and  N_8 
REMARK       I    between atoms: N_8  and  C_9 
REMARK    4  A    between atoms: C_9  and  C_11 
REMARK    5  A    between atoms: C_13  and  N_14 
REMARK       I    between atoms: N_14  and  C_15 
REMARK    6  A    between atoms: C_15  and  C_17 
REMARK    7  A    between atoms: C_21  and  O_22 
ROOT
ATOM      1  C   UNL d   1      25.225 -16.585  -1.509  0.00  0.00     0.067 A 
ATOM      2  C   UNL d   1      23.857 -16.917  -1.296  0.00  0.00     0.049 A 
ATOM      3  C   UNL d   1      23.488 -17.756  -0.232  0.00  0.00     0.035 A 
ATOM      4  C   UNL d   1      24.520 -18.204   0.605  0.00  0.00     0.032 A 
ATOM      5  C   UNL d   1      25.860 -17.873   0.407  0.00  0.00     0.040 A 
ATOM      6  C   UNL d   1      26.218 -17.074  -0.661  0.00  0.00     0.081 A 
ENDROOT
BRANCH   1   7
ATOM      7  C   UNL d   1      25.590 -15.625  -2.571  0.00  0.00     0.255 C 
ATOM      8  N   UNL d   1      26.889 -15.639  -3.039  0.00  0.00    -0.344 N 
ATOM      9  H   UNL d   1      27.576 -16.140  -2.482  0.00  0.00     0.163 HD
ATOM     10  O   UNL d   1      24.706 -14.888  -3.014  0.00  0.00    -0.268 OA
BRANCH   8  11
ATOM     11  C   UNL d   1      27.383 -14.719  -4.078  0.00  0.00     0.172 C 
ATOM     12  C   UNL d   1      26.621 -14.905  -5.397  0.00  0.00     0.042 C 
BRANCH  11  13
ATOM     13  C   UNL d   1      27.227 -13.243  -3.615  0.00  0.00     0.240 C 
ATOM     14  N   UNL d   1      25.960 -12.719  -3.755  0.00  0.00    -0.360 N 
ATOM     15  H   UNL d   1      25.271 -13.287  -4.253  0.00  0.00     0.162 HD
ATOM     16  O   UNL d   1      28.150 -12.591  -3.129  0.00  0.00    -0.271 OA
BRANCH  14  17
ATOM     17  C   UNL d   1      25.677 -11.327  -3.519  0.00  0.00     0.118 C 
ATOM     18  C   UNL d   1      25.883 -10.482  -4.763  0.00  0.00     0.026 C 
ENDBRANCH  14  17
ENDBRANCH  11  13
ENDBRANCH   8  11
ENDBRANCH   1   7
BRANCH   6  19
ATOM     19  O   UNL d   1      27.531 -16.757  -0.860  0.00  0.00    -0.360 OA
ATOM     20  H   UNL d   1      28.015 -16.864  -0.022  0.00  0.00     0.217 HD
ENDBRANCH   6  19
BRANCH   3  21
ATOM     21  N   UNL d   1      22.122 -18.135  -0.010  0.00  0.00    -0.327 N 
ATOM     22  C   UNL d   1      21.364 -18.888  -0.908  0.00  0.00     0.221 C 
ATOM     23  O   UNL d   1      21.777 -19.318  -1.986  0.00  0.00    -0.273 OA
ATOM     24  H   UNL d   1      21.684 -17.825   0.851  0.00  0.00     0.169 HD
BRANCH  22  25
ATOM     25  C   UNL d   1      19.924 -19.192  -0.524  0.00  0.00     0.098 C 
ATOM     26  C   UNL d   1      19.896 -19.673   0.936  0.00  0.00     0.014 C 
ENDBRANCH  22  25
ENDBRANCH   3  21
TORSDOF 7
ENDMDL
MODEL 6
REMARK VINA RESULT:    -7.095      3.794      4.813
REMARK INTER + INTRA:         -10.855
REMARK INTER:                  -9.183
REMARK INTRA:                  -1.672
REMARK CONF_INDEPENDENT:        2.088
REMARK UNBOUND:                -1.672
REMARK  7 active torsions:
REMARK  status: ('A' for Active; 'I' for Inactive)
REMARK    1  A    between atoms: C_2  and  N_3 
REMARK       I    between atoms: N_3  and  C_4 
REMARK    2  A    between atoms: C_6  and  C_4 
REMARK    3  A    between atoms: C_6  and  N_8 
REMARK       I    between atoms: N_8  and  C_9 
REMARK    4  A    between atoms: C_9  and  C_11 
REMARK    5  A    between atoms: C_13  and  N_14 
REMARK       I    between atoms: N_14  and  C_15 
REMARK    6  A    between atoms: C_15  and  C_17 
REMARK    7  A    between atoms: C_21  and  O_22 
ROOT
ATOM      1  C   UNL d   1      24.681 -17.556  -0.216  0.00  0.00     0.067 A 
ATOM      2  C   UNL d   1      23.738 -18.523   0.234  0.00  0.00     0.049 A 
ATOM      3  C   UNL d   1      22.372 -18.366  -0.051  0.00  0.00     0.035 A 
ATOM      4  C   UNL d   1      22.010 -17.248  -0.816  0.00  0.00     0.032 A 
ATOM      5  C   UNL d   1      22.932 -16.304  -1.267  0.00  0.00     0.040 A 
ATOM      6  C   UNL d   1      24.269 -16.448  -0.955  0.00  0.00     0.081 A 
ENDROOT
BRANCH   1   7
ATOM      7  C   UNL d   1      26.124 -17.781   0.005  0.00  0.00     0.255 C 
ATOM      8  N   UNL d   1      26.953 -16.678   0.041  0.00  0.00    -0.344 N 
ATOM      9  H   UNL d   1      26.575 -15.802  -0.308  0.00  0.00     0.163 HD
ATOM     10  O   UNL d   1      26.508 -18.939   0.187  0.00  0.00    -0.268 OA
BRANCH   8  11
ATOM     11  C   UNL d   1      28.412 -16.770   0.232  0.00  0.00     0.172 C 
ATOM     12  C   UNL d   1      29.087 -17.471  -0.954  0.00  0.00     0.042 C 
BRANCH  11  13
ATOM     13  C   UNL d   1      29.029 -15.351   0.390  0.00  0.00     0.240 C 
ATOM     14  N   UNL d   1      30.226 -15.308   1.072  0.00  0.00    -0.360 N 
ATOM     15  H   UNL d   1      30.543 -16.173   1.516  0.00  0.00     0.162 HD
ATOM     16  O   UNL d   1      28.512 -14.338  -0.080  0.00  0.00    -0.271 OA
BRANCH  14  17
ATOM     17  C   UNL d   1      30.853 -14.065   1.440  0.00  0.00     0.118 C 
ATOM     18  C   UNL d   1      30.086 -13.336   2.528  0.00  0.00     0.026 C 
ENDBRANCH  14  17
ENDBRANCH  11  13
ENDBRANCH   8  11
ENDBRANCH   1   7
BRANCH   6  19
ATOM     19  O   UNL d   1      25.169 -15.518  -1.390  0.00  0.00    -0.360 OA
ATOM     20  H   UNL d   1      24.693 -14.802  -1.846  0.00  0.00     0.217 HD
ENDBRANCH   6  19
BRANCH   3  21
ATOM     21  N   UNL d   1      21.392 -19.307   0.415  0.00  0.00    -0.327 N 
ATOM     22  C   UNL d   1      20.417 -19.887  -0.397  0.00  0.00     0.221 C 
ATOM     23  O   UNL d   1      20.287 -19.667  -1.602  0.00  0.00    -0.273 OA
ATOM     24  H   UNL d   1      21.411 -19.552   1.400  0.00  0.00     0.169 HD
BRANCH  22  25
ATOM     25  C   UNL d   1      19.446 -20.856   0.260  0.00  0.00     0.098 C 
ATOM     26  C   UNL d   1      18.875 -20.197   1.525  0.00  0.00     0.014 C 
ENDBRANCH  22  25
ENDBRANCH   3  21
TORSDOF 7
ENDMDL
MODEL 7
REMARK VINA RESULT:    -6.475      1.536      8.421
REMARK INTER + INTRA:         -10.206
REMARK INTER:                  -8.563
REMARK INTRA:                  -1.643
REMARK CONF_INDEPENDENT:        2.088
REMARK UNBOUND:                -1.643
REMARK  7 active torsions:
REMARK  status: ('A' for Active; 'I' for Inactive)
REMARK    1  A    between atoms: C_2  and  N_3 
REMARK       I    between atoms: N_3  and  C_4 
REMARK    2  A    between atoms: C_6  and  C_4 
REMARK    3  A    between atoms: C_6  and  N_8 
REMARK       I    between atoms: N_8  and  C_9 
REMARK    4  A    between atoms: C_9  and  C_11 
REMARK    5  A    between atoms: C_13  and  N_14 
REMARK       I    between atoms: N_14  and  C_15 
REMARK    6  A    between atoms: C_15  and  C_17 
REMARK    7  A    between atoms: C_21  and  O_22 
ROOT
ATOM      1  C   UNL d   1      25.617 -15.665  -2.594  0.00  0.00     0.067 A 
ATOM      2  C   UNL d   1      26.933 -15.551  -3.126  0.00  0.00     0.049 A 
ATOM      3  C   UNL d   1      27.261 -14.489  -3.984  0.00  0.00     0.035 A 
ATOM      4  C   UNL d   1      26.250 -13.553  -4.247  0.00  0.00     0.032 A 
ATOM      5  C   UNL d   1      24.962 -13.655  -3.720  0.00  0.00     0.040 A 
ATOM      6  C   UNL d   1      24.638 -14.720  -2.904  0.00  0.00     0.081 A 
ENDROOT
BRANCH   1   7
ATOM      7  C   UNL d   1      25.311 -16.729  -1.617  0.00  0.00     0.255 C 
ATOM      8  N   UNL d   1      24.089 -17.366  -1.714  0.00  0.00    -0.344 N 
ATOM      9  H   UNL d   1      23.382 -16.924  -2.295  0.00  0.00     0.163 HD
ATOM     10  O   UNL d   1      26.178 -17.023  -0.791  0.00  0.00    -0.268 OA
BRANCH   8  11
ATOM     11  C   UNL d   1      23.655 -18.427  -0.789  0.00  0.00     0.172 C 
ATOM     12  C   UNL d   1      24.216 -18.201   0.622  0.00  0.00     0.042 C 
BRANCH  11  13
ATOM     13  C   UNL d   1      22.103 -18.475  -0.707  0.00  0.00     0.240 C 
ATOM     14  N   UNL d   1      21.590 -19.516   0.036  0.00  0.00    -0.360 N 
ATOM     15  H   UNL d   1      22.248 -20.226   0.364  0.00  0.00     0.162 HD
ATOM     16  O   UNL d   1      21.377 -17.634  -1.236  0.00  0.00    -0.271 OA
BRANCH  14  17
ATOM     17  C   UNL d   1      20.178 -19.796   0.088  0.00  0.00     0.118 C 
ATOM     18  C   UNL d   1      19.651 -19.820   1.511  0.00  0.00     0.026 C 
ENDBRANCH  14  17
ENDBRANCH  11  13
ENDBRANCH   8  11
ENDBRANCH   1   7
BRANCH   6  19
ATOM     19  O   UNL d   1      23.375 -14.824  -2.395  0.00  0.00    -0.360 OA
ATOM     20  H   UNL d   1      22.855 -14.050  -2.673  0.00  0.00     0.217 HD
ENDBRANCH   6  19
BRANCH   3  21
ATOM     21  N   UNL d   1      28.569 -14.364  -4.562  0.00  0.00    -0.327 N 
ATOM     22  C   UNL d   1      28.938 -14.921  -5.788  0.00  0.00     0.221 C 
ATOM     23  O   UNL d   1      28.190 -15.575  -6.514  0.00  0.00    -0.273 OA
ATOM     24  H   UNL d   1      29.265 -13.845  -4.037  0.00  0.00     0.169 HD
BRANCH  22  25
ATOM     25  C   UNL d   1      30.371 -14.705  -6.250  0.00  0.00     0.098 C 
ATOM     26  C   UNL d   1      31.134 -16.033  -6.122  0.00  0.00     0.014 C 
ENDBRANCH  22  25
ENDBRANCH   3  21
TORSDOF 7
ENDMDL
MODEL 8
REMARK VINA RESULT:    -5.957      2.334      3.536
REMARK INTER + INTRA:          -9.697
REMARK INTER:                  -8.046
REMARK INTRA:                  -1.651
REMARK CONF_INDEPENDENT:        2.088
REMARK UNBOUND:                -1.651
REMARK  7 active torsions:
REMARK  status: ('A' for Active; 'I' for Inactive)
REMARK    1  A    between atoms: C_2  and  N_3 
REMARK       I    between atoms: N_3  and  C_4 
REMARK    2  A    between atoms: C_6  and  C_4 
REMARK    3  A    between atoms: C_6  and  N_8 
REMARK       I    between atoms: N_8  and  C_9 
REMARK    4  A    between atoms: C_9  and  C_11 
REMARK    5  A    between atoms: C_13  and  N_14 
REMARK       I    between atoms: N_14  and  C_15 
REMARK    6  A    between atoms: C_15  and  C_17 
REMARK    7  A    between atoms: C_21  and  O_22 
ROOT
ATOM      1  C   UNL d   1      24.847 -17.274  -0.399  0.00  0.00     0.067 A 
ATOM      2  C   UNL d   1      23.956 -18.287   0.058  0.00  0.00     0.049 A 
ATOM      3  C   UNL d   1      22.571 -18.149  -0.131  0.00  0.00     0.035 A 
ATOM      4  C   UNL d   1      22.137 -17.003  -0.812  0.00  0.00     0.032 A 
ATOM      5  C   UNL d   1      23.007 -16.014  -1.270  0.00  0.00     0.040 A 
ATOM      6  C   UNL d   1      24.364 -16.141  -1.051  0.00  0.00     0.081 A 
ENDROOT
BRANCH   1   7
ATOM      7  C   UNL d   1      26.306 -17.475  -0.282  0.00  0.00     0.255 C 
ATOM      8  N   UNL d   1      27.118 -16.360  -0.324  0.00  0.00    -0.344 N 
ATOM      9  H   UNL d   1      26.702 -15.496  -0.658  0.00  0.00     0.163 HD
ATOM     10  O   UNL d   1      26.721 -18.624  -0.111  0.00  0.00    -0.268 OA
BRANCH   8  11
ATOM     11  C   UNL d   1      28.588 -16.427  -0.241  0.00  0.00     0.172 C 
ATOM     12  C   UNL d   1      29.099 -17.847  -0.519  0.00  0.00     0.042 C 
BRANCH  11  13
ATOM     13  C   UNL d   1      29.235 -15.453  -1.266  0.00  0.00     0.240 C 
ATOM     14  N   UNL d   1      28.347 -14.652  -1.950  0.00  0.00    -0.360 N 
ATOM     15  H   UNL d   1      27.350 -14.842  -1.822  0.00  0.00     0.162 HD
ATOM     16  O   UNL d   1      30.450 -15.373  -1.441  0.00  0.00    -0.271 OA
BRANCH  14  17
ATOM     17  C   UNL d   1      28.761 -13.806  -3.039  0.00  0.00     0.118 C 
ATOM     18  C   UNL d   1      28.970 -14.588  -4.324  0.00  0.00     0.026 C 
ENDBRANCH  14  17
ENDBRANCH  11  13
ENDBRANCH   8  11
ENDBRANCH   1   7
BRANCH   6  19
ATOM     19  O   UNL d   1      25.215 -15.168  -1.493  0.00  0.00    -0.360 OA
ATOM     20  H   UNL d   1      25.876 -15.568  -2.085  0.00  0.00     0.217 HD
ENDBRANCH   6  19
BRANCH   3  21
ATOM     21  N   UNL d   1      21.644 -19.136   0.346  0.00  0.00    -0.327 N 
ATOM     22  C   UNL d   1      20.636 -19.704  -0.435  0.00  0.00     0.221 C 
ATOM     23  O   UNL d   1      20.428 -19.431  -1.617  0.00  0.00    -0.273 OA
ATOM     24  H   UNL d   1      21.728 -19.427   1.315  0.00  0.00     0.169 HD
BRANCH  22  25
ATOM     25  C   UNL d   1      19.730 -20.728   0.231  0.00  0.00     0.098 C 
ATOM     26  C   UNL d   1      19.252 -20.160   1.577  0.00  0.00     0.014 C 
ENDBRANCH  22  25
ENDBRANCH   3  21
TORSDOF 7
ENDMDL
MODEL 9
REMARK VINA RESULT:    -5.592      4.156      6.248
REMARK INTER + INTRA:          -9.721
REMARK INTER:                  -7.680
REMARK INTRA:                  -2.041
REMARK CONF_INDEPENDENT:        2.088
REMARK UNBOUND:                -2.041
REMARK  7 active torsions:
REMARK  status: ('A' for Active; 'I' for Inactive)
REMARK    1  A    between atoms: C_2  and  N_3 
REMARK       I    between atoms: N_3  and  C_4 
REMARK    2  A    between atoms: C_6  and  C_4 
REMARK    3  A    between atoms: C_6  and  N_8 
REMARK       I    between atoms: N_8  and  C_9 
REMARK    4  A    between atoms: C_9  and  C_11 
REMARK    5  A    between atoms: C_13  and  N_14 
REMARK       I    between atoms: N_14  and  C_15 
REMARK    6  A    between atoms: C_15  and  C_17 
REMARK    7  A    between atoms: C_21  and  O_22 
ROOT
ATOM      1  C   UNL d   1      26.411 -15.620  -0.417  0.00  0.00     0.067 A 
ATOM      2  C   UNL d   1      25.529 -16.692  -0.100  0.00  0.00     0.049 A 
ATOM      3  C   UNL d   1      24.680 -17.226  -1.084  0.00  0.00     0.035 A 
ATOM      4  C   UNL d   1      24.781 -16.678  -2.370  0.00  0.00     0.032 A 
ATOM      5  C   UNL d   1      25.650 -15.634  -2.688  0.00  0.00     0.040 A 
ATOM      6  C   UNL d   1      26.457 -15.093  -1.707  0.00  0.00     0.081 A 
ENDROOT
BRANCH   1   7
ATOM      7  C   UNL d   1      27.366 -15.132   0.598  0.00  0.00     0.255 C 
ATOM      8  N   UNL d   1      27.593 -13.772   0.673  0.00  0.00    -0.344 N 
ATOM      9  H   UNL d   1      27.275 -13.206  -0.108  0.00  0.00     0.163 HD
ATOM     10  O   UNL d   1      27.881 -15.960   1.354  0.00  0.00    -0.268 OA
BRANCH   8  11
ATOM     11  C   UNL d   1      28.538 -13.162   1.626  0.00  0.00     0.172 C 
ATOM     12  C   UNL d   1      28.759 -11.676   1.318  0.00  0.00     0.042 C 
BRANCH  11  13
ATOM     13  C   UNL d   1      28.004 -13.297   3.080  0.00  0.00     0.240 C 
ATOM     14  N   UNL d   1      28.335 -14.474   3.716  0.00  0.00    -0.360 N 
ATOM     15  H   UNL d   1      28.788 -15.198   3.155  0.00  0.00     0.162 HD
ATOM     16  O   UNL d   1      27.359 -12.413   3.643  0.00  0.00    -0.271 OA
BRANCH  14  17
ATOM     17  C   UNL d   1      27.795 -14.825   5.005  0.00  0.00     0.118 C 
ATOM     18  C   UNL d   1      28.825 -14.693   6.112  0.00  0.00     0.026 C 
ENDBRANCH  14  17
ENDBRANCH  11  13
ENDBRANCH   8  11
ENDBRANCH   1   7
BRANCH   6  19
ATOM     19  O   UNL d   1      27.303 -14.066  -2.017  0.00  0.00    -0.360 OA
ATOM     20  H   UNL d   1      26.784 -13.323  -2.373  0.00  0.00     0.217 HD
ENDBRANCH   6  19
BRANCH   3  21
ATOM     21  N   UNL d   1      23.757 -18.285  -0.788  0.00  0.00    -0.327 N 
ATOM     22  C   UNL d   1      22.391 -18.095  -0.577  0.00  0.00     0.221 C 
ATOM     23  O   UNL d   1      21.820 -17.005  -0.625  0.00  0.00    -0.273 OA
ATOM     24  H   UNL d   1      24.131 -19.226  -0.720  0.00  0.00     0.169 HD
BRANCH  22  25
ATOM     25  C   UNL d   1      21.554 -19.325  -0.260  0.00  0.00     0.098 C 
ATOM     26  C   UNL d   1      20.165 -19.150  -0.895  0.00  0.00     0.014 C 
ENDBRANCH  22  25
ENDBRANCH   3  21
TORSDOF 7
ENDMDL
