MODEL 1
REMARK VINA RESULT:    -9.848      0.000      0.000
REMARK INTER + INTRA:         -15.101
REMARK INTER:                 -12.831
REMARK INTRA:                  -2.270
REMARK CONF_INDEPENDENT:        2.983
REMARK UNBOUND:                -2.270
REMARK  10 active torsions:
REMARK  status: ('A' for Active; 'I' for Inactive)
REMARK    1  A    between atoms: C_2  and  N_3 
REMARK    2  A    between atoms: N_6  and  C_7 
REMARK    3  A    between atoms: C_10  and  C_11 
REMARK    4  A    between atoms: C_11  and  O_13 
REMARK    5  A    between atoms: C_16  and  N_17 
REMARK    6  A    between atoms: N_17  and  C_18 
REMARK    7  A    between atoms: C_18  and  N_20 
REMARK       I    between atoms: N_20  and  C_21 
REMARK    8  A    between atoms: C_21  and  C_23 
REMARK    9  A    between atoms: C_23  and  O_24 
REMARK   10  A    between atoms: O_24  and  C_25 
ROOT
ATOM      1  C   UNL d   1      25.769 -17.136  -0.122  0.00  0.00     0.052 C 
ATOM      2  C   UNL d   1      25.079 -18.185   0.542  0.00  0.00     0.032 C 
ATOM      3  C   UNL d   1      23.763 -18.572   0.230  0.00  0.00     0.020 C 
ATOM      4  C   UNL d   1      23.029 -17.881  -0.732  0.00  0.00     0.041 C 
ATOM      5  C   UNL d   1      23.653 -16.787  -1.370  0.00  0.00     0.043 C 
ATOM      6  C   UNL d   1      24.991 -16.343  -1.038  0.00  0.00     0.042 C 
ENDROOT
BRANCH   6   7
ATOM      7  N   UNL d   1      25.450 -15.074  -1.712  0.00  0.00    -0.234 NA
ATOM      8  H   UNL d   1      24.759 -14.373  -1.436  0.00  0.00     0.136 HD
BRANCH   7   9
ATOM      9  C   UNL d   1      25.569 -14.965  -3.099  0.00  0.00     0.157 C 
ATOM     10  S   UNL d   1      24.471 -13.941  -3.840  0.00  0.00    -0.047 SA
BRANCH   9  11
ATOM     11  N   UNL d   1      26.856 -15.401  -3.702  0.00  0.00    -0.306 N 
ATOM     12  C   UNL d   1      27.494 -15.186  -5.022  0.00  0.00     0.247 C 
ATOM     13  O   UNL d   1      27.024 -15.385  -6.141  0.00  0.00    -0.271 OA
ATOM     14  H   UNL d   1      27.560 -15.210  -3.003  0.00  0.00     0.170 HD
BRANCH  12  15
ATOM     15  C   UNL d   1      28.936 -14.852  -5.151  0.00  0.00     0.278 C 
BRANCH  15  16
ATOM     16  O   UNL d   1      29.661 -15.928  -4.471  0.00  0.00    -0.342 OA
BRANCH  16  17
ATOM     17  C   UNL d   1      30.155 -16.959  -5.211  0.00  0.00     0.075 A 
ATOM     18  C   UNL d   1      30.031 -18.253  -4.669  0.00  0.00     0.037 A 
ATOM     19  C   UNL d   1      30.450 -19.362  -5.411  0.00  0.00     0.003 A 
ATOM     20  C   UNL d   1      30.960 -19.178  -6.691  0.00  0.00     0.001 A 
ATOM     21  C   UNL d   1      31.155 -17.895  -7.187  0.00  0.00     0.009 A 
ATOM     22  C   UNL d   1      30.793 -16.777  -6.440  0.00  0.00    -0.029 A 
ATOM     23  C   UNL d   1      31.082 -15.436  -7.025  0.00  0.00     0.051 C 
ENDBRANCH  16  17
ENDBRANCH  15  16
ENDBRANCH  12  15
ENDBRANCH   9  11
ENDBRANCH   7   9
ENDBRANCH   6   7
BRANCH   1  24
ATOM     24  N   UNL d   1      27.126 -17.016   0.166  0.00  0.00    -0.376 N 
ATOM     25  C   UNL d   1      27.657 -15.993   1.017  0.00  0.00     0.150 C 
ATOM     26  C   UNL d   1      28.687 -15.197   0.237  0.00  0.00     0.254 C 
ATOM     27  N   UNL d   1      29.717 -15.770  -0.725  0.00  0.00    -0.068 N 
ATOM     28  C   UNL d   1      29.130 -16.997  -1.417  0.00  0.00     0.254 C 
ATOM     29  H   UNL d   1      30.467 -16.036  -0.083  0.00  0.00     0.280 HD
ATOM     30  C   UNL d   1      28.204 -17.828  -0.461  0.00  0.00     0.150 C 
BRANCH  27  31
ATOM     31  C   UNL d   1      30.499 -14.798  -1.748  0.00  0.00     0.230 C 
ATOM     32  C   UNL d   1      31.789 -15.228  -2.472  0.00  0.00     0.034 C 
ENDBRANCH  27  31
ENDBRANCH   1  24
BRANCH   4  33
ATOM     33  C   UNL d   1      21.586 -18.312  -0.928  0.00  0.00     0.293 C 
ATOM     34  O   UNL d   1      20.718 -17.549  -1.267  0.00  0.00    -0.259 OA
BRANCH  33  35
ATOM     35  O   UNL d   1      21.413 -19.656  -0.730  0.00  0.00    -0.323 OA
ATOM     36  C   UNL d   1      20.058 -20.024  -0.399  0.00  0.00     0.213 C 
ENDBRANCH  33  35
ENDBRANCH   4  33
TORSDOF 10
ENDMDL
MODEL 2
REMARK VINA RESULT:    -9.338      1.375      2.228
REMARK INTER + INTRA:         -14.184
REMARK INTER:                 -12.321
REMARK INTRA:                  -1.863
REMARK CONF_INDEPENDENT:        2.983
REMARK UNBOUND:                -1.863
REMARK  10 active torsions:
REMARK  status: ('A' for Active; 'I' for Inactive)
REMARK    1  A    between atoms: C_2  and  N_3 
REMARK    2  A    between atoms: N_6  and  C_7 
REMARK    3  A    between atoms: C_10  and  C_11 
REMARK    4  A    between atoms: C_11  and  O_13 
REMARK    5  A    between atoms: C_16  and  N_17 
REMARK    6  A    between atoms: N_17  and  C_18 
REMARK    7  A    between atoms: C_18  and  N_20 
REMARK       I    between atoms: N_20  and  C_21 
REMARK    8  A    between atoms: C_21  and  C_23 
REMARK    9  A    between atoms: C_23  and  O_24 
REMARK   10  A    between atoms: O_24  and  C_25 
ROOT
ATOM      1  C   UNL d   1      26.173 -16.484  -0.802  0.00  0.00     0.052 C 
ATOM      2  C   UNL d   1      25.975 -17.555   0.109  0.00  0.00     0.032 C 
ATOM      3  C   UNL d   1      24.754 -18.242   0.252  0.00  0.00     0.020 C 
ATOM      4  C   UNL d   1      23.630 -17.849  -0.472  0.00  0.00     0.041 C 
ATOM      5  C   UNL d   1      23.765 -16.743  -1.340  0.00  0.00     0.043 C 
ATOM      6  C   UNL d   1      24.997 -15.995  -1.474  0.00  0.00     0.042 C 
ENDROOT
BRANCH   6   7
ATOM      7  N   UNL d   1      24.927 -14.760  -2.336  0.00  0.00    -0.234 NA
ATOM      8  H   UNL d   1      23.926 -14.605  -2.481  0.00  0.00     0.136 HD
BRANCH   7   9
ATOM      9  C   UNL d   1      25.509 -14.698  -3.603  0.00  0.00     0.157 C 
ATOM     10  S   UNL d   1      25.097 -13.361  -4.523  0.00  0.00    -0.047 SA
BRANCH   9  11
ATOM     11  N   UNL d   1      26.708 -15.546  -3.837  0.00  0.00    -0.306 N 
ATOM     12  C   UNL d   1      27.828 -15.491  -4.805  0.00  0.00     0.247 C 
ATOM     13  O   UNL d   1      27.778 -15.408  -6.031  0.00  0.00    -0.271 OA
ATOM     14  H   UNL d   1      27.116 -15.694  -2.925  0.00  0.00     0.170 HD
BRANCH  12  15
ATOM     15  C   UNL d   1      29.235 -15.727  -4.388  0.00  0.00     0.278 C 
BRANCH  15  16
ATOM     16  O   UNL d   1      29.717 -16.840  -5.208  0.00  0.00    -0.342 OA
BRANCH  16  17
ATOM     17  C   UNL d   1      30.345 -17.884  -4.598  0.00  0.00     0.075 A 
ATOM     18  C   UNL d   1      30.721 -17.707  -3.253  0.00  0.00     0.037 A 
ATOM     19  C   UNL d   1      31.303 -18.765  -2.546  0.00  0.00     0.003 A 
ATOM     20  C   UNL d   1      31.479 -19.994  -3.174  0.00  0.00     0.001 A 
ATOM     21  C   UNL d   1      31.181 -20.137  -4.523  0.00  0.00     0.009 A 
ATOM     22  C   UNL d   1      30.651 -19.078  -5.255  0.00  0.00    -0.029 A 
ATOM     23  C   UNL d   1      30.407 -19.301  -6.710  0.00  0.00     0.051 C 
ENDBRANCH  16  17
ENDBRANCH  15  16
ENDBRANCH  12  15
ENDBRANCH   9  11
ENDBRANCH   7   9
ENDBRANCH   6   7
BRANCH   1  24
ATOM     24  N   UNL d   1      27.486 -16.052  -0.964  0.00  0.00    -0.376 N 
ATOM     25  C   UNL d   1      28.606 -16.946  -0.986  0.00  0.00     0.150 C 
ATOM     26  C   UNL d   1      29.574 -16.540   0.111  0.00  0.00     0.254 C 
ATOM     27  N   UNL d   1      29.952 -15.116   0.487  0.00  0.00    -0.068 N 
ATOM     28  C   UNL d   1      28.752 -14.200   0.257  0.00  0.00     0.254 C 
ATOM     29  H   UNL d   1      30.696 -14.919  -0.187  0.00  0.00     0.280 HD
ATOM     30  C   UNL d   1      27.915 -14.627  -0.999  0.00  0.00     0.150 C 
BRANCH  27  31
ATOM     31  C   UNL d   1      30.698 -14.818   1.886  0.00  0.00     0.230 C 
ATOM     32  C   UNL d   1      30.013 -14.063   3.042  0.00  0.00     0.034 C 
ENDBRANCH  27  31
ENDBRANCH   1  24
BRANCH   4  33
ATOM     33  C   UNL d   1      22.337 -18.588  -0.176  0.00  0.00     0.293 C 
ATOM     34  O   UNL d   1      21.813 -18.576   0.909  0.00  0.00    -0.259 OA
BRANCH  33  35
ATOM     35  O   UNL d   1      21.826 -19.207  -1.285  0.00  0.00    -0.323 OA
ATOM     36  C   UNL d   1      20.388 -19.323  -1.273  0.00  0.00     0.213 C 
ENDBRANCH  33  35
ENDBRANCH   4  33
TORSDOF 10
ENDMDL
MODEL 3
REMARK VINA RESULT:    -9.087      4.346      7.184
REMARK INTER + INTRA:         -14.958
REMARK INTER:                 -12.070
REMARK INTRA:                  -2.889
REMARK CONF_INDEPENDENT:        2.983
REMARK UNBOUND:                -2.889
REMARK  10 active torsions:
REMARK  status: ('A' for Active; 'I' for Inactive)
REMARK    1  A    between atoms: C_2  and  N_3 
REMARK    2  A    between atoms: N_6  and  C_7 
REMARK    3  A    between atoms: C_10  and  C_11 
REMARK    4  A    between atoms: C_11  and  O_13 
REMARK    5  A    between atoms: C_16  and  N_17 
REMARK    6  A    between atoms: N_17  and  C_18 
REMARK    7  A    between atoms: C_18  and  N_20 
REMARK       I    between atoms: N_20  and  C_21 
REMARK    8  A    between atoms: C_21  and  C_23 
REMARK    9  A    between atoms: C_23  and  O_24 
REMARK   10  A    between atoms: O_24  and  C_25 
ROOT
ATOM      1  C   UNL d   1      28.009 -12.390   1.898  0.00  0.00     0.052 C 
ATOM      2  C   UNL d   1      27.854 -11.643   3.096  0.00  0.00     0.032 C 
ATOM      3  C   UNL d   1      27.227 -10.385   3.155  0.00  0.00     0.020 C 
ATOM      4  C   UNL d   1      26.770  -9.764   1.994  0.00  0.00     0.041 C 
ATOM      5  C   UNL d   1      26.966 -10.442   0.770  0.00  0.00     0.043 C 
ATOM      6  C   UNL d   1      27.645 -11.717   0.678  0.00  0.00     0.042 C 
ENDROOT
BRANCH   6   7
ATOM      7  N   UNL d   1      27.893 -12.232  -0.718  0.00  0.00    -0.234 NA
ATOM      8  H   UNL d   1      28.601 -11.601  -1.102  0.00  0.00     0.136 HD
BRANCH   7   9
ATOM      9  C   UNL d   1      26.884 -12.300  -1.680  0.00  0.00     0.157 C 
ATOM     10  S   UNL d   1      26.933 -11.116  -2.864  0.00  0.00    -0.047 SA
BRANCH   9  11
ATOM     11  N   UNL d   1      26.160 -13.593  -1.809  0.00  0.00    -0.306 N 
ATOM     12  C   UNL d   1      25.621 -14.355  -2.960  0.00  0.00     0.247 C 
ATOM     13  O   UNL d   1      24.868 -13.966  -3.850  0.00  0.00    -0.271 OA
ATOM     14  H   UNL d   1      26.677 -14.249  -1.240  0.00  0.00     0.170 HD
BRANCH  12  15
ATOM     15  C   UNL d   1      25.798 -15.826  -3.077  0.00  0.00     0.278 C 
BRANCH  15  16
ATOM     16  O   UNL d   1      26.022 -16.315  -1.715  0.00  0.00    -0.342 OA
BRANCH  16  17
ATOM     17  C   UNL d   1      24.990 -16.905  -1.050  0.00  0.00     0.075 A 
ATOM     18  C   UNL d   1      23.701 -16.385  -1.277  0.00  0.00     0.037 A 
ATOM     19  C   UNL d   1      22.590 -16.992  -0.683  0.00  0.00     0.003 A 
ATOM     20  C   UNL d   1      22.766 -18.124   0.106  0.00  0.00     0.001 A 
ATOM     21  C   UNL d   1      24.047 -18.583   0.390  0.00  0.00     0.009 A 
ATOM     22  C   UNL d   1      25.168 -17.957  -0.149  0.00  0.00    -0.029 A 
ATOM     23  C   UNL d   1      26.506 -18.482   0.248  0.00  0.00     0.051 C 
ENDBRANCH  16  17
ENDBRANCH  15  16
ENDBRANCH  12  15
ENDBRANCH   9  11
ENDBRANCH   7   9
ENDBRANCH   6   7
BRANCH   1  24
ATOM     24  N   UNL d   1      28.466 -13.696   2.044  0.00  0.00    -0.376 N 
ATOM     25  C   UNL d   1      29.815 -14.017   2.406  0.00  0.00     0.150 C 
ATOM     26  C   UNL d   1      30.411 -14.901   1.325  0.00  0.00     0.254 C 
ATOM     27  N   UNL d   1      29.699 -16.035   0.605  0.00  0.00    -0.068 N 
ATOM     28  C   UNL d   1      28.217 -15.694   0.472  0.00  0.00     0.254 C 
ATOM     29  H   UNL d   1      29.838 -16.809   1.259  0.00  0.00     0.280 HD
ATOM     30  C   UNL d   1      27.675 -14.915   1.722  0.00  0.00     0.150 C 
BRANCH  27  31
ATOM     31  C   UNL d   1      30.316 -16.647  -0.754  0.00  0.00     0.230 C 
ATOM     32  C   UNL d   1      29.746 -16.308  -2.145  0.00  0.00     0.034 C 
ENDBRANCH  27  31
ENDBRANCH   1  24
BRANCH   4  33
ATOM     33  C   UNL d   1      26.197  -8.367   2.149  0.00  0.00     0.293 C 
ATOM     34  O   UNL d   1      26.672  -7.546   2.891  0.00  0.00    -0.259 OA
BRANCH  33  35
ATOM     35  O   UNL d   1      25.133  -8.145   1.316  0.00  0.00    -0.323 OA
ATOM     36  C   UNL d   1      25.502  -7.571   0.045  0.00  0.00     0.213 C 
ENDBRANCH  33  35
ENDBRANCH   4  33
TORSDOF 10
ENDMDL
MODEL 4
REMARK VINA RESULT:    -8.854      1.940      3.735
REMARK INTER + INTRA:         -15.138
REMARK INTER:                 -11.837
REMARK INTRA:                  -3.301
REMARK CONF_INDEPENDENT:        2.983
REMARK UNBOUND:                -3.301
REMARK  10 active torsions:
REMARK  status: ('A' for Active; 'I' for Inactive)
REMARK    1  A    between atoms: C_2  and  N_3 
REMARK    2  A    between atoms: N_6  and  C_7 
REMARK    3  A    between atoms: C_10  and  C_11 
REMARK    4  A    between atoms: C_11  and  O_13 
REMARK    5  A    between atoms: C_16  and  N_17 
REMARK    6  A    between atoms: N_17  and  C_18 
REMARK    7  A    between atoms: C_18  and  N_20 
REMARK       I    between atoms: N_20  and  C_21 
REMARK    8  A    between atoms: C_21  and  C_23 
REMARK    9  A    between atoms: C_23  and  O_24 
REMARK   10  A    between atoms: O_24  and  C_25 
ROOT
ATOM      1  C   UNL d   1      25.765 -17.108  -0.117  0.00  0.00     0.052 C 
ATOM      2  C   UNL d   1      25.079 -18.165   0.539  0.00  0.00     0.032 C 
ATOM      3  C   UNL d   1      23.762 -18.552   0.230  0.00  0.00     0.020 C 
ATOM      4  C   UNL d   1      23.023 -17.852  -0.723  0.00  0.00     0.041 C 
ATOM      5  C   UNL d   1      23.642 -16.750  -1.352  0.00  0.00     0.043 C 
ATOM      6  C   UNL d   1      24.981 -16.308  -1.021  0.00  0.00     0.042 C 
ENDROOT
BRANCH   6   7
ATOM      7  N   UNL d   1      25.435 -15.032  -1.685  0.00  0.00    -0.234 NA
ATOM      8  H   UNL d   1      24.733 -14.338  -1.414  0.00  0.00     0.136 HD
BRANCH   7   9
ATOM      9  C   UNL d   1      25.569 -14.916  -3.069  0.00  0.00     0.157 C 
ATOM     10  S   UNL d   1      24.349 -14.072  -3.846  0.00  0.00    -0.047 SA
BRANCH   9  11
ATOM     11  N   UNL d   1      26.921 -15.159  -3.639  0.00  0.00    -0.306 N 
ATOM     12  C   UNL d   1      27.491 -15.063  -5.003  0.00  0.00     0.247 C 
ATOM     13  O   UNL d   1      27.077 -15.574  -6.043  0.00  0.00    -0.271 OA
ATOM     14  H   UNL d   1      27.564 -14.684  -3.020  0.00  0.00     0.170 HD
BRANCH  12  15
ATOM     15  C   UNL d   1      28.818 -14.445  -5.257  0.00  0.00     0.278 C 
BRANCH  15  16
ATOM     16  O   UNL d   1      28.917 -13.312  -4.334  0.00  0.00    -0.342 OA
BRANCH  16  17
ATOM     17  C   UNL d   1      27.930 -12.374  -4.335  0.00  0.00     0.075 A 
ATOM     18  C   UNL d   1      27.505 -11.891  -5.588  0.00  0.00     0.037 A 
ATOM     19  C   UNL d   1      26.445 -10.982  -5.662  0.00  0.00     0.003 A 
ATOM     20  C   UNL d   1      25.800 -10.584  -4.496  0.00  0.00     0.001 A 
ATOM     21  C   UNL d   1      26.275 -11.001  -3.259  0.00  0.00     0.009 A 
ATOM     22  C   UNL d   1      27.364 -11.863  -3.164  0.00  0.00    -0.029 A 
ATOM     23  C   UNL d   1      27.841 -12.221  -1.797  0.00  0.00     0.051 C 
ENDBRANCH  16  17
ENDBRANCH  15  16
ENDBRANCH  12  15
ENDBRANCH   9  11
ENDBRANCH   7   9
ENDBRANCH   6   7
BRANCH   1  24
ATOM     24  N   UNL d   1      27.122 -16.989   0.166  0.00  0.00    -0.376 N 
ATOM     25  C   UNL d   1      27.661 -15.940   0.981  0.00  0.00     0.150 C 
ATOM     26  C   UNL d   1      28.698 -15.181   0.172  0.00  0.00     0.254 C 
ATOM     27  N   UNL d   1      29.723 -15.795  -0.769  0.00  0.00    -0.068 N 
ATOM     28  C   UNL d   1      29.126 -17.042  -1.417  0.00  0.00     0.254 C 
ATOM     29  H   UNL d   1      30.471 -16.045  -0.118  0.00  0.00     0.280 HD
ATOM     30  C   UNL d   1      28.193 -17.831  -0.432  0.00  0.00     0.150 C 
BRANCH  27  31
ATOM     31  C   UNL d   1      30.511 -14.867  -1.827  0.00  0.00     0.230 C 
ATOM     32  C   UNL d   1      30.976 -13.438  -1.484  0.00  0.00     0.034 C 
ENDBRANCH  27  31
ENDBRANCH   1  24
BRANCH   4  33
ATOM     33  C   UNL d   1      21.579 -18.284  -0.915  0.00  0.00     0.293 C 
ATOM     34  O   UNL d   1      20.705 -17.516  -1.224  0.00  0.00    -0.259 OA
BRANCH  33  35
ATOM     35  O   UNL d   1      21.414 -19.634  -0.754  0.00  0.00    -0.323 OA
ATOM     36  C   UNL d   1      20.120 -20.001  -0.233  0.00  0.00     0.213 C 
ENDBRANCH  33  35
ENDBRANCH   4  33
TORSDOF 10
ENDMDL
MODEL 5
REMARK VINA RESULT:    -8.817      3.465      8.384
REMARK INTER + INTRA:         -14.297
REMARK INTER:                 -11.800
REMARK INTRA:                  -2.497
REMARK CONF_INDEPENDENT:        2.983
REMARK UNBOUND:                -2.497
REMARK  10 active torsions:
REMARK  status: ('A' for Active; 'I' for Inactive)
REMARK    1  A    between atoms: C_2  and  N_3 
REMARK    2  A    between atoms: N_6  and  C_7 
REMARK    3  A    between atoms: C_10  and  C_11 
REMARK    4  A    between atoms: C_11  and  O_13 
REMARK    5  A    between atoms: C_16  and  N_17 
REMARK    6  A    between atoms: N_17  and  C_18 
REMARK    7  A    between atoms: C_18  and  N_20 
REMARK       I    between atoms: N_20  and  C_21 
REMARK    8  A    between atoms: C_21  and  C_23 
REMARK    9  A    between atoms: C_23  and  O_24 
REMARK   10  A    between atoms: O_24  and  C_25 
ROOT
ATOM      1  C   UNL d   1      25.567 -16.276  -1.616  0.00  0.00     0.052 C 
ATOM      2  C   UNL d   1      24.943 -15.370  -2.514  0.00  0.00     0.032 C 
ATOM      3  C   UNL d   1      25.588 -14.813  -3.635  0.00  0.00     0.020 C 
ATOM      4  C   UNL d   1      26.931 -15.085  -3.887  0.00  0.00     0.041 C 
ATOM      5  C   UNL d   1      27.610 -15.929  -2.981  0.00  0.00     0.043 C 
ATOM      6  C   UNL d   1      26.980 -16.480  -1.799  0.00  0.00     0.042 C 
ENDROOT
BRANCH   6   7
ATOM      7  N   UNL d   1      27.886 -17.244  -0.866  0.00  0.00    -0.234 NA
ATOM      8  H   UNL d   1      27.277 -17.533  -0.097  0.00  0.00     0.136 HD
BRANCH   7   9
ATOM      9  C   UNL d   1      29.004 -16.662  -0.266  0.00  0.00     0.157 C 
ATOM     10  S   UNL d   1      30.487 -17.164  -0.861  0.00  0.00    -0.047 SA
BRANCH   9  11
ATOM     11  N   UNL d   1      28.783 -15.405   0.497  0.00  0.00    -0.306 N 
ATOM     12  C   UNL d   1      27.620 -14.503   0.670  0.00  0.00     0.247 C 
ATOM     13  O   UNL d   1      26.925 -13.975  -0.196  0.00  0.00    -0.271 OA
ATOM     14  H   UNL d   1      29.158 -15.579   1.419  0.00  0.00     0.170 HD
BRANCH  12  15
ATOM     15  C   UNL d   1      27.247 -13.952   1.999  0.00  0.00     0.278 C 
BRANCH  15  16
ATOM     16  O   UNL d   1      27.878 -14.828   2.989  0.00  0.00    -0.342 OA
BRANCH  16  17
ATOM     17  C   UNL d   1      28.334 -14.285   4.152  0.00  0.00     0.075 A 
ATOM     18  C   UNL d   1      27.382 -13.676   4.992  0.00  0.00     0.037 A 
ATOM     19  C   UNL d   1      27.773 -13.165   6.234  0.00  0.00     0.003 A 
ATOM     20  C   UNL d   1      29.097 -13.291   6.642  0.00  0.00     0.001 A 
ATOM     21  C   UNL d   1      30.046 -13.819   5.775  0.00  0.00     0.009 A 
ATOM     22  C   UNL d   1      29.684 -14.283   4.513  0.00  0.00    -0.029 A 
ATOM     23  C   UNL d   1      30.772 -14.788   3.627  0.00  0.00     0.051 C 
ENDBRANCH  16  17
ENDBRANCH  15  16
ENDBRANCH  12  15
ENDBRANCH   9  11
ENDBRANCH   7   9
ENDBRANCH   6   7
BRANCH   1  24
ATOM     24  N   UNL d   1      24.733 -16.887  -0.684  0.00  0.00    -0.376 N 
ATOM     25  C   UNL d   1      24.924 -18.231  -0.227  0.00  0.00     0.150 C 
ATOM     26  C   UNL d   1      23.663 -19.026  -0.514  0.00  0.00     0.254 C 
ATOM     27  N   UNL d   1      22.235 -18.531  -0.339  0.00  0.00    -0.068 N 
ATOM     28  C   UNL d   1      22.184 -17.033  -0.629  0.00  0.00     0.254 C 
ATOM     29  H   UNL d   1      22.078 -18.715   0.655  0.00  0.00     0.280 HD
ATOM     30  C   UNL d   1      23.479 -16.292  -0.145  0.00  0.00     0.150 C 
BRANCH  27  31
ATOM     31  C   UNL d   1      21.010 -19.335  -1.014  0.00  0.00     0.230 C 
ATOM     32  C   UNL d   1      19.635 -19.468  -0.331  0.00  0.00     0.034 C 
ENDBRANCH  27  31
ENDBRANCH   1  24
BRANCH   4  33
ATOM     33  C   UNL d   1      27.563 -14.361  -5.063  0.00  0.00     0.293 C 
ATOM     34  O   UNL d   1      27.843 -13.190  -5.033  0.00  0.00    -0.259 OA
BRANCH  33  35
ATOM     35  O   UNL d   1      27.820 -15.200  -6.114  0.00  0.00    -0.323 OA
ATOM     36  C   UNL d   1      28.981 -14.825  -6.884  0.00  0.00     0.213 C 
ENDBRANCH  33  35
ENDBRANCH   4  33
TORSDOF 10
ENDMDL
MODEL 6
REMARK VINA RESULT:    -8.449      2.519      4.539
REMARK INTER + INTRA:         -14.399
REMARK INTER:                 -11.432
REMARK INTRA:                  -2.966
REMARK CONF_INDEPENDENT:        2.983
REMARK UNBOUND:                -2.966
REMARK  10 active torsions:
REMARK  status: ('A' for Active; 'I' for Inactive)
REMARK    1  A    between atoms: C_2  and  N_3 
REMARK    2  A    between atoms: N_6  and  C_7 
REMARK    3  A    between atoms: C_10  and  C_11 
REMARK    4  A    between atoms: C_11  and  O_13 
REMARK    5  A    between atoms: C_16  and  N_17 
REMARK    6  A    between atoms: N_17  and  C_18 
REMARK    7  A    between atoms: C_18  and  N_20 
REMARK       I    between atoms: N_20  and  C_21 
REMARK    8  A    between atoms: C_21  and  C_23 
REMARK    9  A    between atoms: C_23  and  O_24 
REMARK   10  A    between atoms: O_24  and  C_25 
ROOT
ATOM      1  C   UNL d   1      26.514 -15.939  -0.117  0.00  0.00     0.052 C 
ATOM      2  C   UNL d   1      25.155 -15.575  -0.309  0.00  0.00     0.032 C 
ATOM      3  C   UNL d   1      24.120 -16.505  -0.520  0.00  0.00     0.020 C 
ATOM      4  C   UNL d   1      24.400 -17.867  -0.616  0.00  0.00     0.041 C 
ATOM      5  C   UNL d   1      25.749 -18.268  -0.498  0.00  0.00     0.043 C 
ATOM      6  C   UNL d   1      26.835 -17.327  -0.323  0.00  0.00     0.042 C 
ENDROOT
BRANCH   6   7
ATOM      7  N   UNL d   1      28.225 -17.912  -0.358  0.00  0.00    -0.234 NA
ATOM      8  H   UNL d   1      28.562 -17.830   0.605  0.00  0.00     0.136 HD
BRANCH   7   9
ATOM      9  C   UNL d   1      29.238 -17.386  -1.161  0.00  0.00     0.157 C 
ATOM     10  S   UNL d   1      30.716 -18.167  -1.063  0.00  0.00    -0.047 SA
BRANCH   9  11
ATOM     11  N   UNL d   1      28.820 -16.509  -2.286  0.00  0.00    -0.306 N 
ATOM     12  C   UNL d   1      29.549 -15.607  -3.208  0.00  0.00     0.247 C 
ATOM     13  O   UNL d   1      30.333 -14.700  -2.931  0.00  0.00    -0.271 OA
ATOM     14  H   UNL d   1      28.206 -17.075  -2.856  0.00  0.00     0.170 HD
BRANCH  12  15
ATOM     15  C   UNL d   1      29.261 -15.576  -4.665  0.00  0.00     0.278 C 
BRANCH  15  16
ATOM     16  O   UNL d   1      27.852 -15.950  -4.805  0.00  0.00    -0.342 OA
BRANCH  16  17
ATOM     17  C   UNL d   1      26.893 -15.029  -4.508  0.00  0.00     0.075 A 
ATOM     18  C   UNL d   1      25.892 -15.418  -3.597  0.00  0.00     0.037 A 
ATOM     19  C   UNL d   1      24.921 -14.497  -3.193  0.00  0.00     0.003 A 
ATOM     20  C   UNL d   1      24.971 -13.192  -3.673  0.00  0.00     0.001 A 
ATOM     21  C   UNL d   1      25.911 -12.838  -4.632  0.00  0.00     0.009 A 
ATOM     22  C   UNL d   1      26.852 -13.759  -5.087  0.00  0.00    -0.029 A 
ATOM     23  C   UNL d   1      27.793 -13.312  -6.154  0.00  0.00     0.051 C 
ENDBRANCH  16  17
ENDBRANCH  15  16
ENDBRANCH  12  15
ENDBRANCH   9  11
ENDBRANCH   7   9
ENDBRANCH   6   7
BRANCH   1  24
ATOM     24  N   UNL d   1      27.372 -14.917   0.279  0.00  0.00    -0.376 N 
ATOM     25  C   UNL d   1      28.668 -15.159   0.842  0.00  0.00     0.150 C 
ATOM     26  C   UNL d   1      28.733 -14.502   2.209  0.00  0.00     0.254 C 
ATOM     27  N   UNL d   1      28.167 -13.139   2.574  0.00  0.00    -0.068 N 
ATOM     28  C   UNL d   1      26.909 -12.880   1.749  0.00  0.00     0.254 C 
ATOM     29  H   UNL d   1      28.927 -12.519   2.284  0.00  0.00     0.280 HD
ATOM     30  C   UNL d   1      27.021 -13.471   0.299  0.00  0.00     0.150 C 
BRANCH  27  31
ATOM     31  C   UNL d   1      27.986 -12.724   4.123  0.00  0.00     0.230 C 
ATOM     32  C   UNL d   1      27.875 -13.770   5.249  0.00  0.00     0.034 C 
ENDBRANCH  27  31
ENDBRANCH   1  24
BRANCH   4  33
ATOM     33  C   UNL d   1      23.231 -18.781  -0.942  0.00  0.00     0.293 C 
ATOM     34  O   UNL d   1      23.092 -19.302  -2.019  0.00  0.00    -0.259 OA
BRANCH  33  35
ATOM     35  O   UNL d   1      22.408 -18.977   0.134  0.00  0.00    -0.323 OA
ATOM     36  C   UNL d   1      21.033 -19.224  -0.226  0.00  0.00     0.213 C 
ENDBRANCH  33  35
ENDBRANCH   4  33
TORSDOF 10
ENDMDL
MODEL 7
REMARK VINA RESULT:    -8.126      1.377      2.213
REMARK INTER + INTRA:         -14.512
REMARK INTER:                 -11.109
REMARK INTRA:                  -3.403
REMARK CONF_INDEPENDENT:        2.983
REMARK UNBOUND:                -3.403
REMARK  10 active torsions:
REMARK  status: ('A' for Active; 'I' for Inactive)
REMARK    1  A    between atoms: C_2  and  N_3 
REMARK    2  A    between atoms: N_6  and  C_7 
REMARK    3  A    between atoms: C_10  and  C_11 
REMARK    4  A    between atoms: C_11  and  O_13 
REMARK    5  A    between atoms: C_16  and  N_17 
REMARK    6  A    between atoms: N_17  and  C_18 
REMARK    7  A    between atoms: C_18  and  N_20 
REMARK       I    between atoms: N_20  and  C_21 
REMARK    8  A    between atoms: C_21  and  C_23 
REMARK    9  A    between atoms: C_23  and  O_24 
REMARK   10  A    between atoms: O_24  and  C_25 
ROOT
ATOM      1  C   UNL d   1      26.590 -16.994  -0.201  0.00  0.00     0.052 C 
ATOM      2  C   UNL d   1      26.005 -18.268   0.026  0.00  0.00     0.032 C 
ATOM      3  C   UNL d   1      24.647 -18.555  -0.208  0.00  0.00     0.020 C 
ATOM      4  C   UNL d   1      23.772 -17.554  -0.626  0.00  0.00     0.041 C 
ATOM      5  C   UNL d   1      24.298 -16.255  -0.798  0.00  0.00     0.043 C 
ATOM      6  C   UNL d   1      25.682 -15.925  -0.525  0.00  0.00     0.042 C 
ENDROOT
BRANCH   6   7
ATOM      7  N   UNL d   1      26.042 -14.464  -0.625  0.00  0.00    -0.234 NA
ATOM      8  H   UNL d   1      25.156 -13.971  -0.489  0.00  0.00     0.136 HD
BRANCH   7   9
ATOM      9  C   UNL d   1      26.611 -13.911  -1.774  0.00  0.00     0.157 C 
ATOM     10  S   UNL d   1      27.538 -12.538  -1.532  0.00  0.00    -0.047 SA
BRANCH   9  11
ATOM     11  N   UNL d   1      26.696 -14.786  -2.973  0.00  0.00    -0.306 N 
ATOM     12  C   UNL d   1      25.992 -14.811  -4.276  0.00  0.00     0.247 C 
ATOM     13  O   UNL d   1      24.781 -14.813  -4.492  0.00  0.00    -0.271 OA
ATOM     14  H   UNL d   1      27.683 -14.875  -3.172  0.00  0.00     0.170 HD
BRANCH  12  15
ATOM     15  C   UNL d   1      26.716 -15.032  -5.555  0.00  0.00     0.278 C 
BRANCH  15  16
ATOM     16  O   UNL d   1      28.024 -15.579  -5.187  0.00  0.00    -0.342 OA
BRANCH  16  17
ATOM     17  C   UNL d   1      29.102 -15.287  -5.967  0.00  0.00     0.075 A 
ATOM     18  C   UNL d   1      29.078 -14.062  -6.661  0.00  0.00     0.037 A 
ATOM     19  C   UNL d   1      30.185 -13.668  -7.419  0.00  0.00     0.003 A 
ATOM     20  C   UNL d   1      31.314 -14.480  -7.457  0.00  0.00     0.001 A 
ATOM     21  C   UNL d   1      31.300 -15.723  -6.837  0.00  0.00     0.009 A 
ATOM     22  C   UNL d   1      30.186 -16.154  -6.123  0.00  0.00    -0.029 A 
ATOM     23  C   UNL d   1      30.235 -17.522  -5.531  0.00  0.00     0.051 C 
ENDBRANCH  16  17
ENDBRANCH  15  16
ENDBRANCH  12  15
ENDBRANCH   9  11
ENDBRANCH   7   9
ENDBRANCH   6   7
BRANCH   1  24
ATOM     24  N   UNL d   1      27.978 -16.933  -0.115  0.00  0.00    -0.376 N 
ATOM     25  C   UNL d   1      28.672 -15.905   0.604  0.00  0.00     0.150 C 
ATOM     26  C   UNL d   1      29.615 -15.197  -0.352  0.00  0.00     0.254 C 
ATOM     27  N   UNL d   1      30.468 -15.859  -1.423  0.00  0.00    -0.068 N 
ATOM     28  C   UNL d   1      29.732 -17.082  -1.965  0.00  0.00     0.254 C 
ATOM     29  H   UNL d   1      31.290 -16.139  -0.882  0.00  0.00     0.280 HD
ATOM     30  C   UNL d   1      28.916 -17.825  -0.850  0.00  0.00     0.150 C 
BRANCH  27  31
ATOM     31  C   UNL d   1      31.137 -14.971  -2.591  0.00  0.00     0.230 C 
ATOM     32  C   UNL d   1      30.563 -13.608  -3.023  0.00  0.00     0.034 C 
ENDBRANCH  27  31
ENDBRANCH   1  24
BRANCH   4  33
ATOM     33  C   UNL d   1      22.308 -17.939  -0.756  0.00  0.00     0.293 C 
ATOM     34  O   UNL d   1      21.431 -17.127  -0.897  0.00  0.00    -0.259 OA
BRANCH  33  35
ATOM     35  O   UNL d   1      22.125 -19.296  -0.749  0.00  0.00    -0.323 OA
ATOM     36  C   UNL d   1      20.799 -19.700  -0.352  0.00  0.00     0.213 C 
ENDBRANCH  33  35
ENDBRANCH   4  33
TORSDOF 10
ENDMDL
MODEL 8
REMARK VINA RESULT:    -8.041      1.605      2.265
REMARK INTER + INTRA:         -14.302
REMARK INTER:                 -11.024
REMARK INTRA:                  -3.278
REMARK CONF_INDEPENDENT:        2.983
REMARK UNBOUND:                -3.278
REMARK  10 active torsions:
REMARK  status: ('A' for Active; 'I' for Inactive)
REMARK    1  A    between atoms: C_2  and  N_3 
REMARK    2  A    between atoms: N_6  and  C_7 
REMARK    3  A    between atoms: C_10  and  C_11 
REMARK    4  A    between atoms: C_11  and  O_13 
REMARK    5  A    between atoms: C_16  and  N_17 
REMARK    6  A    between atoms: N_17  and  C_18 
REMARK    7  A    between atoms: C_18  and  N_20 
REMARK       I    between atoms: N_20  and  C_21 
REMARK    8  A    between atoms: C_21  and  C_23 
REMARK    9  A    between atoms: C_23  and  O_24 
REMARK   10  A    between atoms: O_24  and  C_25 
ROOT
ATOM      1  C   UNL d   1      26.396 -16.525  -1.089  0.00  0.00     0.052 C 
ATOM      2  C   UNL d   1      26.201 -17.609  -0.193  0.00  0.00     0.032 C 
ATOM      3  C   UNL d   1      24.966 -18.261  -0.014  0.00  0.00     0.020 C 
ATOM      4  C   UNL d   1      23.826 -17.818  -0.682  0.00  0.00     0.041 C 
ATOM      5  C   UNL d   1      23.960 -16.698  -1.533  0.00  0.00     0.043 C 
ATOM      6  C   UNL d   1      25.210 -15.986  -1.702  0.00  0.00     0.042 C 
ENDROOT
BRANCH   6   7
ATOM      7  N   UNL d   1      25.143 -14.730  -2.535  0.00  0.00    -0.234 NA
ATOM      8  H   UNL d   1      24.801 -15.045  -3.446  0.00  0.00     0.136 HD
BRANCH   7   9
ATOM      9  C   UNL d   1      26.269 -13.949  -2.802  0.00  0.00     0.157 C 
ATOM     10  S   UNL d   1      26.665 -12.827  -1.624  0.00  0.00    -0.047 SA
BRANCH   9  11
ATOM     11  N   UNL d   1      27.208 -14.451  -3.839  0.00  0.00    -0.306 N 
ATOM     12  C   UNL d   1      27.058 -14.818  -5.266  0.00  0.00     0.247 C 
ATOM     13  O   UNL d   1      26.248 -15.592  -5.776  0.00  0.00    -0.271 OA
ATOM     14  H   UNL d   1      28.023 -13.857  -3.775  0.00  0.00     0.170 HD
BRANCH  12  15
ATOM     15  C   UNL d   1      28.050 -14.404  -6.291  0.00  0.00     0.278 C 
BRANCH  15  16
ATOM     16  O   UNL d   1      29.300 -14.163  -5.567  0.00  0.00    -0.342 OA
BRANCH  16  17
ATOM     17  C   UNL d   1      30.101 -15.222  -5.264  0.00  0.00     0.075 A 
ATOM     18  C   UNL d   1      30.033 -16.341  -6.116  0.00  0.00     0.037 A 
ATOM     19  C   UNL d   1      30.882 -17.432  -5.904  0.00  0.00     0.003 A 
ATOM     20  C   UNL d   1      31.808 -17.389  -4.867  0.00  0.00     0.001 A 
ATOM     21  C   UNL d   1      31.813 -16.318  -3.981  0.00  0.00     0.009 A 
ATOM     22  C   UNL d   1      30.938 -15.248  -4.146  0.00  0.00    -0.029 A 
ATOM     23  C   UNL d   1      30.975 -14.164  -3.122  0.00  0.00     0.051 C 
ENDBRANCH  16  17
ENDBRANCH  15  16
ENDBRANCH  12  15
ENDBRANCH   9  11
ENDBRANCH   7   9
ENDBRANCH   6   7
BRANCH   1  24
ATOM     24  N   UNL d   1      27.714 -16.130  -1.296  0.00  0.00    -0.376 N 
ATOM     25  C   UNL d   1      28.551 -16.700  -2.310  0.00  0.00     0.150 C 
ATOM     26  C   UNL d   1      29.790 -17.277  -1.649  0.00  0.00     0.254 C 
ATOM     27  N   UNL d   1      30.575 -16.641  -0.512  0.00  0.00    -0.068 N 
ATOM     28  C   UNL d   1      29.617 -15.864   0.387  0.00  0.00     0.254 C 
ATOM     29  H   UNL d   1      31.192 -16.005  -1.024  0.00  0.00     0.280 HD
ATOM     30  C   UNL d   1      28.464 -15.180  -0.429  0.00  0.00     0.150 C 
BRANCH  27  31
ATOM     31  C   UNL d   1      31.638 -17.517   0.327  0.00  0.00     0.230 C 
ATOM     32  C   UNL d   1      32.280 -17.006   1.632  0.00  0.00     0.034 C 
ENDBRANCH  27  31
ENDBRANCH   1  24
BRANCH   4  33
ATOM     33  C   UNL d   1      22.524 -18.524  -0.348  0.00  0.00     0.293 C 
ATOM     34  O   UNL d   1      22.076 -18.570   0.769  0.00  0.00    -0.259 OA
BRANCH  33  35
ATOM     35  O   UNL d   1      21.911 -19.038  -1.459  0.00  0.00    -0.323 OA
ATOM     36  C   UNL d   1      20.509 -19.322  -1.269  0.00  0.00     0.213 C 
ENDBRANCH  33  35
ENDBRANCH   4  33
TORSDOF 10
ENDMDL
MODEL 9
REMARK VINA RESULT:    -7.978      2.541      4.274
REMARK INTER + INTRA:         -14.197
REMARK INTER:                 -10.961
REMARK INTRA:                  -3.236
REMARK CONF_INDEPENDENT:        2.983
REMARK UNBOUND:                -3.236
REMARK  10 active torsions:
REMARK  status: ('A' for Active; 'I' for Inactive)
REMARK    1  A    between atoms: C_2  and  N_3 
REMARK    2  A    between atoms: N_6  and  C_7 
REMARK    3  A    between atoms: C_10  and  C_11 
REMARK    4  A    between atoms: C_11  and  O_13 
REMARK    5  A    between atoms: C_16  and  N_17 
REMARK    6  A    between atoms: N_17  and  C_18 
REMARK    7  A    between atoms: C_18  and  N_20 
REMARK       I    between atoms: N_20  and  C_21 
REMARK    8  A    between atoms: C_21  and  C_23 
REMARK    9  A    between atoms: C_23  and  O_24 
REMARK   10  A    between atoms: O_24  and  C_25 
ROOT
ATOM      1  C   UNL d   1      26.872 -15.777   0.036  0.00  0.00     0.052 C 
ATOM      2  C   UNL d   1      25.521 -15.378  -0.145  0.00  0.00     0.032 C 
ATOM      3  C   UNL d   1      24.468 -16.278  -0.389  0.00  0.00     0.020 C 
ATOM      4  C   UNL d   1      24.719 -17.642  -0.533  0.00  0.00     0.041 C 
ATOM      5  C   UNL d   1      26.059 -18.075  -0.428  0.00  0.00     0.043 C 
ATOM      6  C   UNL d   1      27.165 -17.163  -0.219  0.00  0.00     0.042 C 
ENDROOT
BRANCH   6   7
ATOM      7  N   UNL d   1      28.542 -17.776  -0.273  0.00  0.00    -0.234 NA
ATOM      8  H   UNL d   1      28.984 -17.492   0.605  0.00  0.00     0.136 HD
BRANCH   7   9
ATOM      9  C   UNL d   1      29.460 -17.465  -1.278  0.00  0.00     0.157 C 
ATOM     10  S   UNL d   1      30.755 -18.516  -1.424  0.00  0.00    -0.047 SA
BRANCH   9  11
ATOM     11  N   UNL d   1      29.004 -16.534  -2.344  0.00  0.00    -0.306 N 
ATOM     12  C   UNL d   1      29.704 -15.607  -3.263  0.00  0.00     0.247 C 
ATOM     13  O   UNL d   1      30.518 -14.726  -2.989  0.00  0.00    -0.271 OA
ATOM     14  H   UNL d   1      28.352 -17.065  -2.904  0.00  0.00     0.170 HD
BRANCH  12  15
ATOM     15  C   UNL d   1      29.345 -15.510  -4.702  0.00  0.00     0.278 C 
BRANCH  15  16
ATOM     16  O   UNL d   1      27.948 -15.941  -4.798  0.00  0.00    -0.342 OA
BRANCH  16  17
ATOM     17  C   UNL d   1      26.962 -15.050  -4.498  0.00  0.00     0.075 A 
ATOM     18  C   UNL d   1      25.988 -15.462  -3.569  0.00  0.00     0.037 A 
ATOM     19  C   UNL d   1      24.991 -14.570  -3.162  0.00  0.00     0.003 A 
ATOM     20  C   UNL d   1      24.988 -13.271  -3.660  0.00  0.00     0.001 A 
ATOM     21  C   UNL d   1      25.902 -12.897  -4.636  0.00  0.00     0.009 A 
ATOM     22  C   UNL d   1      26.868 -13.790  -5.093  0.00  0.00    -0.029 A 
ATOM     23  C   UNL d   1      27.779 -13.324  -6.178  0.00  0.00     0.051 C 
ENDBRANCH  16  17
ENDBRANCH  15  16
ENDBRANCH  12  15
ENDBRANCH   9  11
ENDBRANCH   7   9
ENDBRANCH   6   7
BRANCH   1  24
ATOM     24  N   UNL d   1      27.751 -14.788   0.469  0.00  0.00    -0.376 N 
ATOM     25  C   UNL d   1      28.937 -14.427  -0.250  0.00  0.00     0.150 C 
ATOM     26  C   UNL d   1      30.134 -14.609   0.665  0.00  0.00     0.254 C 
ATOM     27  N   UNL d   1      30.195 -14.245   2.141  0.00  0.00    -0.068 N 
ATOM     28  C   UNL d   1      28.816 -14.449   2.765  0.00  0.00     0.254 C 
ATOM     29  H   UNL d   1      30.431 -13.251   2.094  0.00  0.00     0.280 HD
ATOM     30  C   UNL d   1      27.658 -14.079   1.774  0.00  0.00     0.150 C 
BRANCH  27  31
ATOM     31  C   UNL d   1      31.384 -14.816   3.068  0.00  0.00     0.230 C 
ATOM     32  C   UNL d   1      32.786 -15.130   2.511  0.00  0.00     0.034 C 
ENDBRANCH  27  31
ENDBRANCH   1  24
BRANCH   4  33
ATOM     33  C   UNL d   1      23.532 -18.518  -0.892  0.00  0.00     0.293 C 
ATOM     34  O   UNL d   1      23.283 -18.846  -2.024  0.00  0.00    -0.259 OA
BRANCH  33  35
ATOM     35  O   UNL d   1      22.833 -18.925   0.212  0.00  0.00    -0.323 OA
ATOM     36  C   UNL d   1      21.406 -18.988   0.005  0.00  0.00     0.213 C 
ENDBRANCH  33  35
ENDBRANCH   4  33
TORSDOF 10
ENDMDL
