MODEL 1
REMARK VINA RESULT:    -8.476      0.000      0.000
REMARK INTER + INTRA:         -16.049
REMARK INTER:                 -12.353
REMARK INTRA:                  -3.696
REMARK CONF_INDEPENDENT:        3.878
REMARK UNBOUND:                -3.696
REMARK  13 active torsions:
REMARK  status: ('A' for Active; 'I' for Inactive)
REMARK    1  A    between atoms: C_2  and  C_3 
REMARK    2  A    between atoms: C_3  and  C_4 
REMARK    3  A    between atoms: C_4  and  N_5 
REMARK       I    between atoms: N_5  and  C_6 
REMARK    4  A    between atoms: C_8  and  C_6 
REMARK    5  A    between atoms: C_8  and  N_16 
REMARK    6  A    between atoms: C_8  and  C_9 
REMARK    7  A    between atoms: C_13  and  O_14 
REMARK    8  A    between atoms: N_16  and  C_17 
REMARK       I    between atoms: N_16  and  C_20 
REMARK    9  A    between atoms: C_17  and  C_18 
REMARK   10  A    between atoms: C_20  and  C_22 
REMARK   11  A    between atoms: C_22  and  O_23 
REMARK   12  A    between atoms: C_22  and  C_24 
REMARK   13  A    between atoms: C_22  and  C_30 
ROOT
ATOM      1  N   UNL d   1      26.238 -13.736  -2.946  0.00  0.00    -0.331 N 
ATOM      2  C   UNL d   1      25.747 -15.015  -2.549  0.00  0.00     0.265 C 
ATOM      3  O   UNL d   1      25.121 -15.700  -3.375  0.00  0.00    -0.269 OA
ENDROOT
BRANCH   1   4
ATOM      4  C   UNL d   1      25.968 -13.336  -4.403  0.00  0.00     0.212 C 
BRANCH   4   5
ATOM      5  C   UNL d   1      26.033 -11.827  -4.819  0.00  0.00    -0.024 C 
ATOM      6  C   UNL d   1      26.226 -11.379  -6.144  0.00  0.00     0.010 C 
ATOM      7  C   UNL d   1      25.793 -10.077  -6.528  0.00  0.00     0.003 C 
ATOM      8  C   UNL d   1      25.406  -9.135  -5.575  0.00  0.00     0.036 C 
ATOM      9  C   UNL d   1      25.436  -9.508  -4.249  0.00  0.00     0.066 C 
ATOM     10  C   UNL d   1      25.733 -10.815  -3.889  0.00  0.00     0.046 C 
BRANCH   9  11
ATOM     11  O   UNL d   1      25.116  -8.675  -3.221  0.00  0.00    -0.361 OA
ATOM     12  H   UNL d   1      24.404  -8.080  -3.494  0.00  0.00     0.217 HD
ENDBRANCH   9  11
ENDBRANCH   4   5
BRANCH   4  13
ATOM     13  C   UNL d   1      26.983 -14.223  -5.252  0.00  0.00     0.245 C 
ATOM     14  N   UNL d   1      28.231 -13.679  -5.505  0.00  0.00    -0.359 N 
ATOM     15  H   UNL d   1      28.266 -12.659  -5.558  0.00  0.00     0.162 HD
ATOM     16  O   UNL d   1      26.700 -15.285  -5.774  0.00  0.00    -0.271 OA
BRANCH  14  17
ATOM     17  C   UNL d   1      29.120 -14.450  -6.341  0.00  0.00     0.122 C 
BRANCH  17  18
ATOM     18  C   UNL d   1      30.016 -15.360  -5.533  0.00  0.00     0.019 C 
BRANCH  18  19
ATOM     19  C   UNL d   1      30.371 -16.598  -6.346  0.00  0.00    -0.003 C 
ATOM     20  C   UNL d   1      30.407 -17.819  -5.451  0.00  0.00     0.005 C 
ENDBRANCH  18  19
ENDBRANCH  17  18
ENDBRANCH  14  17
ENDBRANCH   4  13
ENDBRANCH   1   4
BRANCH   1  21
ATOM     21  C   UNL d   1      26.810 -12.841  -1.934  0.00  0.00     0.127 C 
BRANCH  21  22
ATOM     22  C   UNL d   1      28.257 -12.888  -1.582  0.00  0.00     0.015 C 
ATOM     23  C   UNL d   1      29.332 -12.800  -2.622  0.00  0.00     0.006 C 
ENDBRANCH  21  22
ENDBRANCH   1  21
BRANCH   2  24
ATOM     24  C   UNL d   1      25.964 -15.586  -1.047  0.00  0.00     0.194 C 
BRANCH  24  25
ATOM     25  O   UNL d   1      25.947 -14.552  -0.054  0.00  0.00    -0.371 OA
ATOM     26  H   UNL d   1      25.948 -14.917   0.831  0.00  0.00     0.212 HD
ENDBRANCH  24  25
BRANCH  24  27
ATOM     27  C   UNL d   1      24.891 -16.670  -0.742  0.00  0.00    -0.010 C 
ATOM     28  C   UNL d   1      25.209 -18.004  -0.439  0.00  0.00     0.011 C 
ATOM     29  C   UNL d   1      24.208 -18.938  -0.146  0.00  0.00     0.001 C 
ATOM     30  C   UNL d   1      22.864 -18.591  -0.237  0.00  0.00     0.000 C 
ATOM     31  C   UNL d   1      22.519 -17.291  -0.531  0.00  0.00     0.001 C 
ATOM     32  C   UNL d   1      23.525 -16.345  -0.652  0.00  0.00     0.011 C 
ENDBRANCH  24  27
BRANCH  24  33
ATOM     33  C   UNL d   1      27.432 -16.137  -0.934  0.00  0.00    -0.010 A 
ATOM     34  C   UNL d   1      28.202 -15.988   0.233  0.00  0.00     0.011 A 
ATOM     35  C   UNL d   1      29.573 -16.285   0.229  0.00  0.00     0.001 A 
ATOM     36  C   UNL d   1      30.183 -16.854  -0.888  0.00  0.00     0.000 A 
ATOM     37  C   UNL d   1      29.439 -17.074  -2.023  0.00  0.00     0.001 A 
ATOM     38  C   UNL d   1      28.118 -16.665  -2.044  0.00  0.00     0.011 A 
ENDBRANCH  24  33
ENDBRANCH   2  24
TORSDOF 13
ENDMDL
MODEL 2
REMARK VINA RESULT:    -8.317      2.190      7.017
REMARK INTER + INTRA:         -15.538
REMARK INTER:                 -12.195
REMARK INTRA:                  -3.343
REMARK CONF_INDEPENDENT:        3.878
REMARK UNBOUND:                -3.343
REMARK  13 active torsions:
REMARK  status: ('A' for Active; 'I' for Inactive)
REMARK    1  A    between atoms: C_2  and  C_3 
REMARK    2  A    between atoms: C_3  and  C_4 
REMARK    3  A    between atoms: C_4  and  N_5 
REMARK       I    between atoms: N_5  and  C_6 
REMARK    4  A    between atoms: C_8  and  C_6 
REMARK    5  A    between atoms: C_8  and  N_16 
REMARK    6  A    between atoms: C_8  and  C_9 
REMARK    7  A    between atoms: C_13  and  O_14 
REMARK    8  A    between atoms: N_16  and  C_17 
REMARK       I    between atoms: N_16  and  C_20 
REMARK    9  A    between atoms: C_17  and  C_18 
REMARK   10  A    between atoms: C_20  and  C_22 
REMARK   11  A    between atoms: C_22  and  O_23 
REMARK   12  A    between atoms: C_22  and  C_24 
REMARK   13  A    between atoms: C_22  and  C_30 
ROOT
ATOM      1  N   UNL d   1      26.906 -15.699  -2.295  0.00  0.00    -0.331 N 
ATOM      2  C   UNL d   1      27.963 -15.189  -3.106  0.00  0.00     0.265 C 
ATOM      3  O   UNL d   1      29.092 -15.059  -2.605  0.00  0.00    -0.269 OA
ENDROOT
BRANCH   1   4
ATOM      4  C   UNL d   1      27.285 -16.078  -0.857  0.00  0.00     0.212 C 
BRANCH   4   5
ATOM      5  C   UNL d   1      27.372 -14.966   0.242  0.00  0.00    -0.024 C 
ATOM      6  C   UNL d   1      26.653 -13.751   0.197  0.00  0.00     0.010 C 
ATOM      7  C   UNL d   1      26.387 -13.035   1.400  0.00  0.00     0.003 C 
ATOM      8  C   UNL d   1      27.028 -13.366   2.595  0.00  0.00     0.036 C 
ATOM      9  C   UNL d   1      27.912 -14.422   2.581  0.00  0.00     0.066 C 
ATOM     10  C   UNL d   1      28.069 -15.199   1.441  0.00  0.00     0.046 C 
BRANCH   9  11
ATOM     11  O   UNL d   1      28.625 -14.825   3.668  0.00  0.00    -0.361 OA
ATOM     12  H   UNL d   1      28.545 -15.783   3.774  0.00  0.00     0.217 HD
ENDBRANCH   9  11
ENDBRANCH   4   5
BRANCH   4  13
ATOM     13  C   UNL d   1      26.242 -17.216  -0.460  0.00  0.00     0.245 C 
ATOM     14  N   UNL d   1      24.938 -16.816  -0.220  0.00  0.00    -0.359 N 
ATOM     15  H   UNL d   1      24.827 -15.864   0.137  0.00  0.00     0.162 HD
ATOM     16  O   UNL d   1      26.535 -18.378  -0.254  0.00  0.00    -0.271 OA
BRANCH  14  17
ATOM     17  C   UNL d   1      24.015 -17.835   0.216  0.00  0.00     0.122 C 
BRANCH  17  18
ATOM     18  C   UNL d   1      23.289 -18.481  -0.941  0.00  0.00     0.019 C 
BRANCH  18  19
ATOM     19  C   UNL d   1      21.811 -18.116  -0.899  0.00  0.00    -0.003 C 
ATOM     20  C   UNL d   1      20.985 -19.328  -0.522  0.00  0.00     0.005 C 
ENDBRANCH  18  19
ENDBRANCH  17  18
ENDBRANCH  14  17
ENDBRANCH   4  13
ENDBRANCH   1   4
BRANCH   1  21
ATOM     21  C   UNL d   1      25.532 -15.681  -2.813  0.00  0.00     0.127 C 
BRANCH  21  22
ATOM     22  C   UNL d   1      24.693 -14.452  -2.749  0.00  0.00     0.015 C 
ATOM     23  C   UNL d   1      24.284 -13.701  -3.980  0.00  0.00     0.006 C 
ENDBRANCH  21  22
ENDBRANCH   1  21
BRANCH   2  24
ATOM     24  C   UNL d   1      27.726 -14.757  -4.650  0.00  0.00     0.194 C 
BRANCH  24  25
ATOM     25  O   UNL d   1      26.749 -15.575  -5.309  0.00  0.00    -0.371 OA
ATOM     26  H   UNL d   1      25.871 -15.199  -5.235  0.00  0.00     0.212 HD
ENDBRANCH  24  25
BRANCH  24  27
ATOM     27  C   UNL d   1      27.329 -13.254  -4.716  0.00  0.00    -0.010 C 
ATOM     28  C   UNL d   1      27.381 -12.396  -3.606  0.00  0.00     0.011 C 
ATOM     29  C   UNL d   1      27.038 -11.043  -3.720  0.00  0.00     0.001 C 
ATOM     30  C   UNL d   1      26.546 -10.534  -4.917  0.00  0.00     0.000 C 
ATOM     31  C   UNL d   1      26.482 -11.350  -6.024  0.00  0.00     0.001 C 
ATOM     32  C   UNL d   1      26.985 -12.638  -5.932  0.00  0.00     0.011 C 
ENDBRANCH  24  27
BRANCH  24  33
ATOM     33  C   UNL d   1      29.033 -15.075  -5.461  0.00  0.00    -0.010 A 
ATOM     34  C   UNL d   1      29.601 -14.158  -6.363  0.00  0.00     0.011 A 
ATOM     35  C   UNL d   1      30.629 -14.551  -7.233  0.00  0.00     0.001 A 
ATOM     36  C   UNL d   1      31.203 -15.819  -7.143  0.00  0.00     0.000 A 
ATOM     37  C   UNL d   1      30.714 -16.716  -6.223  0.00  0.00     0.001 A 
ATOM     38  C   UNL d   1      29.620 -16.355  -5.455  0.00  0.00     0.011 A 
ENDBRANCH  24  33
ENDBRANCH   2  24
TORSDOF 13
ENDMDL
MODEL 3
REMARK VINA RESULT:    -7.946      1.869      6.863
REMARK INTER + INTRA:         -15.449
REMARK INTER:                 -11.824
REMARK INTRA:                  -3.625
REMARK CONF_INDEPENDENT:        3.878
REMARK UNBOUND:                -3.625
REMARK  13 active torsions:
REMARK  status: ('A' for Active; 'I' for Inactive)
REMARK    1  A    between atoms: C_2  and  C_3 
REMARK    2  A    between atoms: C_3  and  C_4 
REMARK    3  A    between atoms: C_4  and  N_5 
REMARK       I    between atoms: N_5  and  C_6 
REMARK    4  A    between atoms: C_8  and  C_6 
REMARK    5  A    between atoms: C_8  and  N_16 
REMARK    6  A    between atoms: C_8  and  C_9 
REMARK    7  A    between atoms: C_13  and  O_14 
REMARK    8  A    between atoms: N_16  and  C_17 
REMARK       I    between atoms: N_16  and  C_20 
REMARK    9  A    between atoms: C_17  and  C_18 
REMARK   10  A    between atoms: C_20  and  C_22 
REMARK   11  A    between atoms: C_22  and  O_23 
REMARK   12  A    between atoms: C_22  and  C_24 
REMARK   13  A    between atoms: C_22  and  C_30 
ROOT
ATOM      1  N   UNL d   1      27.381 -15.576  -3.381  0.00  0.00    -0.331 N 
ATOM      2  C   UNL d   1      27.842 -15.419  -4.722  0.00  0.00     0.265 C 
ATOM      3  O   UNL d   1      27.014 -15.445  -5.647  0.00  0.00    -0.269 OA
ENDROOT
BRANCH   1   4
ATOM      4  C   UNL d   1      25.864 -15.732  -3.206  0.00  0.00     0.212 C 
BRANCH   4   5
ATOM      5  C   UNL d   1      25.291 -16.301  -1.864  0.00  0.00    -0.024 C 
ATOM      6  C   UNL d   1      23.947 -16.160  -1.455  0.00  0.00     0.010 C 
ATOM      7  C   UNL d   1      23.384 -17.080  -0.524  0.00  0.00     0.003 C 
ATOM      8  C   UNL d   1      24.189 -17.971   0.188  0.00  0.00     0.036 C 
ATOM      9  C   UNL d   1      25.545 -17.948  -0.053  0.00  0.00     0.066 C 
ATOM     10  C   UNL d   1      26.073 -17.143  -1.053  0.00  0.00     0.046 C 
BRANCH   9  11
ATOM     11  O   UNL d   1      26.442 -18.740   0.597  0.00  0.00    -0.361 OA
ATOM     12  H   UNL d   1      27.216 -18.218   0.847  0.00  0.00     0.217 HD
ENDBRANCH   9  11
ENDBRANCH   4   5
BRANCH   4  13
ATOM     13  C   UNL d   1      25.278 -14.285  -3.528  0.00  0.00     0.245 C 
ATOM     14  N   UNL d   1      26.098 -13.202  -3.255  0.00  0.00    -0.359 N 
ATOM     15  H   UNL d   1      26.762 -13.333  -2.490  0.00  0.00     0.162 HD
ATOM     16  O   UNL d   1      24.138 -14.068  -3.892  0.00  0.00    -0.271 OA
BRANCH  14  17
ATOM     17  C   UNL d   1      25.536 -11.891  -3.473  0.00  0.00     0.122 C 
BRANCH  17  18
ATOM     18  C   UNL d   1      26.545 -10.928  -4.053  0.00  0.00     0.019 C 
BRANCH  18  19
ATOM     19  C   UNL d   1      26.953 -11.378  -5.450  0.00  0.00    -0.003 C 
ATOM     20  C   UNL d   1      25.848 -11.075  -6.441  0.00  0.00     0.005 C 
ENDBRANCH  18  19
ENDBRANCH  17  18
ENDBRANCH  14  17
ENDBRANCH   4  13
ENDBRANCH   1   4
BRANCH   1  21
ATOM     21  C   UNL d   1      28.360 -15.736  -2.300  0.00  0.00     0.127 C 
BRANCH  21  22
ATOM     22  C   UNL d   1      28.530 -14.699  -1.245  0.00  0.00     0.015 C 
ATOM     23  C   UNL d   1      28.100 -14.927   0.173  0.00  0.00     0.006 C 
ENDBRANCH  21  22
ENDBRANCH   1  21
BRANCH   2  24
ATOM     24  C   UNL d   1      29.414 -15.230  -5.070  0.00  0.00     0.194 C 
BRANCH  24  25
ATOM     25  O   UNL d   1      30.172 -14.743  -3.954  0.00  0.00    -0.371 OA
ATOM     26  H   UNL d   1      29.744 -13.991  -3.543  0.00  0.00     0.212 HD
ENDBRANCH  24  25
BRANCH  24  27
ATOM     27  C   UNL d   1      29.997 -16.573  -5.596  0.00  0.00    -0.010 C 
ATOM     28  C   UNL d   1      30.603 -16.707  -6.855  0.00  0.00     0.011 C 
ATOM     29  C   UNL d   1      31.136 -17.932  -7.275  0.00  0.00     0.001 C 
ATOM     30  C   UNL d   1      30.996 -19.073  -6.491  0.00  0.00     0.000 C 
ATOM     31  C   UNL d   1      30.407 -18.975  -5.251  0.00  0.00     0.001 C 
ATOM     32  C   UNL d   1      30.039 -17.722  -4.786  0.00  0.00     0.011 C 
ENDBRANCH  24  27
BRANCH  24  33
ATOM     33  C   UNL d   1      29.555 -14.059  -6.108  0.00  0.00    -0.010 A 
ATOM     34  C   UNL d   1      30.356 -12.930  -5.863  0.00  0.00     0.011 A 
ATOM     35  C   UNL d   1      30.286 -11.807  -6.701  0.00  0.00     0.001 A 
ATOM     36  C   UNL d   1      29.520 -11.824  -7.866  0.00  0.00     0.000 A 
ATOM     37  C   UNL d   1      28.778 -12.941  -8.168  0.00  0.00     0.001 A 
ATOM     38  C   UNL d   1      28.763 -13.994  -7.270  0.00  0.00     0.011 A 
ENDBRANCH  24  33
ENDBRANCH   2  24
TORSDOF 13
ENDMDL
MODEL 4
REMARK VINA RESULT:    -7.641      1.526      3.638
REMARK INTER + INTRA:         -15.229
REMARK INTER:                 -11.519
REMARK INTRA:                  -3.710
REMARK CONF_INDEPENDENT:        3.878
REMARK UNBOUND:                -3.710
REMARK  13 active torsions:
REMARK  status: ('A' for Active; 'I' for Inactive)
REMARK    1  A    between atoms: C_2  and  C_3 
REMARK    2  A    between atoms: C_3  and  C_4 
REMARK    3  A    between atoms: C_4  and  N_5 
REMARK       I    between atoms: N_5  and  C_6 
REMARK    4  A    between atoms: C_8  and  C_6 
REMARK    5  A    between atoms: C_8  and  N_16 
REMARK    6  A    between atoms: C_8  and  C_9 
REMARK    7  A    between atoms: C_13  and  O_14 
REMARK    8  A    between atoms: N_16  and  C_17 
REMARK       I    between atoms: N_16  and  C_20 
REMARK    9  A    between atoms: C_17  and  C_18 
REMARK   10  A    between atoms: C_20  and  C_22 
REMARK   11  A    between atoms: C_22  and  O_23 
REMARK   12  A    between atoms: C_22  and  C_24 
REMARK   13  A    between atoms: C_22  and  C_30 
ROOT
ATOM      1  N   UNL d   1      26.833 -15.134  -3.403  0.00  0.00    -0.331 N 
ATOM      2  C   UNL d   1      25.767 -15.450  -2.509  0.00  0.00     0.265 C 
ATOM      3  O   UNL d   1      24.626 -15.030  -2.765  0.00  0.00    -0.269 OA
ENDROOT
BRANCH   1   4
ATOM      4  C   UNL d   1      26.451 -14.313  -4.642  0.00  0.00     0.212 C 
BRANCH   4   5
ATOM      5  C   UNL d   1      26.021 -12.816  -4.479  0.00  0.00    -0.024 C 
ATOM      6  C   UNL d   1      25.845 -12.175  -3.233  0.00  0.00     0.010 C 
ATOM      7  C   UNL d   1      25.945 -10.756  -3.140  0.00  0.00     0.003 C 
ATOM      8  C   UNL d   1      25.965  -9.957  -4.284  0.00  0.00     0.036 C 
ATOM      9  C   UNL d   1      25.906 -10.584  -5.509  0.00  0.00     0.066 C 
ATOM     10  C   UNL d   1      25.942 -11.969  -5.598  0.00  0.00     0.046 C 
BRANCH   9  11
ATOM     11  O   UNL d   1      25.885  -9.920  -6.698  0.00  0.00    -0.361 OA
ATOM     12  H   UNL d   1      25.230 -10.324  -7.285  0.00  0.00     0.217 HD
ENDBRANCH   9  11
ENDBRANCH   4   5
BRANCH   4  13
ATOM     13  C   UNL d   1      27.702 -14.463  -5.617  0.00  0.00     0.245 C 
ATOM     14  N   UNL d   1      28.711 -13.521  -5.492  0.00  0.00    -0.359 N 
ATOM     15  H   UNL d   1      28.415 -12.598  -5.166  0.00  0.00     0.162 HD
ATOM     16  O   UNL d   1      27.779 -15.273  -6.521  0.00  0.00    -0.271 OA
BRANCH  14  17
ATOM     17  C   UNL d   1      29.804 -13.611  -6.429  0.00  0.00     0.122 C 
BRANCH  17  18
ATOM     18  C   UNL d   1      30.794 -14.687  -6.048  0.00  0.00     0.019 C 
BRANCH  18  19
ATOM     19  C   UNL d   1      30.773 -15.804  -7.083  0.00  0.00    -0.003 C 
ATOM     20  C   UNL d   1      30.606 -17.146  -6.400  0.00  0.00     0.005 C 
ENDBRANCH  18  19
ENDBRANCH  17  18
ENDBRANCH  14  17
ENDBRANCH   4  13
ENDBRANCH   1   4
BRANCH   1  21
ATOM     21  C   UNL d   1      28.212 -15.461  -3.018  0.00  0.00     0.127 C 
BRANCH  21  22
ATOM     22  C   UNL d   1      29.047 -14.510  -2.234  0.00  0.00     0.015 C 
ATOM     23  C   UNL d   1      29.979 -14.972  -1.154  0.00  0.00     0.006 C 
ENDBRANCH  21  22
ENDBRANCH   1  21
BRANCH   2  24
ATOM     24  C   UNL d   1      26.007 -16.322  -1.164  0.00  0.00     0.194 C 
BRANCH  24  25
ATOM     25  O   UNL d   1      26.881 -17.439  -1.378  0.00  0.00    -0.371 OA
ATOM     26  H   UNL d   1      26.962 -17.975  -0.588  0.00  0.00     0.212 HD
ENDBRANCH  24  25
BRANCH  24  27
ATOM     27  C   UNL d   1      26.548 -15.399  -0.034  0.00  0.00    -0.010 C 
ATOM     28  C   UNL d   1      27.407 -15.849   0.980  0.00  0.00     0.011 C 
ATOM     29  C   UNL d   1      27.889 -14.974   1.962  0.00  0.00     0.001 C 
ATOM     30  C   UNL d   1      27.453 -13.654   2.011  0.00  0.00     0.000 C 
ATOM     31  C   UNL d   1      26.610 -13.182   1.031  0.00  0.00     0.001 C 
ATOM     32  C   UNL d   1      26.281 -14.018  -0.024  0.00  0.00     0.011 C 
ENDBRANCH  24  27
BRANCH  24  33
ATOM     33  C   UNL d   1      24.654 -17.023  -0.779  0.00  0.00    -0.010 A 
ATOM     34  C   UNL d   1      24.555 -18.413  -0.592  0.00  0.00     0.011 A 
ATOM     35  C   UNL d   1      23.302 -19.033  -0.473  0.00  0.00     0.001 A 
ATOM     36  C   UNL d   1      22.130 -18.280  -0.409  0.00  0.00     0.000 A 
ATOM     37  C   UNL d   1      22.201 -16.912  -0.521  0.00  0.00     0.001 A 
ATOM     38  C   UNL d   1      23.432 -16.325  -0.759  0.00  0.00     0.011 A 
ENDBRANCH  24  33
ENDBRANCH   2  24
TORSDOF 13
ENDMDL
MODEL 5
REMARK VINA RESULT:    -7.536      1.697      4.043
REMARK INTER + INTRA:         -15.345
REMARK INTER:                 -11.414
REMARK INTRA:                  -3.931
REMARK CONF_INDEPENDENT:        3.878
REMARK UNBOUND:                -3.931
REMARK  13 active torsions:
REMARK  status: ('A' for Active; 'I' for Inactive)
REMARK    1  A    between atoms: C_2  and  C_3 
REMARK    2  A    between atoms: C_3  and  C_4 
REMARK    3  A    between atoms: C_4  and  N_5 
REMARK       I    between atoms: N_5  and  C_6 
REMARK    4  A    between atoms: C_8  and  C_6 
REMARK    5  A    between atoms: C_8  and  N_16 
REMARK    6  A    between atoms: C_8  and  C_9 
REMARK    7  A    between atoms: C_13  and  O_14 
REMARK    8  A    between atoms: N_16  and  C_17 
REMARK       I    between atoms: N_16  and  C_20 
REMARK    9  A    between atoms: C_17  and  C_18 
REMARK   10  A    between atoms: C_20  and  C_22 
REMARK   11  A    between atoms: C_22  and  O_23 
REMARK   12  A    between atoms: C_22  and  C_24 
REMARK   13  A    between atoms: C_22  and  C_30 
ROOT
ATOM      1  N   UNL d   1      26.877 -15.003  -3.447  0.00  0.00    -0.331 N 
ATOM      2  C   UNL d   1      25.850 -15.311  -2.507  0.00  0.00     0.265 C 
ATOM      3  O   UNL d   1      24.700 -14.891  -2.716  0.00  0.00    -0.269 OA
ENDROOT
BRANCH   1   4
ATOM      4  C   UNL d   1      26.443 -14.190  -4.674  0.00  0.00     0.212 C 
BRANCH   4   5
ATOM      5  C   UNL d   1      25.998 -12.699  -4.500  0.00  0.00    -0.024 C 
ATOM      6  C   UNL d   1      25.819 -12.068  -3.249  0.00  0.00     0.010 C 
ATOM      7  C   UNL d   1      25.904 -10.649  -3.147  0.00  0.00     0.003 C 
ATOM      8  C   UNL d   1      25.912  -9.842  -4.285  0.00  0.00     0.036 C 
ATOM      9  C   UNL d   1      25.856 -10.461  -5.515  0.00  0.00     0.066 C 
ATOM     10  C   UNL d   1      25.906 -11.845  -5.613  0.00  0.00     0.046 C 
BRANCH   9  11
ATOM     11  O   UNL d   1      25.824  -9.790  -6.699  0.00  0.00    -0.361 OA
ATOM     12  H   UNL d   1      24.972  -9.936  -7.133  0.00  0.00     0.217 HD
ENDBRANCH   9  11
ENDBRANCH   4   5
BRANCH   4  13
ATOM     13  C   UNL d   1      27.664 -14.324  -5.690  0.00  0.00     0.245 C 
ATOM     14  N   UNL d   1      28.589 -13.293  -5.698  0.00  0.00    -0.359 N 
ATOM     15  H   UNL d   1      28.225 -12.371  -5.443  0.00  0.00     0.162 HD
ATOM     16  O   UNL d   1      27.778 -15.206  -6.519  0.00  0.00    -0.271 OA
BRANCH  14  17
ATOM     17  C   UNL d   1      29.649 -13.377  -6.673  0.00  0.00     0.122 C 
BRANCH  17  18
ATOM     18  C   UNL d   1      29.245 -12.794  -8.006  0.00  0.00     0.019 C 
BRANCH  18  19
ATOM     19  C   UNL d   1      28.351 -11.578  -7.795  0.00  0.00    -0.003 C 
ATOM     20  C   UNL d   1      27.358 -11.456  -8.932  0.00  0.00     0.005 C 
ENDBRANCH  18  19
ENDBRANCH  17  18
ENDBRANCH  14  17
ENDBRANCH   4  13
ENDBRANCH   1   4
BRANCH   1  21
ATOM     21  C   UNL d   1      28.270 -15.330  -3.120  0.00  0.00     0.127 C 
BRANCH  21  22
ATOM     22  C   UNL d   1      29.103 -14.429  -2.276  0.00  0.00     0.015 C 
ATOM     23  C   UNL d   1      28.917 -12.941  -2.274  0.00  0.00     0.006 C 
ENDBRANCH  21  22
ENDBRANCH   1  21
BRANCH   2  24
ATOM     24  C   UNL d   1      26.146 -16.174  -1.167  0.00  0.00     0.194 C 
BRANCH  24  25
ATOM     25  O   UNL d   1      27.067 -17.250  -1.395  0.00  0.00    -0.371 OA
ATOM     26  H   UNL d   1      27.817 -17.200  -0.801  0.00  0.00     0.212 HD
ENDBRANCH  24  25
BRANCH  24  27
ATOM     27  C   UNL d   1      26.660 -15.230  -0.042  0.00  0.00    -0.010 C 
ATOM     28  C   UNL d   1      26.280 -13.883   0.064  0.00  0.00     0.011 C 
ATOM     29  C   UNL d   1      26.749 -13.078   1.110  0.00  0.00     0.001 C 
ATOM     30  C   UNL d   1      27.680 -13.569   2.020  0.00  0.00     0.000 C 
ATOM     31  C   UNL d   1      28.072 -14.886   1.943  0.00  0.00     0.001 C 
ATOM     32  C   UNL d   1      27.468 -15.708   1.005  0.00  0.00     0.011 C 
ENDBRANCH  24  27
BRANCH  24  33
ATOM     33  C   UNL d   1      24.831 -16.936  -0.766  0.00  0.00    -0.010 A 
ATOM     34  C   UNL d   1      24.810 -18.320  -0.520  0.00  0.00     0.011 A 
ATOM     35  C   UNL d   1      23.593 -19.006  -0.388  0.00  0.00     0.001 A 
ATOM     36  C   UNL d   1      22.379 -18.321  -0.369  0.00  0.00     0.000 A 
ATOM     37  C   UNL d   1      22.373 -16.957  -0.539  0.00  0.00     0.001 A 
ATOM     38  C   UNL d   1      23.571 -16.310  -0.789  0.00  0.00     0.011 A 
ENDBRANCH  24  33
ENDBRANCH   2  24
TORSDOF 13
ENDMDL
MODEL 6
REMARK VINA RESULT:    -7.130      2.159      5.773
REMARK INTER + INTRA:         -15.435
REMARK INTER:                 -11.008
REMARK INTRA:                  -4.427
REMARK CONF_INDEPENDENT:        3.878
REMARK UNBOUND:                -4.427
REMARK  13 active torsions:
REMARK  status: ('A' for Active; 'I' for Inactive)
REMARK    1  A    between atoms: C_2  and  C_3 
REMARK    2  A    between atoms: C_3  and  C_4 
REMARK    3  A    between atoms: C_4  and  N_5 
REMARK       I    between atoms: N_5  and  C_6 
REMARK    4  A    between atoms: C_8  and  C_6 
REMARK    5  A    between atoms: C_8  and  N_16 
REMARK    6  A    between atoms: C_8  and  C_9 
REMARK    7  A    between atoms: C_13  and  O_14 
REMARK    8  A    between atoms: N_16  and  C_17 
REMARK       I    between atoms: N_16  and  C_20 
REMARK    9  A    between atoms: C_17  and  C_18 
REMARK   10  A    between atoms: C_20  and  C_22 
REMARK   11  A    between atoms: C_22  and  O_23 
REMARK   12  A    between atoms: C_22  and  C_24 
REMARK   13  A    between atoms: C_22  and  C_30 
ROOT
ATOM      1  N   UNL d   1      29.043 -15.952  -2.881  0.00  0.00    -0.331 N 
ATOM      2  C   UNL d   1      28.439 -15.149  -1.869  0.00  0.00     0.265 C 
ATOM      3  O   UNL d   1      28.265 -13.939  -2.088  0.00  0.00    -0.269 OA
ENDROOT
BRANCH   1   4
ATOM      4  C   UNL d   1      29.398 -15.230  -4.188  0.00  0.00     0.212 C 
BRANCH   4   5
ATOM      5  C   UNL d   1      30.297 -15.948  -5.251  0.00  0.00    -0.024 C 
ATOM      6  C   UNL d   1      30.371 -17.350  -5.408  0.00  0.00     0.010 C 
ATOM      7  C   UNL d   1      30.786 -17.908  -6.651  0.00  0.00     0.003 C 
ATOM      8  C   UNL d   1      31.359 -17.113  -7.645  0.00  0.00     0.036 C 
ATOM      9  C   UNL d   1      31.494 -15.765  -7.394  0.00  0.00     0.066 C 
ATOM     10  C   UNL d   1      30.971 -15.205  -6.237  0.00  0.00     0.046 C 
BRANCH   9  11
ATOM     11  O   UNL d   1      32.066 -14.888  -8.264  0.00  0.00    -0.361 OA
ATOM     12  H   UNL d   1      31.524 -14.819  -9.062  0.00  0.00     0.217 HD
ENDBRANCH   9  11
ENDBRANCH   4   5
BRANCH   4  13
ATOM     13  C   UNL d   1      27.991 -14.803  -4.800  0.00  0.00     0.245 C 
ATOM     14  N   UNL d   1      27.617 -13.478  -4.647  0.00  0.00    -0.359 N 
ATOM     15  H   UNL d   1      27.985 -13.008  -3.817  0.00  0.00     0.162 HD
ATOM     16  O   UNL d   1      27.189 -15.575  -5.290  0.00  0.00    -0.271 OA
BRANCH  14  17
ATOM     17  C   UNL d   1      26.308 -13.112  -5.131  0.00  0.00     0.122 C 
BRANCH  17  18
ATOM     18  C   UNL d   1      25.209 -13.555  -4.194  0.00  0.00     0.019 C 
BRANCH  18  19
ATOM     19  C   UNL d   1      25.530 -13.121  -2.770  0.00  0.00    -0.003 C 
ATOM     20  C   UNL d   1      26.127 -11.729  -2.770  0.00  0.00     0.005 C 
ENDBRANCH  18  19
ENDBRANCH  17  18
ENDBRANCH  14  17
ENDBRANCH   4  13
ENDBRANCH   1   4
BRANCH   1  21
ATOM     21  C   UNL d   1      29.424 -17.334  -2.568  0.00  0.00     0.127 C 
BRANCH  21  22
ATOM     22  C   UNL d   1      30.780 -17.669  -2.050  0.00  0.00     0.015 C 
ATOM     23  C   UNL d   1      31.683 -16.633  -1.452  0.00  0.00     0.006 C 
ENDBRANCH  21  22
ENDBRANCH   1  21
BRANCH   2  24
ATOM     24  C   UNL d   1      27.993 -15.767  -0.438  0.00  0.00     0.194 C 
BRANCH  24  25
ATOM     25  O   UNL d   1      28.920 -16.745   0.054  0.00  0.00    -0.371 OA
ATOM     26  H   UNL d   1      29.001 -16.700   1.008  0.00  0.00     0.212 HD
ENDBRANCH  24  25
BRANCH  24  27
ATOM     27  C   UNL d   1      27.799 -14.616   0.590  0.00  0.00    -0.010 C 
ATOM     28  C   UNL d   1      28.764 -14.272   1.550  0.00  0.00     0.011 C 
ATOM     29  C   UNL d   1      28.555 -13.210   2.438  0.00  0.00     0.001 C 
ATOM     30  C   UNL d   1      27.344 -12.527   2.455  0.00  0.00     0.000 C 
ATOM     31  C   UNL d   1      26.377 -12.840   1.527  0.00  0.00     0.001 C 
ATOM     32  C   UNL d   1      26.670 -13.778   0.550  0.00  0.00     0.011 C 
ENDBRANCH  24  27
BRANCH  24  33
ATOM     33  C   UNL d   1      26.688 -16.618  -0.650  0.00  0.00    -0.010 A 
ATOM     34  C   UNL d   1      25.800 -16.379  -1.713  0.00  0.00     0.011 A 
ATOM     35  C   UNL d   1      24.541 -16.998  -1.747  0.00  0.00     0.001 A 
ATOM     36  C   UNL d   1      24.186 -17.961  -0.802  0.00  0.00     0.000 A 
ATOM     37  C   UNL d   1      25.063 -18.265   0.211  0.00  0.00     0.001 A 
ATOM     38  C   UNL d   1      26.250 -17.560   0.301  0.00  0.00     0.011 A 
ENDBRANCH  24  33
ENDBRANCH   2  24
TORSDOF 13
ENDMDL
MODEL 7
REMARK VINA RESULT:    -7.099      3.232      5.954
REMARK INTER + INTRA:         -15.127
REMARK INTER:                 -10.977
REMARK INTRA:                  -4.150
REMARK CONF_INDEPENDENT:        3.878
REMARK UNBOUND:                -4.150
REMARK  13 active torsions:
REMARK  status: ('A' for Active; 'I' for Inactive)
REMARK    1  A    between atoms: C_2  and  C_3 
REMARK    2  A    between atoms: C_3  and  C_4 
REMARK    3  A    between atoms: C_4  and  N_5 
REMARK       I    between atoms: N_5  and  C_6 
REMARK    4  A    between atoms: C_8  and  C_6 
REMARK    5  A    between atoms: C_8  and  N_16 
REMARK    6  A    between atoms: C_8  and  C_9 
REMARK    7  A    between atoms: C_13  and  O_14 
REMARK    8  A    between atoms: N_16  and  C_17 
REMARK       I    between atoms: N_16  and  C_20 
REMARK    9  A    between atoms: C_17  and  C_18 
REMARK   10  A    between atoms: C_20  and  C_22 
REMARK   11  A    between atoms: C_22  and  O_23 
REMARK   12  A    between atoms: C_22  and  C_24 
REMARK   13  A    between atoms: C_22  and  C_30 
ROOT
ATOM      1  N   UNL d   1      27.296 -13.748  -0.277  0.00  0.00    -0.331 N 
ATOM      2  C   UNL d   1      27.864 -15.052  -0.386  0.00  0.00     0.265 C 
ATOM      3  O   UNL d   1      28.831 -15.347   0.335  0.00  0.00    -0.269 OA
ENDROOT
BRANCH   1   4
ATOM      4  C   UNL d   1      27.929 -12.825   0.773  0.00  0.00     0.212 C 
BRANCH   4   5
ATOM      5  C   UNL d   1      27.712 -11.277   0.678  0.00  0.00    -0.024 C 
ATOM      6  C   UNL d   1      28.183 -10.477  -0.387  0.00  0.00     0.010 C 
ATOM      7  C   UNL d   1      27.559  -9.228  -0.671  0.00  0.00     0.003 C 
ATOM      8  C   UNL d   1      26.655  -8.653   0.223  0.00  0.00     0.036 C 
ATOM      9  C   UNL d   1      26.368  -9.340   1.382  0.00  0.00     0.066 C 
ATOM     10  C   UNL d   1      26.877 -10.614   1.594  0.00  0.00     0.046 C 
BRANCH   9  11
ATOM     11  O   UNL d   1      25.531  -8.874   2.349  0.00  0.00    -0.361 OA
ATOM     12  H   UNL d   1      26.048  -8.543   3.096  0.00  0.00     0.217 HD
ENDBRANCH   9  11
ENDBRANCH   4   5
BRANCH   4  13
ATOM     13  C   UNL d   1      27.421 -13.405   2.168  0.00  0.00     0.245 C 
ATOM     14  N   UNL d   1      28.321 -14.167   2.895  0.00  0.00    -0.359 N 
ATOM     15  H   UNL d   1      29.015 -14.677   2.344  0.00  0.00     0.162 HD
ATOM     16  O   UNL d   1      26.280 -13.313   2.579  0.00  0.00    -0.271 OA
BRANCH  14  17
ATOM     17  C   UNL d   1      27.834 -14.757   4.118  0.00  0.00     0.122 C 
BRANCH  17  18
ATOM     18  C   UNL d   1      27.494 -13.715   5.158  0.00  0.00     0.019 C 
BRANCH  18  19
ATOM     19  C   UNL d   1      28.565 -13.689   6.240  0.00  0.00    -0.003 C 
ATOM     20  C   UNL d   1      29.747 -14.542   5.827  0.00  0.00     0.005 C 
ENDBRANCH  18  19
ENDBRANCH  17  18
ENDBRANCH  14  17
ENDBRANCH   4  13
ENDBRANCH   1   4
BRANCH   1  21
ATOM     21  C   UNL d   1      26.281 -13.324  -1.249  0.00  0.00     0.127 C 
BRANCH  21  22
ATOM     22  C   UNL d   1      26.603 -12.362  -2.339  0.00  0.00     0.015 C 
ATOM     23  C   UNL d   1      25.720 -12.193  -3.539  0.00  0.00     0.006 C 
ENDBRANCH  21  22
ENDBRANCH   1  21
BRANCH   2  24
ATOM     24  C   UNL d   1      27.297 -16.147  -1.439  0.00  0.00     0.194 C 
BRANCH  24  25
ATOM     25  O   UNL d   1      28.169 -17.277  -1.585  0.00  0.00    -0.371 OA
ATOM     26  H   UNL d   1      28.931 -17.206  -1.008  0.00  0.00     0.212 HD
ENDBRANCH  24  25
BRANCH  24  27
ATOM     27  C   UNL d   1      25.872 -16.596  -1.007  0.00  0.00    -0.010 C 
ATOM     28  C   UNL d   1      24.712 -15.864  -1.305  0.00  0.00     0.011 C 
ATOM     29  C   UNL d   1      23.447 -16.322  -0.916  0.00  0.00     0.001 C 
ATOM     30  C   UNL d   1      23.315 -17.470  -0.142  0.00  0.00     0.000 C 
ATOM     31  C   UNL d   1      24.433 -18.210   0.168  0.00  0.00     0.001 C 
ATOM     32  C   UNL d   1      25.653 -17.831  -0.369  0.00  0.00     0.011 C 
ENDBRANCH  24  27
BRANCH  24  33
ATOM     33  C   UNL d   1      27.324 -15.514  -2.877  0.00  0.00    -0.010 A 
ATOM     34  C   UNL d   1      26.219 -15.571  -3.744  0.00  0.00     0.011 A 
ATOM     35  C   UNL d   1      26.346 -15.201  -5.092  0.00  0.00     0.001 A 
ATOM     36  C   UNL d   1      27.530 -14.647  -5.578  0.00  0.00     0.000 A 
ATOM     37  C   UNL d   1      28.608 -14.515  -4.734  0.00  0.00     0.001 A 
ATOM     38  C   UNL d   1      28.506 -14.997  -3.441  0.00  0.00     0.011 A 
ENDBRANCH  24  33
ENDBRANCH   2  24
TORSDOF 13
ENDMDL
MODEL 8
REMARK VINA RESULT:    -7.023      1.836      6.578
REMARK INTER + INTRA:         -15.217
REMARK INTER:                 -10.901
REMARK INTRA:                  -4.316
REMARK CONF_INDEPENDENT:        3.878
REMARK UNBOUND:                -4.316
REMARK  13 active torsions:
REMARK  status: ('A' for Active; 'I' for Inactive)
REMARK    1  A    between atoms: C_2  and  C_3 
REMARK    2  A    between atoms: C_3  and  C_4 
REMARK    3  A    between atoms: C_4  and  N_5 
REMARK       I    between atoms: N_5  and  C_6 
REMARK    4  A    between atoms: C_8  and  C_6 
REMARK    5  A    between atoms: C_8  and  N_16 
REMARK    6  A    between atoms: C_8  and  C_9 
REMARK    7  A    between atoms: C_13  and  O_14 
REMARK    8  A    between atoms: N_16  and  C_17 
REMARK       I    between atoms: N_16  and  C_20 
REMARK    9  A    between atoms: C_17  and  C_18 
REMARK   10  A    between atoms: C_20  and  C_22 
REMARK   11  A    between atoms: C_22  and  O_23 
REMARK   12  A    between atoms: C_22  and  C_24 
REMARK   13  A    between atoms: C_22  and  C_30 
ROOT
ATOM      1  N   UNL d   1      27.405 -15.556  -3.628  0.00  0.00    -0.331 N 
ATOM      2  C   UNL d   1      27.746 -15.395  -5.004  0.00  0.00     0.265 C 
ATOM      3  O   UNL d   1      26.842 -15.434  -5.854  0.00  0.00    -0.269 OA
ENDROOT
BRANCH   1   4
ATOM      4  C   UNL d   1      25.911 -15.731  -3.323  0.00  0.00     0.212 C 
BRANCH   4   5
ATOM      5  C   UNL d   1      25.466 -16.327  -1.945  0.00  0.00    -0.024 C 
ATOM      6  C   UNL d   1      24.144 -16.271  -1.449  0.00  0.00     0.010 C 
ATOM      7  C   UNL d   1      23.704 -17.219  -0.481  0.00  0.00     0.003 C 
ATOM      8  C   UNL d   1      24.610 -18.051   0.179  0.00  0.00     0.036 C 
ATOM      9  C   UNL d   1      25.943 -17.942  -0.149  0.00  0.00     0.066 C 
ATOM     10  C   UNL d   1      26.351 -17.111  -1.184  0.00  0.00     0.046 C 
BRANCH   9  11
ATOM     11  O   UNL d   1      26.930 -18.669   0.443  0.00  0.00    -0.361 OA
ATOM     12  H   UNL d   1      27.742 -18.146   0.481  0.00  0.00     0.217 HD
ENDBRANCH   9  11
ENDBRANCH   4   5
BRANCH   4  13
ATOM     13  C   UNL d   1      25.285 -14.287  -3.569  0.00  0.00     0.245 C 
ATOM     14  N   UNL d   1      26.121 -13.199  -3.377  0.00  0.00    -0.359 N 
ATOM     15  H   UNL d   1      26.866 -13.331  -2.689  0.00  0.00     0.162 HD
ATOM     16  O   UNL d   1      24.111 -14.076  -3.806  0.00  0.00    -0.271 OA
BRANCH  14  17
ATOM     17  C   UNL d   1      25.531 -11.891  -3.523  0.00  0.00     0.122 C 
BRANCH  17  18
ATOM     18  C   UNL d   1      25.925 -11.229  -4.822  0.00  0.00     0.019 C 
BRANCH  18  19
ATOM     19  C   UNL d   1      26.655 -12.225  -5.715  0.00  0.00    -0.003 C 
ATOM     20  C   UNL d   1      27.558 -11.493  -6.685  0.00  0.00     0.005 C 
ENDBRANCH  18  19
ENDBRANCH  17  18
ENDBRANCH  14  17
ENDBRANCH   4  13
ENDBRANCH   1   4
BRANCH   1  21
ATOM     21  C   UNL d   1      28.477 -15.700  -2.635  0.00  0.00     0.127 C 
BRANCH  21  22
ATOM     22  C   UNL d   1      28.551 -14.818  -1.437  0.00  0.00     0.015 C 
ATOM     23  C   UNL d   1      29.098 -15.299  -0.127  0.00  0.00     0.006 C 
ENDBRANCH  21  22
ENDBRANCH   1  21
BRANCH   2  24
ATOM     24  C   UNL d   1      29.280 -15.185  -5.486  0.00  0.00     0.194 C 
BRANCH  24  25
ATOM     25  O   UNL d   1      29.375 -14.724  -6.841  0.00  0.00    -0.371 OA
ATOM     26  H   UNL d   1      28.541 -14.820  -7.302  0.00  0.00     0.212 HD
ENDBRANCH  24  25
BRANCH  24  27
ATOM     27  C   UNL d   1      30.004 -14.211  -4.514  0.00  0.00    -0.010 C 
ATOM     28  C   UNL d   1      31.273 -14.468  -3.972  0.00  0.00     0.011 C 
ATOM     29  C   UNL d   1      31.896 -13.548  -3.119  0.00  0.00     0.001 C 
ATOM     30  C   UNL d   1      31.232 -12.395  -2.713  0.00  0.00     0.000 C 
ATOM     31  C   UNL d   1      29.987 -12.114  -3.226  0.00  0.00     0.001 C 
ATOM     32  C   UNL d   1      29.461 -12.953  -4.197  0.00  0.00     0.011 C 
ENDBRANCH  24  27
BRANCH  24  33
ATOM     33  C   UNL d   1      29.973 -16.594  -5.562  0.00  0.00    -0.010 A 
ATOM     34  C   UNL d   1      30.432 -17.141  -6.773  0.00  0.00     0.011 A 
ATOM     35  C   UNL d   1      30.838 -18.482  -6.845  0.00  0.00     0.001 A 
ATOM     36  C   UNL d   1      30.919 -19.272  -5.699  0.00  0.00     0.000 A 
ATOM     37  C   UNL d   1      30.541 -18.743  -4.488  0.00  0.00     0.001 A 
ATOM     38  C   UNL d   1      30.029 -17.458  -4.452  0.00  0.00     0.011 A 
ENDBRANCH  24  33
ENDBRANCH   2  24
TORSDOF 13
ENDMDL
MODEL 9
REMARK VINA RESULT:    -6.533      2.148      6.000
REMARK INTER + INTRA:         -15.248
REMARK INTER:                 -10.411
REMARK INTRA:                  -4.837
REMARK CONF_INDEPENDENT:        3.878
REMARK UNBOUND:                -4.837
REMARK  13 active torsions:
REMARK  status: ('A' for Active; 'I' for Inactive)
REMARK    1  A    between atoms: C_2  and  C_3 
REMARK    2  A    between atoms: C_3  and  C_4 
REMARK    3  A    between atoms: C_4  and  N_5 
REMARK       I    between atoms: N_5  and  C_6 
REMARK    4  A    between atoms: C_8  and  C_6 
REMARK    5  A    between atoms: C_8  and  N_16 
REMARK    6  A    between atoms: C_8  and  C_9 
REMARK    7  A    between atoms: C_13  and  O_14 
REMARK    8  A    between atoms: N_16  and  C_17 
REMARK       I    between atoms: N_16  and  C_20 
REMARK    9  A    between atoms: C_17  and  C_18 
REMARK   10  A    between atoms: C_20  and  C_22 
REMARK   11  A    between atoms: C_22  and  O_23 
REMARK   12  A    between atoms: C_22  and  C_24 
REMARK   13  A    between atoms: C_22  and  C_30 
ROOT
ATOM      1  N   UNL d   1      28.966 -14.632  -4.443  0.00  0.00    -0.331 N 
ATOM      2  C   UNL d   1      27.712 -15.027  -4.997  0.00  0.00     0.265 C 
ATOM      3  O   UNL d   1      27.695 -15.575  -6.112  0.00  0.00    -0.269 OA
ENDROOT
BRANCH   1   4
ATOM      4  C   UNL d   1      30.206 -14.963  -5.285  0.00  0.00     0.212 C 
BRANCH   4   5
ATOM      5  C   UNL d   1      30.319 -16.358  -5.987  0.00  0.00    -0.024 C 
ATOM      6  C   UNL d   1      30.855 -16.553  -7.279  0.00  0.00     0.010 C 
ATOM      7  C   UNL d   1      31.378 -17.825  -7.651  0.00  0.00     0.003 C 
ATOM      8  C   UNL d   1      31.152 -18.956  -6.865  0.00  0.00     0.036 C 
ATOM      9  C   UNL d   1      30.425 -18.801  -5.705  0.00  0.00     0.066 C 
ATOM     10  C   UNL d   1      30.031 -17.539  -5.281  0.00  0.00     0.046 C 
BRANCH   9  11
ATOM     11  O   UNL d   1      30.107 -19.827  -4.869  0.00  0.00    -0.361 OA
ATOM     12  H   UNL d   1      30.796 -20.505  -4.909  0.00  0.00     0.217 HD
ENDBRANCH   9  11
ENDBRANCH   4   5
BRANCH   4  13
ATOM     13  C   UNL d   1      30.302 -13.767  -6.334  0.00  0.00     0.245 C 
ATOM     14  N   UNL d   1      29.330 -13.719  -7.321  0.00  0.00    -0.359 N 
ATOM     15  H   UNL d   1      28.937 -14.621  -7.597  0.00  0.00     0.162 HD
ATOM     16  O   UNL d   1      31.219 -12.970  -6.390  0.00  0.00    -0.271 OA
BRANCH  14  17
ATOM     17  C   UNL d   1      29.465 -12.684  -8.316  0.00  0.00     0.122 C 
BRANCH  17  18
ATOM     18  C   UNL d   1      28.241 -12.575  -9.195  0.00  0.00     0.019 C 
BRANCH  18  19
ATOM     19  C   UNL d   1      27.328 -11.468  -8.684  0.00  0.00    -0.003 C 
ATOM     20  C   UNL d   1      28.039 -10.652  -7.624  0.00  0.00     0.005 C 
ENDBRANCH  18  19
ENDBRANCH  17  18
ENDBRANCH  14  17
ENDBRANCH   4  13
ENDBRANCH   1   4
BRANCH   1  21
ATOM     21  C   UNL d   1      28.987 -13.819  -3.221  0.00  0.00     0.127 C 
BRANCH  21  22
ATOM     22  C   UNL d   1      30.135 -13.867  -2.274  0.00  0.00     0.015 C 
ATOM     23  C   UNL d   1      30.580 -15.143  -1.626  0.00  0.00     0.006 C 
ENDBRANCH  21  22
ENDBRANCH   1  21
BRANCH   2  24
ATOM     24  C   UNL d   1      26.313 -14.761  -4.223  0.00  0.00     0.194 C 
BRANCH  24  25
ATOM     25  O   UNL d   1      25.168 -15.095  -5.020  0.00  0.00    -0.371 OA
ATOM     26  H   UNL d   1      25.427 -15.473  -5.861  0.00  0.00     0.212 HD
ENDBRANCH  24  25
BRANCH  24  27
ATOM     27  C   UNL d   1      26.304 -15.543  -2.879  0.00  0.00    -0.010 C 
ATOM     28  C   UNL d   1      27.420 -16.238  -2.387  0.00  0.00     0.011 C 
ATOM     29  C   UNL d   1      27.372 -16.908  -1.158  0.00  0.00     0.001 C 
ATOM     30  C   UNL d   1      26.186 -16.980  -0.435  0.00  0.00     0.000 C 
ATOM     31  C   UNL d   1      25.073 -16.309  -0.890  0.00  0.00     0.001 C 
ATOM     32  C   UNL d   1      25.191 -15.515  -2.020  0.00  0.00     0.011 C 
ENDBRANCH  24  27
BRANCH  24  33
ATOM     33  C   UNL d   1      26.142 -13.211  -4.025  0.00  0.00    -0.010 A 
ATOM     34  C   UNL d   1      25.963 -12.330  -5.106  0.00  0.00     0.011 A 
ATOM     35  C   UNL d   1      26.039 -10.942  -4.919  0.00  0.00     0.001 A 
ATOM     36  C   UNL d   1      26.168 -10.393  -3.643  0.00  0.00     0.000 A 
ATOM     37  C   UNL d   1      26.277 -11.230  -2.558  0.00  0.00     0.001 A 
ATOM     38  C   UNL d   1      26.322 -12.597  -2.771  0.00  0.00     0.011 A 
ENDBRANCH  24  33
ENDBRANCH   2  24
TORSDOF 13
ENDMDL
