MODEL 1
REMARK VINA RESULT:    -8.551      0.000      0.000
REMARK INTER + INTRA:         -12.596
REMARK INTER:                 -10.639
REMARK INTRA:                  -1.956
REMARK CONF_INDEPENDENT:        2.088
REMARK UNBOUND:                -1.956
REMARK  7 active torsions:
REMARK  status: ('A' for Active; 'I' for Inactive)
REMARK    1  A    between atoms: O_2  and  C_3 
REMARK    2  A    between atoms: C_5  and  O_6 
REMARK    3  A    between atoms: C_9  and  C_10 
REMARK       I    between atoms: C_10  and  N_12 
REMARK       I    between atoms: N_12  and  C_13 
REMARK       I    between atoms: C_13  and  N_14 
REMARK       I    between atoms: C_13  and  N_26 
REMARK    4  A    between atoms: N_14  and  C_15 
REMARK    5  A    between atoms: C_15  and  C_16 
REMARK    6  A    between atoms: C_16  and  C_17 
REMARK    7  A    between atoms: N_26  and  C_27 
ROOT
ATOM      1  C   UNL d   1      27.288 -13.147  -1.151  0.00  0.00     0.294 C 
ATOM      2  O   UNL d   1      26.805 -12.280  -0.437  0.00  0.00    -0.265 OA
ATOM      3  N   UNL d   1      27.988 -14.248  -0.713  0.00  0.00    -0.023 NA
ATOM      4  C   UNL d   1      28.072 -14.475   0.563  0.00  0.00     0.704 C 
ATOM      5  N   UNL d   1      28.635 -15.648   0.977  0.00  0.00    -0.224 N 
ATOM      6  N   UNL d   1      27.565 -13.697   1.570  0.00  0.00    -0.190 N 
ATOM      7  H   UNL d   1      28.508 -15.870   1.958  0.00  0.00     0.177 HD
ATOM      8  H   UNL d   1      27.132 -12.833   1.225  0.00  0.00     0.184 HD
ENDROOT
BRANCH   5   9
ATOM      9  C   UNL d   1      29.439 -16.505   0.141  0.00  0.00     0.142 C 
BRANCH   9  10
ATOM     10  C   UNL d   1      28.583 -17.430  -0.719  0.00  0.00     0.057 C 
BRANCH  10  11
ATOM     11  C   UNL d   1      27.179 -17.628  -0.243  0.00  0.00    -0.048 A 
ATOM     12  C   UNL d   1      26.135 -17.111  -0.892  0.00  0.00    -0.006 A 
ATOM     13  C   UNL d   1      26.051 -16.306  -2.059  0.00  0.00     0.014 A 
ATOM     14  C   UNL d   1      24.947 -17.494  -0.120  0.00  0.00     0.038 A 
ATOM     15  C   UNL d   1      24.861 -15.783  -2.377  0.00  0.00     0.001 A 
ATOM     16  C   UNL d   1      23.656 -16.145  -1.645  0.00  0.00     0.002 A 
ATOM     17  C   UNL d   1      23.646 -16.966  -0.574  0.00  0.00     0.030 A 
ATOM     18  N   UNL d   1      25.248 -18.241   0.874  0.00  0.00    -0.385 N 
ATOM     19  C   UNL d   1      26.729 -18.366   0.987  0.00  0.00     0.155 A 
ATOM     20  H   UNL d   1      24.542 -18.667   1.472  0.00  0.00     0.160 HD
ENDBRANCH  10  11
ENDBRANCH   9  10
ENDBRANCH   5   9
BRANCH   6  21
ATOM     21  C   UNL d   1      27.901 -13.582   2.937  0.00  0.00     0.055 A 
ATOM     22  C   UNL d   1      27.900 -14.778   3.686  0.00  0.00     0.030 A 
ATOM     23  C   UNL d   1      28.170 -14.782   5.057  0.00  0.00     0.002 A 
ATOM     24  C   UNL d   1      28.530 -13.599   5.688  0.00  0.00     0.001 A 
ATOM     25  C   UNL d   1      28.554 -12.412   4.966  0.00  0.00     0.009 A 
ATOM     26  C   UNL d   1      28.207 -12.377   3.603  0.00  0.00    -0.035 A 
ATOM     27  C   UNL d   1      28.130 -11.017   2.975  0.00  0.00     0.050 C 
ENDBRANCH   6  21
BRANCH   1  28
ATOM     28  C   UNL d   1      27.116 -13.054  -2.628  0.00  0.00     0.040 A 
ATOM     29  C   UNL d   1      27.572 -14.111  -3.415  0.00  0.00     0.054 A 
ATOM     30  C   UNL d   1      27.317 -14.130  -4.783  0.00  0.00     0.071 A 
ATOM     31  C   UNL d   1      26.705 -13.019  -5.378  0.00  0.00     0.073 A 
ATOM     32  C   UNL d   1      26.258 -11.945  -4.596  0.00  0.00     0.071 A 
ATOM     33  C   UNL d   1      26.458 -11.972  -3.218  0.00  0.00     0.054 A 
BRANCH  30  34
ATOM     34  O   UNL d   1      27.589 -15.200  -5.595  0.00  0.00    -0.356 OA
ATOM     35  C   UNL d   1      28.903 -15.234  -6.160  0.00  0.00     0.210 C 
ENDBRANCH  30  34
BRANCH  32  36
ATOM     36  O   UNL d   1      25.529 -10.977  -5.236  0.00  0.00    -0.356 OA
ATOM     37  C   UNL d   1      25.929 -10.671  -6.569  0.00  0.00     0.210 C 
ENDBRANCH  32  36
ENDBRANCH   1  28
TORSDOF 7
ENDMDL
MODEL 2
REMARK VINA RESULT:    -8.446      1.529      2.022
REMARK INTER + INTRA:         -12.997
REMARK INTER:                 -10.535
REMARK INTRA:                  -2.463
REMARK CONF_INDEPENDENT:        2.088
REMARK UNBOUND:                -2.463
REMARK  7 active torsions:
REMARK  status: ('A' for Active; 'I' for Inactive)
REMARK    1  A    between atoms: O_2  and  C_3 
REMARK    2  A    between atoms: C_5  and  O_6 
REMARK    3  A    between atoms: C_9  and  C_10 
REMARK       I    between atoms: C_10  and  N_12 
REMARK       I    between atoms: N_12  and  C_13 
REMARK       I    between atoms: C_13  and  N_14 
REMARK       I    between atoms: C_13  and  N_26 
REMARK    4  A    between atoms: N_14  and  C_15 
REMARK    5  A    between atoms: C_15  and  C_16 
REMARK    6  A    between atoms: C_16  and  C_17 
REMARK    7  A    between atoms: N_26  and  C_27 
ROOT
ATOM      1  C   UNL d   1      26.961 -12.861  -0.184  0.00  0.00     0.294 C 
ATOM      2  O   UNL d   1      26.294 -12.287   0.665  0.00  0.00    -0.265 OA
ATOM      3  N   UNL d   1      27.993 -13.737   0.065  0.00  0.00    -0.023 NA
ATOM      4  C   UNL d   1      28.240 -14.089   1.291  0.00  0.00     0.704 C 
ATOM      5  N   UNL d   1      29.163 -15.071   1.510  0.00  0.00    -0.224 N 
ATOM      6  N   UNL d   1      27.600 -13.643   2.417  0.00  0.00    -0.190 N 
ATOM      7  H   UNL d   1      29.184 -15.446   2.452  0.00  0.00     0.177 HD
ATOM      8  H   UNL d   1      26.900 -12.920   2.216  0.00  0.00     0.184 HD
ENDROOT
BRANCH   5   9
ATOM      9  C   UNL d   1      30.122 -15.520   0.532  0.00  0.00     0.142 C 
BRANCH   9  10
ATOM     10  C   UNL d   1      29.683 -16.816  -0.146  0.00  0.00     0.057 C 
BRANCH  10  11
ATOM     11  C   UNL d   1      28.436 -16.717  -0.967  0.00  0.00    -0.048 A 
ATOM     12  C   UNL d   1      27.254 -17.128  -0.505  0.00  0.00    -0.006 A 
ATOM     13  C   UNL d   1      26.876 -17.725   0.727  0.00  0.00     0.014 A 
ATOM     14  C   UNL d   1      26.292 -16.896  -1.588  0.00  0.00     0.038 A 
ATOM     15  C   UNL d   1      25.630 -18.200   0.839  0.00  0.00     0.001 A 
ATOM     16  C   UNL d   1      24.641 -17.981  -0.207  0.00  0.00     0.002 A 
ATOM     17  C   UNL d   1      24.906 -17.354  -1.371  0.00  0.00     0.030 A 
ATOM     18  N   UNL d   1      26.839 -16.324  -2.594  0.00  0.00    -0.385 N 
ATOM     19  C   UNL d   1      28.308 -16.203  -2.373  0.00  0.00     0.155 A 
ATOM     20  H   UNL d   1      26.306 -16.014  -3.404  0.00  0.00     0.160 HD
ENDBRANCH  10  11
ENDBRANCH   9  10
ENDBRANCH   5   9
BRANCH   6  21
ATOM     21  C   UNL d   1      27.989 -13.607   3.774  0.00  0.00     0.055 A 
ATOM     22  C   UNL d   1      28.190 -14.855   4.403  0.00  0.00     0.030 A 
ATOM     23  C   UNL d   1      28.530 -14.944   5.755  0.00  0.00     0.002 A 
ATOM     24  C   UNL d   1      28.759 -13.785   6.483  0.00  0.00     0.001 A 
ATOM     25  C   UNL d   1      28.583 -12.546   5.880  0.00  0.00     0.009 A 
ATOM     26  C   UNL d   1      28.163 -12.437   4.542  0.00  0.00    -0.035 A 
ATOM     27  C   UNL d   1      27.869 -11.049   4.051  0.00  0.00     0.050 C 
ENDBRANCH   6  21
BRANCH   1  28
ATOM     28  C   UNL d   1      26.657 -12.637  -1.625  0.00  0.00     0.040 A 
ATOM     29  C   UNL d   1      26.187 -13.713  -2.377  0.00  0.00     0.054 A 
ATOM     30  C   UNL d   1      25.766 -13.522  -3.690  0.00  0.00     0.071 A 
ATOM     31  C   UNL d   1      25.932 -12.263  -4.283  0.00  0.00     0.073 A 
ATOM     32  C   UNL d   1      26.418 -11.180  -3.538  0.00  0.00     0.071 A 
ATOM     33  C   UNL d   1      26.770 -11.370  -2.205  0.00  0.00     0.054 A 
BRANCH  30  34
ATOM     34  O   UNL d   1      25.146 -14.487  -4.441  0.00  0.00    -0.356 OA
ATOM     35  C   UNL d   1      25.981 -15.180  -5.374  0.00  0.00     0.210 C 
ENDBRANCH  30  34
BRANCH  32  36
ATOM     36  O   UNL d   1      26.398  -9.954  -4.147  0.00  0.00    -0.356 OA
ATOM     37  C   UNL d   1      25.156  -9.257  -4.111  0.00  0.00     0.210 C 
ENDBRANCH  32  36
ENDBRANCH   1  28
TORSDOF 7
ENDMDL
MODEL 3
REMARK VINA RESULT:    -8.361      1.478      2.556
REMARK INTER + INTRA:         -13.012
REMARK INTER:                 -10.450
REMARK INTRA:                  -2.562
REMARK CONF_INDEPENDENT:        2.088
REMARK UNBOUND:                -2.562
REMARK  7 active torsions:
REMARK  status: ('A' for Active; 'I' for Inactive)
REMARK    1  A    between atoms: O_2  and  C_3 
REMARK    2  A    between atoms: C_5  and  O_6 
REMARK    3  A    between atoms: C_9  and  C_10 
REMARK       I    between atoms: C_10  and  N_12 
REMARK       I    between atoms: N_12  and  C_13 
REMARK       I    between atoms: C_13  and  N_14 
REMARK       I    between atoms: C_13  and  N_26 
REMARK    4  A    between atoms: N_14  and  C_15 
REMARK    5  A    between atoms: C_15  and  C_16 
REMARK    6  A    between atoms: C_16  and  C_17 
REMARK    7  A    between atoms: N_26  and  C_27 
ROOT
ATOM      1  C   UNL d   1      26.931 -12.999  -0.208  0.00  0.00     0.294 C 
ATOM      2  O   UNL d   1      26.279 -12.439   0.662  0.00  0.00    -0.265 OA
ATOM      3  N   UNL d   1      27.980 -13.863   0.008  0.00  0.00    -0.023 NA
ATOM      4  C   UNL d   1      28.263 -14.220   1.224  0.00  0.00     0.704 C 
ATOM      5  N   UNL d   1      29.203 -15.193   1.412  0.00  0.00    -0.224 N 
ATOM      6  N   UNL d   1      27.646 -13.791   2.369  0.00  0.00    -0.190 N 
ATOM      7  H   UNL d   1      29.254 -15.574   2.350  0.00  0.00     0.177 HD
ATOM      8  H   UNL d   1      26.932 -13.076   2.192  0.00  0.00     0.184 HD
ENDROOT
BRANCH   5   9
ATOM      9  C   UNL d   1      30.142 -15.623   0.407  0.00  0.00     0.142 C 
BRANCH   9  10
ATOM     10  C   UNL d   1      29.675 -16.888  -0.308  0.00  0.00     0.057 C 
BRANCH  10  11
ATOM     11  C   UNL d   1      28.388 -16.759  -1.059  0.00  0.00    -0.048 A 
ATOM     12  C   UNL d   1      27.225 -17.151  -0.537  0.00  0.00    -0.006 A 
ATOM     13  C   UNL d   1      26.902 -17.748   0.710  0.00  0.00     0.014 A 
ATOM     14  C   UNL d   1      26.210 -16.892  -1.565  0.00  0.00     0.038 A 
ATOM     15  C   UNL d   1      25.654 -18.200   0.886  0.00  0.00     0.001 A 
ATOM     16  C   UNL d   1      24.615 -17.954  -0.103  0.00  0.00     0.002 A 
ATOM     17  C   UNL d   1      24.829 -17.324  -1.277  0.00  0.00     0.030 A 
ATOM     18  N   UNL d   1      26.714 -16.325  -2.596  0.00  0.00    -0.385 N 
ATOM     19  C   UNL d   1      28.194 -16.234  -2.454  0.00  0.00     0.155 A 
ATOM     20  H   UNL d   1      26.144 -15.998  -3.374  0.00  0.00     0.160 HD
ENDBRANCH  10  11
ENDBRANCH   9  10
ENDBRANCH   5   9
BRANCH   6  21
ATOM     21  C   UNL d   1      28.070 -13.759   3.716  0.00  0.00     0.055 A 
ATOM     22  C   UNL d   1      28.227 -15.008   4.355  0.00  0.00     0.030 A 
ATOM     23  C   UNL d   1      28.596 -15.100   5.699  0.00  0.00     0.002 A 
ATOM     24  C   UNL d   1      28.897 -13.946   6.408  0.00  0.00     0.001 A 
ATOM     25  C   UNL d   1      28.766 -12.706   5.795  0.00  0.00     0.009 A 
ATOM     26  C   UNL d   1      28.319 -12.591   4.466  0.00  0.00    -0.035 A 
ATOM     27  C   UNL d   1      28.079 -11.196   3.967  0.00  0.00     0.050 C 
ENDBRANCH   6  21
BRANCH   1  28
ATOM     28  C   UNL d   1      26.586 -12.769  -1.639  0.00  0.00     0.040 A 
ATOM     29  C   UNL d   1      26.988 -11.572  -2.231  0.00  0.00     0.054 A 
ATOM     30  C   UNL d   1      26.805 -11.366  -3.595  0.00  0.00     0.071 A 
ATOM     31  C   UNL d   1      26.106 -12.325  -4.342  0.00  0.00     0.073 A 
ATOM     32  C   UNL d   1      25.685 -13.524  -3.750  0.00  0.00     0.071 A 
ATOM     33  C   UNL d   1      25.937 -13.745  -2.399  0.00  0.00     0.054 A 
BRANCH  30  34
ATOM     34  O   UNL d   1      27.311 -10.292  -4.281  0.00  0.00    -0.356 OA
ATOM     35  C   UNL d   1      26.389  -9.612  -5.138  0.00  0.00     0.210 C 
ENDBRANCH  30  34
BRANCH  32  36
ATOM     36  O   UNL d   1      25.153 -14.471  -4.585  0.00  0.00    -0.356 OA
ATOM     37  C   UNL d   1      26.083 -15.187  -5.393  0.00  0.00     0.210 C 
ENDBRANCH  32  36
ENDBRANCH   1  28
TORSDOF 7
ENDMDL
MODEL 4
REMARK VINA RESULT:    -8.337      3.013      6.480
REMARK INTER + INTRA:         -12.354
REMARK INTER:                 -10.425
REMARK INTRA:                  -1.929
REMARK CONF_INDEPENDENT:        2.088
REMARK UNBOUND:                -1.929
REMARK  7 active torsions:
REMARK  status: ('A' for Active; 'I' for Inactive)
REMARK    1  A    between atoms: O_2  and  C_3 
REMARK    2  A    between atoms: C_5  and  O_6 
REMARK    3  A    between atoms: C_9  and  C_10 
REMARK       I    between atoms: C_10  and  N_12 
REMARK       I    between atoms: N_12  and  C_13 
REMARK       I    between atoms: C_13  and  N_14 
REMARK       I    between atoms: C_13  and  N_26 
REMARK    4  A    between atoms: N_14  and  C_15 
REMARK    5  A    between atoms: C_15  and  C_16 
REMARK    6  A    between atoms: C_16  and  C_17 
REMARK    7  A    between atoms: N_26  and  C_27 
ROOT
ATOM      1  C   UNL d   1      27.680 -16.994  -0.138  0.00  0.00     0.294 C 
ATOM      2  O   UNL d   1      28.119 -18.074   0.230  0.00  0.00    -0.265 OA
ATOM      3  N   UNL d   1      28.415 -15.840  -0.288  0.00  0.00    -0.023 NA
ATOM      4  C   UNL d   1      29.704 -15.889  -0.139  0.00  0.00     0.704 C 
ATOM      5  N   UNL d   1      30.434 -14.775  -0.441  0.00  0.00    -0.224 N 
ATOM      6  N   UNL d   1      30.448 -16.985   0.206  0.00  0.00    -0.190 N 
ATOM      7  H   UNL d   1      31.437 -14.914  -0.496  0.00  0.00     0.177 HD
ATOM      8  H   UNL d   1      29.872 -17.810   0.408  0.00  0.00     0.184 HD
ENDROOT
BRANCH   5   9
ATOM      9  C   UNL d   1      29.879 -13.454  -0.593  0.00  0.00     0.142 C 
BRANCH   9  10
ATOM     10  C   UNL d   1      29.139 -12.996   0.661  0.00  0.00     0.057 C 
BRANCH  10  11
ATOM     11  C   UNL d   1      29.829 -13.295   1.955  0.00  0.00    -0.048 A 
ATOM     12  C   UNL d   1      29.175 -13.796   3.003  0.00  0.00    -0.006 A 
ATOM     13  C   UNL d   1      27.808 -14.130   3.193  0.00  0.00     0.014 A 
ATOM     14  C   UNL d   1      30.167 -13.928   4.076  0.00  0.00     0.038 A 
ATOM     15  C   UNL d   1      27.405 -14.450   4.429  0.00  0.00     0.001 A 
ATOM     16  C   UNL d   1      28.358 -14.603   5.518  0.00  0.00     0.002 A 
ATOM     17  C   UNL d   1      29.683 -14.380   5.394  0.00  0.00     0.030 A 
ATOM     18  N   UNL d   1      31.339 -13.599   3.680  0.00  0.00    -0.385 N 
ATOM     19  C   UNL d   1      31.277 -13.068   2.290  0.00  0.00     0.155 A 
ATOM     20  H   UNL d   1      32.165 -13.706   4.267  0.00  0.00     0.160 HD
ENDBRANCH  10  11
ENDBRANCH   9  10
ENDBRANCH   5   9
BRANCH   6  21
ATOM     21  C   UNL d   1      31.732 -17.114   0.782  0.00  0.00     0.055 A 
ATOM     22  C   UNL d   1      32.082 -16.154   1.756  0.00  0.00     0.030 A 
ATOM     23  C   UNL d   1      33.342 -16.153   2.359  0.00  0.00     0.002 A 
ATOM     24  C   UNL d   1      34.247 -17.162   2.061  0.00  0.00     0.001 A 
ATOM     25  C   UNL d   1      33.917 -18.127   1.118  0.00  0.00     0.009 A 
ATOM     26  C   UNL d   1      32.684 -18.098   0.442  0.00  0.00    -0.035 A 
ATOM     27  C   UNL d   1      32.506 -19.106  -0.656  0.00  0.00     0.050 C 
ENDBRANCH   6  21
BRANCH   1  28
ATOM     28  C   UNL d   1      26.235 -16.872  -0.477  0.00  0.00     0.040 A 
ATOM     29  C   UNL d   1      25.835 -15.817  -1.297  0.00  0.00     0.054 A 
ATOM     30  C   UNL d   1      24.520 -15.737  -1.747  0.00  0.00     0.071 A 
ATOM     31  C   UNL d   1      23.578 -16.658  -1.270  0.00  0.00     0.073 A 
ATOM     32  C   UNL d   1      23.970 -17.712  -0.433  0.00  0.00     0.071 A 
ATOM     33  C   UNL d   1      25.303 -17.820  -0.046  0.00  0.00     0.054 A 
BRANCH  30  34
ATOM     34  O   UNL d   1      24.086 -14.829  -2.678  0.00  0.00    -0.356 OA
ATOM     35  C   UNL d   1      25.105 -14.237  -3.491  0.00  0.00     0.210 C 
ENDBRANCH  30  34
BRANCH  32  36
ATOM     36  O   UNL d   1      23.020 -18.656  -0.144  0.00  0.00    -0.356 OA
ATOM     37  C   UNL d   1      21.810 -18.576  -0.892  0.00  0.00     0.210 C 
ENDBRANCH  32  36
ENDBRANCH   1  28
TORSDOF 7
ENDMDL
MODEL 5
REMARK VINA RESULT:    -8.271      2.331      7.366
REMARK INTER + INTRA:         -12.592
REMARK INTER:                 -10.360
REMARK INTRA:                  -2.232
REMARK CONF_INDEPENDENT:        2.088
REMARK UNBOUND:                -2.232
REMARK  7 active torsions:
REMARK  status: ('A' for Active; 'I' for Inactive)
REMARK    1  A    between atoms: O_2  and  C_3 
REMARK    2  A    between atoms: C_5  and  O_6 
REMARK    3  A    between atoms: C_9  and  C_10 
REMARK       I    between atoms: C_10  and  N_12 
REMARK       I    between atoms: N_12  and  C_13 
REMARK       I    between atoms: C_13  and  N_14 
REMARK       I    between atoms: C_13  and  N_26 
REMARK    4  A    between atoms: N_14  and  C_15 
REMARK    5  A    between atoms: C_15  and  C_16 
REMARK    6  A    between atoms: C_16  and  C_17 
REMARK    7  A    between atoms: N_26  and  C_27 
ROOT
ATOM      1  C   UNL d   1      25.130 -14.247  -2.780  0.00  0.00     0.294 C 
ATOM      2  O   UNL d   1      24.379 -14.075  -3.730  0.00  0.00    -0.265 OA
ATOM      3  N   UNL d   1      26.150 -13.405  -2.403  0.00  0.00    -0.023 NA
ATOM      4  C   UNL d   1      26.291 -12.270  -3.019  0.00  0.00     0.704 C 
ATOM      5  N   UNL d   1      27.208 -11.380  -2.536  0.00  0.00    -0.224 N 
ATOM      6  N   UNL d   1      25.544 -11.809  -4.070  0.00  0.00    -0.190 N 
ATOM      7  H   UNL d   1      27.150 -10.444  -2.921  0.00  0.00     0.177 HD
ATOM      8  H   UNL d   1      24.852 -12.493  -4.396  0.00  0.00     0.184 HD
ENDROOT
BRANCH   5   9
ATOM      9  C   UNL d   1      28.259 -11.716  -1.609  0.00  0.00     0.142 C 
BRANCH   9  10
ATOM     10  C   UNL d   1      27.771 -11.706  -0.163  0.00  0.00     0.057 C 
BRANCH  10  11
ATOM     11  C   UNL d   1      27.960 -12.989   0.584  0.00  0.00    -0.048 A 
ATOM     12  C   UNL d   1      27.848 -13.055   1.911  0.00  0.00    -0.006 A 
ATOM     13  C   UNL d   1      27.577 -12.061   2.888  0.00  0.00     0.014 A 
ATOM     14  C   UNL d   1      28.122 -14.450   2.273  0.00  0.00     0.038 A 
ATOM     15  C   UNL d   1      27.704 -12.395   4.177  0.00  0.00     0.001 A 
ATOM     16  C   UNL d   1      27.963 -13.770   4.580  0.00  0.00     0.002 A 
ATOM     17  C   UNL d   1      28.154 -14.783   3.710  0.00  0.00     0.030 A 
ATOM     18  N   UNL d   1      28.313 -15.180   1.239  0.00  0.00    -0.385 N 
ATOM     19  C   UNL d   1      28.319 -14.333   0.013  0.00  0.00     0.155 A 
ATOM     20  H   UNL d   1      28.435 -16.189   1.295  0.00  0.00     0.160 HD
ENDBRANCH  10  11
ENDBRANCH   9  10
ENDBRANCH   5   9
BRANCH   6  21
ATOM     21  C   UNL d   1      25.808 -10.842  -5.066  0.00  0.00     0.055 A 
ATOM     22  C   UNL d   1      26.345 -11.322  -6.280  0.00  0.00     0.030 A 
ATOM     23  C   UNL d   1      26.689 -10.454  -7.319  0.00  0.00     0.002 A 
ATOM     24  C   UNL d   1      26.426  -9.098  -7.196  0.00  0.00     0.001 A 
ATOM     25  C   UNL d   1      25.882  -8.605  -6.016  0.00  0.00     0.009 A 
ATOM     26  C   UNL d   1      25.602  -9.453  -4.929  0.00  0.00    -0.035 A 
ATOM     27  C   UNL d   1      25.156  -8.782  -3.663  0.00  0.00     0.050 C 
ENDBRANCH   6  21
BRANCH   1  28
ATOM     28  C   UNL d   1      24.953 -15.450  -1.920  0.00  0.00     0.040 A 
ATOM     29  C   UNL d   1      26.085 -16.016  -1.334  0.00  0.00     0.054 A 
ATOM     30  C   UNL d   1      25.957 -17.058  -0.420  0.00  0.00     0.071 A 
ATOM     31  C   UNL d   1      24.689 -17.610  -0.188  0.00  0.00     0.073 A 
ATOM     32  C   UNL d   1      23.549 -17.057  -0.786  0.00  0.00     0.071 A 
ATOM     33  C   UNL d   1      23.685 -15.970  -1.645  0.00  0.00     0.054 A 
BRANCH  30  34
ATOM     34  O   UNL d   1      26.998 -17.560   0.317  0.00  0.00    -0.356 OA
ATOM     35  C   UNL d   1      26.655 -18.574   1.266  0.00  0.00     0.210 C 
ENDBRANCH  30  34
BRANCH  32  36
ATOM     36  O   UNL d   1      22.338 -17.554  -0.382  0.00  0.00    -0.356 OA
ATOM     37  C   UNL d   1      22.158 -18.960  -0.529  0.00  0.00     0.210 C 
ENDBRANCH  32  36
ENDBRANCH   1  28
TORSDOF 7
ENDMDL
MODEL 6
REMARK VINA RESULT:    -8.223      2.368      7.410
REMARK INTER + INTRA:         -12.211
REMARK INTER:                 -10.312
REMARK INTRA:                  -1.900
REMARK CONF_INDEPENDENT:        2.088
REMARK UNBOUND:                -1.900
REMARK  7 active torsions:
REMARK  status: ('A' for Active; 'I' for Inactive)
REMARK    1  A    between atoms: O_2  and  C_3 
REMARK    2  A    between atoms: C_5  and  O_6 
REMARK    3  A    between atoms: C_9  and  C_10 
REMARK       I    between atoms: C_10  and  N_12 
REMARK       I    between atoms: N_12  and  C_13 
REMARK       I    between atoms: C_13  and  N_14 
REMARK       I    between atoms: C_13  and  N_26 
REMARK    4  A    between atoms: N_14  and  C_15 
REMARK    5  A    between atoms: C_15  and  C_16 
REMARK    6  A    between atoms: C_16  and  C_17 
REMARK    7  A    between atoms: N_26  and  C_27 
ROOT
ATOM      1  C   UNL d   1      25.159 -14.329  -2.545  0.00  0.00     0.294 C 
ATOM      2  O   UNL d   1      24.426 -14.201  -3.515  0.00  0.00    -0.265 OA
ATOM      3  N   UNL d   1      26.148 -13.450  -2.167  0.00  0.00    -0.023 NA
ATOM      4  C   UNL d   1      26.272 -12.327  -2.807  0.00  0.00     0.704 C 
ATOM      5  N   UNL d   1      27.153 -11.401  -2.327  0.00  0.00    -0.224 N 
ATOM      6  N   UNL d   1      25.537 -11.912  -3.885  0.00  0.00    -0.190 N 
ATOM      7  H   UNL d   1      27.079 -10.476  -2.736  0.00  0.00     0.177 HD
ATOM      8  H   UNL d   1      24.871 -12.622  -4.210  0.00  0.00     0.184 HD
ENDROOT
BRANCH   5   9
ATOM      9  C   UNL d   1      28.192 -11.685  -1.369  0.00  0.00     0.142 C 
BRANCH   9  10
ATOM     10  C   UNL d   1      27.661 -11.709   0.062  0.00  0.00     0.057 C 
BRANCH  10  11
ATOM     11  C   UNL d   1      27.856 -12.998   0.795  0.00  0.00    -0.048 A 
ATOM     12  C   UNL d   1      27.805 -13.067   2.126  0.00  0.00    -0.006 A 
ATOM     13  C   UNL d   1      27.600 -12.070   3.117  0.00  0.00     0.014 A 
ATOM     14  C   UNL d   1      28.065 -14.469   2.471  0.00  0.00     0.038 A 
ATOM     15  C   UNL d   1      27.780 -12.412   4.398  0.00  0.00     0.001 A 
ATOM     16  C   UNL d   1      28.028 -13.793   4.784  0.00  0.00     0.002 A 
ATOM     17  C   UNL d   1      28.157 -14.807   3.904  0.00  0.00     0.030 A 
ATOM     18  N   UNL d   1      28.192 -15.198   1.427  0.00  0.00    -0.385 N 
ATOM     19  C   UNL d   1      28.160 -14.347   0.204  0.00  0.00     0.155 A 
ATOM     20  H   UNL d   1      28.296 -16.210   1.475  0.00  0.00     0.160 HD
ENDBRANCH  10  11
ENDBRANCH   9  10
ENDBRANCH   5   9
BRANCH   6  21
ATOM     21  C   UNL d   1      25.797 -10.963  -4.899  0.00  0.00     0.055 A 
ATOM     22  C   UNL d   1      26.326 -11.464  -6.108  0.00  0.00     0.030 A 
ATOM     23  C   UNL d   1      26.667 -10.615  -7.163  0.00  0.00     0.002 A 
ATOM     24  C   UNL d   1      26.406  -9.256  -7.062  0.00  0.00     0.001 A 
ATOM     25  C   UNL d   1      25.870  -8.743  -5.887  0.00  0.00     0.009 A 
ATOM     26  C   UNL d   1      25.594  -9.572  -4.785  0.00  0.00    -0.035 A 
ATOM     27  C   UNL d   1      25.157  -8.878  -3.528  0.00  0.00     0.050 C 
ENDBRANCH   6  21
BRANCH   1  28
ATOM     28  C   UNL d   1      24.996 -15.515  -1.659  0.00  0.00     0.040 A 
ATOM     29  C   UNL d   1      23.762 -16.165  -1.645  0.00  0.00     0.054 A 
ATOM     30  C   UNL d   1      23.600 -17.351  -0.935  0.00  0.00     0.071 A 
ATOM     31  C   UNL d   1      24.655 -17.820  -0.141  0.00  0.00     0.073 A 
ATOM     32  C   UNL d   1      25.894 -17.164  -0.139  0.00  0.00     0.071 A 
ATOM     33  C   UNL d   1      26.062 -16.016  -0.908  0.00  0.00     0.054 A 
BRANCH  30  34
ATOM     34  O   UNL d   1      22.474 -18.131  -0.998  0.00  0.00    -0.356 OA
ATOM     35  C   UNL d   1      22.064 -18.729   0.235  0.00  0.00     0.210 C 
ENDBRANCH  30  34
BRANCH  32  36
ATOM     36  O   UNL d   1      26.915 -17.778   0.538  0.00  0.00    -0.356 OA
ATOM     37  C   UNL d   1      28.164 -17.850  -0.145  0.00  0.00     0.210 C 
ENDBRANCH  32  36
ENDBRANCH   1  28
TORSDOF 7
ENDMDL
MODEL 7
REMARK VINA RESULT:    -8.188      3.010      6.264
REMARK INTER + INTRA:         -12.143
REMARK INTER:                 -10.276
REMARK INTRA:                  -1.866
REMARK CONF_INDEPENDENT:        2.088
REMARK UNBOUND:                -1.866
REMARK  7 active torsions:
REMARK  status: ('A' for Active; 'I' for Inactive)
REMARK    1  A    between atoms: O_2  and  C_3 
REMARK    2  A    between atoms: C_5  and  O_6 
REMARK    3  A    between atoms: C_9  and  C_10 
REMARK       I    between atoms: C_10  and  N_12 
REMARK       I    between atoms: N_12  and  C_13 
REMARK       I    between atoms: C_13  and  N_14 
REMARK       I    between atoms: C_13  and  N_26 
REMARK    4  A    between atoms: N_14  and  C_15 
REMARK    5  A    between atoms: C_15  and  C_16 
REMARK    6  A    between atoms: C_16  and  C_17 
REMARK    7  A    between atoms: N_26  and  C_27 
ROOT
ATOM      1  C   UNL d   1      27.833 -16.944  -0.399  0.00  0.00     0.294 C 
ATOM      2  O   UNL d   1      28.174 -18.038   0.028  0.00  0.00    -0.265 OA
ATOM      3  N   UNL d   1      28.646 -15.840  -0.512  0.00  0.00    -0.023 NA
ATOM      4  C   UNL d   1      29.913 -15.961  -0.255  0.00  0.00     0.704 C 
ATOM      5  N   UNL d   1      30.732 -14.900  -0.518  0.00  0.00    -0.224 N 
ATOM      6  N   UNL d   1      30.559 -17.089   0.176  0.00  0.00    -0.190 N 
ATOM      7  H   UNL d   1      31.726 -15.099  -0.486  0.00  0.00     0.177 HD
ATOM      8  H   UNL d   1      29.919 -17.873   0.346  0.00  0.00     0.184 HD
ENDROOT
BRANCH   5   9
ATOM      9  C   UNL d   1      30.272 -13.553  -0.746  0.00  0.00     0.142 C 
BRANCH   9  10
ATOM     10  C   UNL d   1      29.472 -13.015   0.437  0.00  0.00     0.057 C 
BRANCH  10  11
ATOM     11  C   UNL d   1      30.061 -13.288   1.785  0.00  0.00    -0.048 A 
ATOM     12  C   UNL d   1      29.317 -13.717   2.805  0.00  0.00    -0.006 A 
ATOM     13  C   UNL d   1      27.927 -13.986   2.915  0.00  0.00     0.014 A 
ATOM     14  C   UNL d   1      30.229 -13.845   3.947  0.00  0.00     0.038 A 
ATOM     15  C   UNL d   1      27.429 -14.238   4.131  0.00  0.00     0.001 A 
ATOM     16  C   UNL d   1      28.300 -14.385   5.288  0.00  0.00     0.002 A 
ATOM     17  C   UNL d   1      29.639 -14.222   5.246  0.00  0.00     0.030 A 
ATOM     18  N   UNL d   1      31.438 -13.582   3.620  0.00  0.00    -0.385 N 
ATOM     19  C   UNL d   1      31.491 -13.107   2.209  0.00  0.00     0.155 A 
ATOM     20  H   UNL d   1      32.218 -13.698   4.265  0.00  0.00     0.160 HD
ENDBRANCH  10  11
ENDBRANCH   9  10
ENDBRANCH   5   9
BRANCH   6  21
ATOM     21  C   UNL d   1      31.780 -17.277   0.860  0.00  0.00     0.055 A 
ATOM     22  C   UNL d   1      32.194 -16.227   1.708  0.00  0.00     0.030 A 
ATOM     23  C   UNL d   1      33.407 -16.280   2.398  0.00  0.00     0.002 A 
ATOM     24  C   UNL d   1      34.191 -17.422   2.320  0.00  0.00     0.001 A 
ATOM     25  C   UNL d   1      33.795 -18.475   1.505  0.00  0.00     0.009 A 
ATOM     26  C   UNL d   1      32.617 -18.407   0.740  0.00  0.00    -0.035 A 
ATOM     27  C   UNL d   1      32.376 -19.543  -0.209  0.00  0.00     0.050 C 
ENDBRANCH   6  21
BRANCH   1  28
ATOM     28  C   UNL d   1      26.431 -16.747  -0.860  0.00  0.00     0.040 A 
ATOM     29  C   UNL d   1      25.417 -17.456  -0.217  0.00  0.00     0.054 A 
ATOM     30  C   UNL d   1      24.082 -17.208  -0.524  0.00  0.00     0.071 A 
ATOM     31  C   UNL d   1      23.775 -16.326  -1.569  0.00  0.00     0.073 A 
ATOM     32  C   UNL d   1      24.790 -15.621  -2.231  0.00  0.00     0.071 A 
ATOM     33  C   UNL d   1      26.117 -15.828  -1.866  0.00  0.00     0.054 A 
BRANCH  30  34
ATOM     34  O   UNL d   1      23.027 -17.742   0.170  0.00  0.00    -0.356 OA
ATOM     35  C   UNL d   1      22.471 -18.943  -0.373  0.00  0.00     0.210 C 
ENDBRANCH  30  34
BRANCH  32  36
ATOM     36  O   UNL d   1      24.393 -14.664  -3.127  0.00  0.00    -0.356 OA
ATOM     37  C   UNL d   1      25.436 -13.966  -3.801  0.00  0.00     0.210 C 
ENDBRANCH  32  36
ENDBRANCH   1  28
TORSDOF 7
ENDMDL
MODEL 8
REMARK VINA RESULT:    -8.153      0.793      2.134
REMARK INTER + INTRA:         -12.281
REMARK INTER:                 -10.241
REMARK INTRA:                  -2.040
REMARK CONF_INDEPENDENT:        2.088
REMARK UNBOUND:                -2.040
REMARK  7 active torsions:
REMARK  status: ('A' for Active; 'I' for Inactive)
REMARK    1  A    between atoms: O_2  and  C_3 
REMARK    2  A    between atoms: C_5  and  O_6 
REMARK    3  A    between atoms: C_9  and  C_10 
REMARK       I    between atoms: C_10  and  N_12 
REMARK       I    between atoms: N_12  and  C_13 
REMARK       I    between atoms: C_13  and  N_14 
REMARK       I    between atoms: C_13  and  N_26 
REMARK    4  A    between atoms: N_14  and  C_15 
REMARK    5  A    between atoms: C_15  and  C_16 
REMARK    6  A    between atoms: C_16  and  C_17 
REMARK    7  A    between atoms: N_26  and  C_27 
ROOT
ATOM      1  C   UNL d   1      27.335 -13.275  -1.209  0.00  0.00     0.294 C 
ATOM      2  O   UNL d   1      26.953 -12.425  -0.417  0.00  0.00    -0.265 OA
ATOM      3  N   UNL d   1      28.050 -14.406  -0.886  0.00  0.00    -0.023 NA
ATOM      4  C   UNL d   1      28.263 -14.682   0.365  0.00  0.00     0.704 C 
ATOM      5  N   UNL d   1      28.838 -15.881   0.676  0.00  0.00    -0.224 N 
ATOM      6  N   UNL d   1      27.886 -13.931   1.447  0.00  0.00    -0.190 N 
ATOM      7  H   UNL d   1      28.810 -16.136   1.657  0.00  0.00     0.177 HD
ATOM      8  H   UNL d   1      27.440 -13.046   1.180  0.00  0.00     0.184 HD
ENDROOT
BRANCH   5   9
ATOM      9  C   UNL d   1      29.527 -16.723  -0.270  0.00  0.00     0.142 C 
BRANCH   9  10
ATOM     10  C   UNL d   1      28.624 -17.824  -0.819  0.00  0.00     0.057 C 
BRANCH  10  11
ATOM     11  C   UNL d   1      27.235 -17.848  -0.262  0.00  0.00    -0.048 A 
ATOM     12  C   UNL d   1      26.218 -17.249  -0.881  0.00  0.00    -0.006 A 
ATOM     13  C   UNL d   1      26.154 -16.490  -2.080  0.00  0.00     0.014 A 
ATOM     14  C   UNL d   1      25.041 -17.467  -0.033  0.00  0.00     0.038 A 
ATOM     15  C   UNL d   1      25.011 -15.855  -2.362  0.00  0.00     0.001 A 
ATOM     16  C   UNL d   1      23.817 -16.053  -1.553  0.00  0.00     0.002 A 
ATOM     17  C   UNL d   1      23.780 -16.821  -0.445  0.00  0.00     0.030 A 
ATOM     18  N   UNL d   1      25.316 -18.200   0.980  0.00  0.00    -0.385 N 
ATOM     19  C   UNL d   1      26.779 -18.480   1.023  0.00  0.00     0.155 A 
ATOM     20  H   UNL d   1      24.604 -18.521   1.633  0.00  0.00     0.160 HD
ENDBRANCH  10  11
ENDBRANCH   9  10
ENDBRANCH   5   9
BRANCH   6  21
ATOM     21  C   UNL d   1      28.367 -13.874   2.773  0.00  0.00     0.055 A 
ATOM     22  C   UNL d   1      27.406 -14.016   3.797  0.00  0.00     0.030 A 
ATOM     23  C   UNL d   1      27.758 -13.930   5.146  0.00  0.00     0.002 A 
ATOM     24  C   UNL d   1      29.092 -13.785   5.499  0.00  0.00     0.001 A 
ATOM     25  C   UNL d   1      30.057 -13.660   4.508  0.00  0.00     0.009 A 
ATOM     26  C   UNL d   1      29.712 -13.664   3.145  0.00  0.00    -0.035 A 
ATOM     27  C   UNL d   1      30.823 -13.375   2.179  0.00  0.00     0.050 C 
ENDBRANCH   6  21
BRANCH   1  28
ATOM     28  C   UNL d   1      27.011 -13.124  -2.654  0.00  0.00     0.040 A 
ATOM     29  C   UNL d   1      26.462 -11.917  -3.086  0.00  0.00     0.054 A 
ATOM     30  C   UNL d   1      26.264 -11.680  -4.443  0.00  0.00     0.071 A 
ATOM     31  C   UNL d   1      26.510 -12.713  -5.359  0.00  0.00     0.073 A 
ATOM     32  C   UNL d   1      27.047 -13.934  -4.930  0.00  0.00     0.071 A 
ATOM     33  C   UNL d   1      27.305 -14.132  -3.577  0.00  0.00     0.054 A 
BRANCH  30  34
ATOM     34  O   UNL d   1      25.881 -10.469  -4.959  0.00  0.00    -0.356 OA
ATOM     35  C   UNL d   1      25.805 -10.398  -6.386  0.00  0.00     0.210 C 
ENDBRANCH  30  34
BRANCH  32  36
ATOM     36  O   UNL d   1      27.405 -14.827  -5.906  0.00  0.00    -0.356 OA
ATOM     37  C   UNL d   1      28.798 -15.107  -6.018  0.00  0.00     0.210 C 
ENDBRANCH  32  36
ENDBRANCH   1  28
TORSDOF 7
ENDMDL
MODEL 9
REMARK VINA RESULT:    -7.569      2.558      7.408
REMARK INTER + INTRA:         -12.196
REMARK INTER:                  -9.657
REMARK INTRA:                  -2.538
REMARK CONF_INDEPENDENT:        2.088
REMARK UNBOUND:                -2.538
REMARK  7 active torsions:
REMARK  status: ('A' for Active; 'I' for Inactive)
REMARK    1  A    between atoms: O_2  and  C_3 
REMARK    2  A    between atoms: C_5  and  O_6 
REMARK    3  A    between atoms: C_9  and  C_10 
REMARK       I    between atoms: C_10  and  N_12 
REMARK       I    between atoms: N_12  and  C_13 
REMARK       I    between atoms: C_13  and  N_14 
REMARK       I    between atoms: C_13  and  N_26 
REMARK    4  A    between atoms: N_14  and  C_15 
REMARK    5  A    between atoms: C_15  and  C_16 
REMARK    6  A    between atoms: C_16  and  C_17 
REMARK    7  A    between atoms: N_26  and  C_27 
ROOT
ATOM      1  C   UNL d   1      25.221 -14.660  -2.890  0.00  0.00     0.294 C 
ATOM      2  O   UNL d   1      24.846 -14.754  -4.050  0.00  0.00    -0.265 OA
ATOM      3  N   UNL d   1      25.928 -13.606  -2.359  0.00  0.00    -0.023 NA
ATOM      4  C   UNL d   1      26.141 -12.556  -3.093  0.00  0.00     0.704 C 
ATOM      5  N   UNL d   1      26.707 -11.459  -2.508  0.00  0.00    -0.224 N 
ATOM      6  N   UNL d   1      25.771 -12.380  -4.400  0.00  0.00    -0.190 N 
ATOM      7  H   UNL d   1      26.679 -10.609  -3.058  0.00  0.00     0.177 HD
ATOM      8  H   UNL d   1      25.331 -13.214  -4.805  0.00  0.00     0.184 HD
ENDROOT
BRANCH   5   9
ATOM      9  C   UNL d   1      27.389 -11.475  -1.238  0.00  0.00     0.142 C 
BRANCH   9  10
ATOM     10  C   UNL d   1      28.789 -12.073  -1.347  0.00  0.00     0.057 C 
BRANCH  10  11
ATOM     11  C   UNL d   1      28.944 -13.445  -0.770  0.00  0.00    -0.048 A 
ATOM     12  C   UNL d   1      29.118 -14.519  -1.542  0.00  0.00    -0.006 A 
ATOM     13  C   UNL d   1      29.176 -14.669  -2.953  0.00  0.00     0.014 A 
ATOM     14  C   UNL d   1      29.205 -15.665  -0.631  0.00  0.00     0.038 A 
ATOM     15  C   UNL d   1      29.181 -15.911  -3.453  0.00  0.00     0.001 A 
ATOM     16  C   UNL d   1      29.279 -17.075  -2.584  0.00  0.00     0.002 A 
ATOM     17  C   UNL d   1      29.307 -17.006  -1.237  0.00  0.00     0.030 A 
ATOM     18  N   UNL d   1      29.159 -15.300   0.595  0.00  0.00    -0.385 N 
ATOM     19  C   UNL d   1      28.901 -13.835   0.681  0.00  0.00     0.155 A 
ATOM     20  H   UNL d   1      29.287 -15.953   1.366  0.00  0.00     0.160 HD
ENDBRANCH  10  11
ENDBRANCH   9  10
ENDBRANCH   5   9
BRANCH   6  21
ATOM     21  C   UNL d   1      26.255 -11.523  -5.413  0.00  0.00     0.055 A 
ATOM     22  C   UNL d   1      25.570 -10.300  -5.581  0.00  0.00     0.030 A 
ATOM     23  C   UNL d   1      25.929  -9.394  -6.582  0.00  0.00     0.002 A 
ATOM     24  C   UNL d   1      27.034  -9.655  -7.380  0.00  0.00     0.001 A 
ATOM     25  C   UNL d   1      27.734 -10.845  -7.220  0.00  0.00     0.009 A 
ATOM     26  C   UNL d   1      27.338 -11.805  -6.271  0.00  0.00    -0.035 A 
ATOM     27  C   UNL d   1      28.083 -13.107  -6.297  0.00  0.00     0.050 C 
ENDBRANCH   6  21
BRANCH   1  28
ATOM     28  C   UNL d   1      24.895 -15.751  -1.929  0.00  0.00     0.040 A 
ATOM     29  C   UNL d   1      23.556 -15.969  -1.606  0.00  0.00     0.054 A 
ATOM     30  C   UNL d   1      23.192 -17.056  -0.817  0.00  0.00     0.071 A 
ATOM     31  C   UNL d   1      24.195 -17.857  -0.254  0.00  0.00     0.073 A 
ATOM     32  C   UNL d   1      25.544 -17.634  -0.562  0.00  0.00     0.071 A 
ATOM     33  C   UNL d   1      25.889 -16.584  -1.409  0.00  0.00     0.054 A 
BRANCH  30  34
ATOM     34  O   UNL d   1      21.894 -17.431  -0.586  0.00  0.00    -0.356 OA
ATOM     35  C   UNL d   1      21.666 -18.839  -0.466  0.00  0.00     0.210 C 
ENDBRANCH  30  34
BRANCH  32  36
ATOM     36  O   UNL d   1      26.443 -18.558  -0.098  0.00  0.00    -0.356 OA
ATOM     37  C   UNL d   1      26.655 -18.574   1.311  0.00  0.00     0.210 C 
ENDBRANCH  32  36
ENDBRANCH   1  28
TORSDOF 7
ENDMDL
