MODEL 1
REMARK VINA RESULT:   -10.966      0.000      0.000
REMARK INTER + INTRA:         -13.705
REMARK INTER:                 -12.755
REMARK INTRA:                  -0.950
REMARK CONF_INDEPENDENT:        1.790
REMARK UNBOUND:                -0.950
REMARK  6 active torsions:
REMARK  status: ('A' for Active; 'I' for Inactive)
REMARK    1  A    between atoms: C_7  and  N_8 
REMARK       I    between atoms: N_8  and  C_9 
REMARK       I    between atoms: C_9  and  N_22 
REMARK       I    between atoms: N_10  and  C_11 
REMARK    2  A    between atoms: C_11  and  C_13 
REMARK    3  A    between atoms: C_14  and  C_15 
REMARK    4  A    between atoms: N_22  and  C_23 
REMARK    5  A    between atoms: C_23  and  C_24 
REMARK    6  A    between atoms: C_24  and  C_25 
ROOT
ATOM      1  N   UNL d   1      28.093 -17.873  -0.250  0.00  0.00    -0.017 N 
ATOM      2  C   UNL d   1      26.829 -17.575  -0.735  0.00  0.00     0.718 C 
ATOM      3  N   UNL d   1      26.786 -16.748  -1.752  0.00  0.00    -0.024 NA
ATOM      4  C   UNL d   1      25.668 -16.324  -2.326  0.00  0.00     0.283 C 
ATOM      5  O   UNL d   1      24.568 -16.604  -1.933  0.00  0.00    -0.266 OA
ATOM      6  N   UNL d   1      25.791 -18.236  -0.029  0.00  0.00    -0.223 N 
ATOM      7  H   UNL d   1      28.250 -18.488   0.523  0.00  0.00     0.203 HD
ATOM      8  H   UNL d   1      25.996 -18.848   0.743  0.00  0.00     0.177 HD
ENDROOT
BRANCH   1   9
ATOM      9  C   UNL d   1      29.283 -17.333  -0.787  0.00  0.00     0.741 A 
ATOM     10  N   UNL d   1      30.335 -17.090   0.011  0.00  0.00    -0.067 NA
ATOM     11  C   UNL d   1      31.450 -16.568  -0.581  0.00  0.00     0.051 A 
ATOM     12  C   UNL d   1      31.543 -16.292  -1.938  0.00  0.00     0.054 A 
ATOM     13  C   UNL d   1      32.630 -16.267   0.299  0.00  0.00     0.071 C 
ATOM     14  C   UNL d   1      30.432 -16.565  -2.679  0.00  0.00     0.051 A 
ATOM     15  C   UNL d   1      30.328 -16.332  -4.150  0.00  0.00     0.071 C 
ATOM     16  N   UNL d   1      29.343 -17.068  -2.102  0.00  0.00    -0.067 NA
ENDBRANCH   1   9
BRANCH   6  17
ATOM     17  C   UNL d   1      24.355 -18.086  -0.348  0.00  0.00     0.142 C 
BRANCH  17  18
ATOM     18  C   UNL d   1      23.192 -18.149   0.600  0.00  0.00     0.061 C 
BRANCH  18  19
ATOM     19  C   UNL d   1      21.891 -18.785   0.004  0.00  0.00    -0.029 A 
ATOM     20  C   UNL d   1      21.614 -18.839  -1.345  0.00  0.00     0.096 A 
ATOM     21  N   UNL d   1      20.407 -19.454  -1.569  0.00  0.00    -0.365 N 
ATOM     22  C   UNL d   1      19.812 -19.822  -0.406  0.00  0.00     0.043 A 
ATOM     23  H   UNL d   1      19.977 -19.632  -2.457  0.00  0.00     0.165 HD
ATOM     24  C   UNL d   1      18.562 -20.458  -0.147  0.00  0.00     0.033 A 
ATOM     25  C   UNL d   1      20.725 -19.429   0.563  0.00  0.00     0.001 A 
ATOM     26  C   UNL d   1      18.197 -20.736   1.143  0.00  0.00     0.044 A 
ATOM     27  C   UNL d   1      19.082 -20.354   2.068  0.00  0.00     0.117 A 
ATOM     28  F   UNL d   1      18.734 -20.533   3.300  0.00  0.00    -0.206 F 
ATOM     29  C   UNL d   1      20.271 -19.733   1.806  0.00  0.00     0.056 A 
ENDBRANCH  18  19
ENDBRANCH  17  18
ENDBRANCH   6  17
BRANCH   4  30
ATOM     30  C   UNL d   1      25.627 -15.425  -3.444  0.00  0.00     0.078 C 
ATOM     31  C   UNL d   1      26.735 -14.736  -3.848  0.00  0.00     0.017 C 
BRANCH  31  32
ATOM     32  C   UNL d   1      27.038 -13.738  -4.933  0.00  0.00    -0.030 A 
ATOM     33  C   UNL d   1      27.859 -13.864  -6.110  0.00  0.00     0.012 A 
ATOM     34  C   UNL d   1      28.071 -12.833  -7.018  0.00  0.00     0.001 A 
ATOM     35  C   UNL d   1      27.443 -11.636  -6.791  0.00  0.00     0.001 A 
ATOM     36  C   UNL d   1      26.629 -11.486  -5.677  0.00  0.00     0.007 A 
ATOM     37  C   UNL d   1      26.432 -12.507  -4.760  0.00  0.00    -0.052 A 
ATOM     38  C   UNL d   1      25.552 -12.240  -3.594  0.00  0.00     0.049 C 
ENDBRANCH  31  32
ENDBRANCH   4  30
TORSDOF 6
ENDMDL
MODEL 2
REMARK VINA RESULT:   -10.842      6.597      9.426
REMARK INTER + INTRA:         -13.517
REMARK INTER:                 -12.631
REMARK INTRA:                  -0.886
REMARK CONF_INDEPENDENT:        1.790
REMARK UNBOUND:                -0.886
REMARK  6 active torsions:
REMARK  status: ('A' for Active; 'I' for Inactive)
REMARK    1  A    between atoms: C_7  and  N_8 
REMARK       I    between atoms: N_8  and  C_9 
REMARK       I    between atoms: C_9  and  N_22 
REMARK       I    between atoms: N_10  and  C_11 
REMARK    2  A    between atoms: C_11  and  C_13 
REMARK    3  A    between atoms: C_14  and  C_15 
REMARK    4  A    between atoms: N_22  and  C_23 
REMARK    5  A    between atoms: C_23  and  C_24 
REMARK    6  A    between atoms: C_24  and  C_25 
ROOT
ATOM      1  N   UNL d   1      31.656 -15.082   3.307  0.00  0.00    -0.017 N 
ATOM      2  C   UNL d   1      30.491 -14.342   3.437  0.00  0.00     0.718 C 
ATOM      3  N   UNL d   1      29.600 -14.508   2.490  0.00  0.00    -0.024 NA
ATOM      4  C   UNL d   1      28.443 -13.862   2.429  0.00  0.00     0.283 C 
ATOM      5  O   UNL d   1      28.115 -13.005   3.205  0.00  0.00    -0.266 OA
ATOM      6  N   UNL d   1      30.476 -13.526   4.597  0.00  0.00    -0.223 N 
ATOM      7  H   UNL d   1      32.408 -15.036   3.966  0.00  0.00     0.203 HD
ATOM      8  H   UNL d   1      31.256 -13.513   5.234  0.00  0.00     0.177 HD
ENDROOT
BRANCH   1   9
ATOM      9  C   UNL d   1      31.907 -15.963   2.232  0.00  0.00     0.741 A 
ATOM     10  N   UNL d   1      31.671 -15.573   0.969  0.00  0.00    -0.067 NA
ATOM     11  C   UNL d   1      31.938 -16.480  -0.017  0.00  0.00     0.051 A 
ATOM     12  C   UNL d   1      32.436 -17.753   0.223  0.00  0.00     0.054 A 
ATOM     13  C   UNL d   1      31.659 -16.070  -1.436  0.00  0.00     0.071 C 
ATOM     14  C   UNL d   1      32.646 -18.073   1.532  0.00  0.00     0.051 A 
ATOM     15  C   UNL d   1      33.169 -19.391   1.998  0.00  0.00     0.071 C 
ATOM     16  N   UNL d   1      32.381 -17.192   2.493  0.00  0.00    -0.067 NA
ENDBRANCH   1   9
BRANCH   6  17
ATOM     17  C   UNL d   1      29.350 -12.641   4.965  0.00  0.00     0.142 C 
BRANCH  17  18
ATOM     18  C   UNL d   1      28.260 -12.906   5.963  0.00  0.00     0.061 C 
BRANCH  18  19
ATOM     19  C   UNL d   1      28.590 -12.472   7.430  0.00  0.00    -0.029 A 
ATOM     20  C   UNL d   1      28.536 -11.167   7.872  0.00  0.00     0.096 A 
ATOM     21  N   UNL d   1      28.874 -11.090   9.200  0.00  0.00    -0.365 N 
ATOM     22  C   UNL d   1      29.183 -12.311   9.708  0.00  0.00     0.043 A 
ATOM     23  H   UNL d   1      28.904 -10.264   9.768  0.00  0.00     0.165 HD
ATOM     24  C   UNL d   1      29.607 -12.710  11.010  0.00  0.00     0.033 A 
ATOM     25  C   UNL d   1      28.996 -13.166   8.630  0.00  0.00     0.001 A 
ATOM     26  C   UNL d   1      29.844 -14.033  11.269  0.00  0.00     0.044 A 
ATOM     27  C   UNL d   1      29.661 -14.848  10.226  0.00  0.00     0.117 A 
ATOM     28  F   UNL d   1      29.951 -16.094  10.416  0.00  0.00    -0.206 F 
ATOM     29  C   UNL d   1      29.268 -14.449   8.980  0.00  0.00     0.056 A 
ENDBRANCH  18  19
ENDBRANCH  17  18
ENDBRANCH   6  17
BRANCH   4  30
ATOM     30  C   UNL d   1      27.466 -14.052   1.394  0.00  0.00     0.078 C 
ATOM     31  C   UNL d   1      27.207 -15.289   0.876  0.00  0.00     0.017 C 
BRANCH  31  32
ATOM     32  C   UNL d   1      26.290 -15.832  -0.186  0.00  0.00    -0.030 A 
ATOM     33  C   UNL d   1      25.626 -15.161  -1.274  0.00  0.00     0.012 A 
ATOM     34  C   UNL d   1      24.774 -15.798  -2.170  0.00  0.00     0.001 A 
ATOM     35  C   UNL d   1      24.573 -17.145  -2.020  0.00  0.00     0.001 A 
ATOM     36  C   UNL d   1      25.212 -17.827  -0.994  0.00  0.00     0.007 A 
ATOM     37  C   UNL d   1      26.048 -17.190  -0.089  0.00  0.00    -0.052 A 
ATOM     38  C   UNL d   1      26.672 -18.009   0.981  0.00  0.00     0.049 C 
ENDBRANCH  31  32
ENDBRANCH   4  30
TORSDOF 6
ENDMDL
MODEL 3
REMARK VINA RESULT:   -10.810      6.641      9.360
REMARK INTER + INTRA:         -13.504
REMARK INTER:                 -12.600
REMARK INTRA:                  -0.905
REMARK CONF_INDEPENDENT:        1.790
REMARK UNBOUND:                -0.905
REMARK  6 active torsions:
REMARK  status: ('A' for Active; 'I' for Inactive)
REMARK    1  A    between atoms: C_7  and  N_8 
REMARK       I    between atoms: N_8  and  C_9 
REMARK       I    between atoms: C_9  and  N_22 
REMARK       I    between atoms: N_10  and  C_11 
REMARK    2  A    between atoms: C_11  and  C_13 
REMARK    3  A    between atoms: C_14  and  C_15 
REMARK    4  A    between atoms: N_22  and  C_23 
REMARK    5  A    between atoms: C_23  and  C_24 
REMARK    6  A    between atoms: C_24  and  C_25 
ROOT
ATOM      1  N   UNL d   1      31.652 -15.112   3.324  0.00  0.00    -0.017 N 
ATOM      2  C   UNL d   1      30.479 -14.388   3.476  0.00  0.00     0.718 C 
ATOM      3  N   UNL d   1      29.584 -14.543   2.530  0.00  0.00    -0.024 NA
ATOM      4  C   UNL d   1      28.421 -13.908   2.490  0.00  0.00     0.283 C 
ATOM      5  O   UNL d   1      28.088 -13.072   3.285  0.00  0.00    -0.266 OA
ATOM      6  N   UNL d   1      30.462 -13.597   4.654  0.00  0.00    -0.223 N 
ATOM      7  H   UNL d   1      32.406 -15.073   3.980  0.00  0.00     0.203 HD
ATOM      8  H   UNL d   1      31.245 -13.589   5.286  0.00  0.00     0.177 HD
ENDROOT
BRANCH   1   9
ATOM      9  C   UNL d   1      31.905 -15.968   2.229  0.00  0.00     0.741 A 
ATOM     10  N   UNL d   1      32.514 -17.149   2.420  0.00  0.00    -0.067 NA
ATOM     11  C   UNL d   1      32.725 -17.921   1.313  0.00  0.00     0.051 A 
ATOM     12  C   UNL d   1      32.338 -17.550   0.033  0.00  0.00     0.054 A 
ATOM     13  C   UNL d   1      33.427 -19.236   1.503  0.00  0.00     0.071 C 
ATOM     14  C   UNL d   1      31.727 -16.337  -0.078  0.00  0.00     0.051 A 
ATOM     15  C   UNL d   1      31.245 -15.755  -1.366  0.00  0.00     0.071 C 
ATOM     16  N   UNL d   1      31.527 -15.581   0.999  0.00  0.00    -0.067 NA
ENDBRANCH   1   9
BRANCH   6  17
ATOM     17  C   UNL d   1      29.329 -12.732   5.046  0.00  0.00     0.142 C 
BRANCH  17  18
ATOM     18  C   UNL d   1      28.261 -13.020   6.062  0.00  0.00     0.061 C 
BRANCH  18  19
ATOM     19  C   UNL d   1      28.582 -12.528   7.513  0.00  0.00    -0.029 A 
ATOM     20  C   UNL d   1      28.543 -11.205   7.899  0.00  0.00     0.096 A 
ATOM     21  N   UNL d   1      28.868 -11.077   9.226  0.00  0.00    -0.365 N 
ATOM     22  C   UNL d   1      29.154 -12.279   9.788  0.00  0.00     0.043 A 
ATOM     23  H   UNL d   1      28.904 -10.228   9.759  0.00  0.00     0.165 HD
ATOM     24  C   UNL d   1      29.559 -12.630  11.110  0.00  0.00     0.033 A 
ATOM     25  C   UNL d   1      28.965 -13.176   8.745  0.00  0.00     0.001 A 
ATOM     26  C   UNL d   1      29.774 -13.943  11.428  0.00  0.00     0.044 A 
ATOM     27  C   UNL d   1      29.590 -14.799  10.417  0.00  0.00     0.117 A 
ATOM     28  F   UNL d   1      29.859 -16.040  10.663  0.00  0.00    -0.206 F 
ATOM     29  C   UNL d   1      29.215 -14.448   9.152  0.00  0.00     0.056 A 
ENDBRANCH  18  19
ENDBRANCH  17  18
ENDBRANCH   6  17
BRANCH   4  30
ATOM     30  C   UNL d   1      27.441 -14.086   1.456  0.00  0.00     0.078 C 
ATOM     31  C   UNL d   1      27.200 -15.312   0.904  0.00  0.00     0.017 C 
BRANCH  31  32
ATOM     32  C   UNL d   1      26.286 -15.842  -0.168  0.00  0.00    -0.030 A 
ATOM     33  C   UNL d   1      25.628 -15.157  -1.251  0.00  0.00     0.012 A 
ATOM     34  C   UNL d   1      24.778 -15.782  -2.157  0.00  0.00     0.001 A 
ATOM     35  C   UNL d   1      24.572 -17.130  -2.022  0.00  0.00     0.001 A 
ATOM     36  C   UNL d   1      25.205 -17.824  -1.000  0.00  0.00     0.007 A 
ATOM     37  C   UNL d   1      26.039 -17.200  -0.085  0.00  0.00    -0.052 A 
ATOM     38  C   UNL d   1      26.656 -18.031   0.979  0.00  0.00     0.049 C 
ENDBRANCH  31  32
ENDBRANCH   4  30
TORSDOF 6
ENDMDL
MODEL 4
REMARK VINA RESULT:   -10.159      5.058      9.461
REMARK INTER + INTRA:         -13.049
REMARK INTER:                 -11.948
REMARK INTRA:                  -1.101
REMARK CONF_INDEPENDENT:        1.790
REMARK UNBOUND:                -1.101
REMARK  6 active torsions:
REMARK  status: ('A' for Active; 'I' for Inactive)
REMARK    1  A    between atoms: C_7  and  N_8 
REMARK       I    between atoms: N_8  and  C_9 
REMARK       I    between atoms: C_9  and  N_22 
REMARK       I    between atoms: N_10  and  C_11 
REMARK    2  A    between atoms: C_11  and  C_13 
REMARK    3  A    between atoms: C_14  and  C_15 
REMARK    4  A    between atoms: N_22  and  C_23 
REMARK    5  A    between atoms: C_23  and  C_24 
REMARK    6  A    between atoms: C_24  and  C_25 
ROOT
ATOM      1  N   UNL d   1      31.789 -15.131   3.279  0.00  0.00    -0.017 N 
ATOM      2  C   UNL d   1      31.905 -15.943   2.161  0.00  0.00     0.718 C 
ATOM      3  N   UNL d   1      30.871 -15.958   1.355  0.00  0.00    -0.024 NA
ATOM      4  C   UNL d   1      30.789 -16.698   0.258  0.00  0.00     0.283 C 
ATOM      5  O   UNL d   1      31.630 -17.485  -0.083  0.00  0.00    -0.266 OA
ATOM      6  N   UNL d   1      33.150 -16.620   2.091  0.00  0.00    -0.223 N 
ATOM      7  H   UNL d   1      32.512 -15.040   3.965  0.00  0.00     0.203 HD
ATOM      8  H   UNL d   1      33.849 -16.498   2.806  0.00  0.00     0.177 HD
ENDROOT
BRANCH   1   9
ATOM      9  C   UNL d   1      30.641 -14.360   3.569  0.00  0.00     0.741 A 
ATOM     10  N   UNL d   1      30.069 -13.612   2.612  0.00  0.00    -0.067 NA
ATOM     11  C   UNL d   1      28.963 -12.895   2.968  0.00  0.00     0.051 A 
ATOM     12  C   UNL d   1      28.413 -12.912   4.242  0.00  0.00     0.054 A 
ATOM     13  C   UNL d   1      28.322 -12.034   1.916  0.00  0.00     0.071 C 
ATOM     14  C   UNL d   1      29.052 -13.695   5.156  0.00  0.00     0.051 A 
ATOM     15  C   UNL d   1      28.624 -13.842   6.579  0.00  0.00     0.071 C 
ATOM     16  N   UNL d   1      30.134 -14.389   4.812  0.00  0.00    -0.067 NA
ENDBRANCH   1   9
BRANCH   6  17
ATOM     17  C   UNL d   1      33.522 -17.546   1.000  0.00  0.00     0.142 C 
BRANCH  17  18
ATOM     18  C   UNL d   1      33.726 -19.031   1.084  0.00  0.00     0.061 C 
BRANCH  18  19
ATOM     19  C   UNL d   1      33.946 -19.585   2.532  0.00  0.00    -0.029 A 
ATOM     20  C   UNL d   1      35.158 -19.553   3.187  0.00  0.00     0.096 A 
ATOM     21  N   UNL d   1      35.049 -20.106   4.439  0.00  0.00    -0.365 N 
ATOM     22  C   UNL d   1      33.787 -20.546   4.680  0.00  0.00     0.043 A 
ATOM     23  H   UNL d   1      35.775 -20.196   5.124  0.00  0.00     0.165 HD
ATOM     24  C   UNL d   1      33.218 -21.199   5.814  0.00  0.00     0.033 A 
ATOM     25  C   UNL d   1      33.102 -20.215   3.520  0.00  0.00     0.001 A 
ATOM     26  C   UNL d   1      31.890 -21.531   5.808  0.00  0.00     0.044 A 
ATOM     27  C   UNL d   1      31.239 -21.209   4.686  0.00  0.00     0.117 A 
ATOM     28  F   UNL d   1      30.001 -21.578   4.619  0.00  0.00    -0.206 F 
ATOM     29  C   UNL d   1      31.800 -20.596   3.603  0.00  0.00     0.056 A 
ENDBRANCH  18  19
ENDBRANCH  17  18
ENDBRANCH   6  17
BRANCH   4  30
ATOM     30  C   UNL d   1      29.657 -16.707  -0.626  0.00  0.00     0.078 C 
ATOM     31  C   UNL d   1      28.379 -16.765  -0.148  0.00  0.00     0.017 C 
BRANCH  31  32
ATOM     32  C   UNL d   1      27.007 -16.801  -0.766  0.00  0.00    -0.030 A 
ATOM     33  C   UNL d   1      26.464 -16.052  -1.870  0.00  0.00     0.012 A 
ATOM     34  C   UNL d   1      25.152 -16.172  -2.315  0.00  0.00     0.001 A 
ATOM     35  C   UNL d   1      24.338 -17.072  -1.679  0.00  0.00     0.001 A 
ATOM     36  C   UNL d   1      24.833 -17.823  -0.623  0.00  0.00     0.007 A 
ATOM     37  C   UNL d   1      26.135 -17.691  -0.166  0.00  0.00    -0.052 A 
ATOM     38  C   UNL d   1      26.563 -18.533   0.980  0.00  0.00     0.049 C 
ENDBRANCH  31  32
ENDBRANCH   4  30
TORSDOF 6
ENDMDL
MODEL 5
REMARK VINA RESULT:    -9.929      5.165      9.026
REMARK INTER + INTRA:         -13.161
REMARK INTER:                 -11.719
REMARK INTRA:                  -1.442
REMARK CONF_INDEPENDENT:        1.790
REMARK UNBOUND:                -1.442
REMARK  6 active torsions:
REMARK  status: ('A' for Active; 'I' for Inactive)
REMARK    1  A    between atoms: C_7  and  N_8 
REMARK       I    between atoms: N_8  and  C_9 
REMARK       I    between atoms: C_9  and  N_22 
REMARK       I    between atoms: N_10  and  C_11 
REMARK    2  A    between atoms: C_11  and  C_13 
REMARK    3  A    between atoms: C_14  and  C_15 
REMARK    4  A    between atoms: N_22  and  C_23 
REMARK    5  A    between atoms: C_23  and  C_24 
REMARK    6  A    between atoms: C_24  and  C_25 
ROOT
ATOM      1  N   UNL d   1      31.510 -14.879   3.329  0.00  0.00    -0.017 N 
ATOM      2  C   UNL d   1      31.672 -15.440   2.072  0.00  0.00     0.718 C 
ATOM      3  N   UNL d   1      30.580 -15.568   1.356  0.00  0.00    -0.024 NA
ATOM      4  C   UNL d   1      30.537 -16.111   0.148  0.00  0.00     0.283 C 
ATOM      5  O   UNL d   1      31.487 -16.604  -0.398  0.00  0.00    -0.266 OA
ATOM      6  N   UNL d   1      33.019 -15.778   1.782  0.00  0.00    -0.223 N 
ATOM      7  H   UNL d   1      32.269 -14.734   3.964  0.00  0.00     0.203 HD
ATOM      8  H   UNL d   1      33.752 -15.613   2.453  0.00  0.00     0.177 HD
ENDROOT
BRANCH   1   9
ATOM      9  C   UNL d   1      30.261 -14.465   3.844  0.00  0.00     0.741 A 
ATOM     10  N   UNL d   1      29.269 -14.111   3.012  0.00  0.00    -0.067 NA
ATOM     11  C   UNL d   1      28.091 -13.724   3.585  0.00  0.00     0.051 A 
ATOM     12  C   UNL d   1      27.878 -13.688   4.955  0.00  0.00     0.054 A 
ATOM     13  C   UNL d   1      26.976 -13.301   2.669  0.00  0.00     0.071 C 
ATOM     14  C   UNL d   1      28.934 -14.061   5.732  0.00  0.00     0.051 A 
ATOM     15  C   UNL d   1      28.909 -14.083   7.225  0.00  0.00     0.071 C 
ATOM     16  N   UNL d   1      30.084 -14.433   5.175  0.00  0.00    -0.067 NA
ENDBRANCH   1   9
BRANCH   6  17
ATOM     17  C   UNL d   1      33.458 -16.391   0.511  0.00  0.00     0.142 C 
BRANCH  17  18
ATOM     18  C   UNL d   1      34.160 -17.704   0.317  0.00  0.00     0.061 C 
BRANCH  18  19
ATOM     19  C   UNL d   1      33.235 -18.964   0.397  0.00  0.00    -0.029 A 
ATOM     20  C   UNL d   1      32.760 -19.636  -0.709  0.00  0.00     0.096 A 
ATOM     21  N   UNL d   1      31.978 -20.699  -0.332  0.00  0.00    -0.365 N 
ATOM     22  C   UNL d   1      31.873 -20.787   1.019  0.00  0.00     0.043 A 
ATOM     23  H   UNL d   1      31.521 -21.356  -0.937  0.00  0.00     0.165 HD
ATOM     24  C   UNL d   1      31.158 -21.699   1.851  0.00  0.00     0.033 A 
ATOM     25  C   UNL d   1      32.655 -19.734   1.473  0.00  0.00     0.001 A 
ATOM     26  C   UNL d   1      31.232 -21.574   3.212  0.00  0.00     0.044 A 
ATOM     27  C   UNL d   1      31.987 -20.558   3.640  0.00  0.00     0.117 A 
ATOM     28  F   UNL d   1      32.016 -20.366   4.918  0.00  0.00    -0.206 F 
ATOM     29  C   UNL d   1      32.656 -19.684   2.830  0.00  0.00     0.056 A 
ENDBRANCH  18  19
ENDBRANCH  17  18
ENDBRANCH   6  17
BRANCH   4  30
ATOM     30  C   UNL d   1      29.340 -16.242  -0.635  0.00  0.00     0.078 C 
ATOM     31  C   UNL d   1      28.121 -16.431  -0.049  0.00  0.00     0.017 C 
BRANCH  31  32
ATOM     32  C   UNL d   1      26.713 -16.613  -0.546  0.00  0.00    -0.030 A 
ATOM     33  C   UNL d   1      25.955 -15.841  -1.497  0.00  0.00     0.012 A 
ATOM     34  C   UNL d   1      24.635 -16.116  -1.840  0.00  0.00     0.001 A 
ATOM     35  C   UNL d   1      24.030 -17.196  -1.253  0.00  0.00     0.001 A 
ATOM     36  C   UNL d   1      24.737 -17.973  -0.346  0.00  0.00     0.007 A 
ATOM     37  C   UNL d   1      26.047 -17.689   0.011  0.00  0.00    -0.052 A 
ATOM     38  C   UNL d   1      26.709 -18.575   1.002  0.00  0.00     0.049 C 
ENDBRANCH  31  32
ENDBRANCH   4  30
TORSDOF 6
ENDMDL
MODEL 6
REMARK VINA RESULT:    -9.551      5.156      9.095
REMARK INTER + INTRA:         -12.911
REMARK INTER:                 -11.341
REMARK INTRA:                  -1.570
REMARK CONF_INDEPENDENT:        1.790
REMARK UNBOUND:                -1.570
REMARK  6 active torsions:
REMARK  status: ('A' for Active; 'I' for Inactive)
REMARK    1  A    between atoms: C_7  and  N_8 
REMARK       I    between atoms: N_8  and  C_9 
REMARK       I    between atoms: C_9  and  N_22 
REMARK       I    between atoms: N_10  and  C_11 
REMARK    2  A    between atoms: C_11  and  C_13 
REMARK    3  A    between atoms: C_14  and  C_15 
REMARK    4  A    between atoms: N_22  and  C_23 
REMARK    5  A    between atoms: C_23  and  C_24 
REMARK    6  A    between atoms: C_24  and  C_25 
ROOT
ATOM      1  N   UNL d   1      31.568 -14.653   3.225  0.00  0.00    -0.017 N 
ATOM      2  C   UNL d   1      31.759 -15.319   2.024  0.00  0.00     0.718 C 
ATOM      3  N   UNL d   1      30.671 -15.629   1.362  0.00  0.00    -0.024 NA
ATOM      4  C   UNL d   1      30.657 -16.293   0.214  0.00  0.00     0.283 C 
ATOM      5  O   UNL d   1      31.641 -16.739  -0.312  0.00  0.00    -0.266 OA
ATOM      6  N   UNL d   1      33.128 -15.543   1.724  0.00  0.00    -0.223 N 
ATOM      7  H   UNL d   1      32.322 -14.368   3.817  0.00  0.00     0.203 HD
ATOM      8  H   UNL d   1      33.854 -15.237   2.350  0.00  0.00     0.177 HD
ENDROOT
BRANCH   1   9
ATOM      9  C   UNL d   1      30.295 -14.321   3.739  0.00  0.00     0.741 A 
ATOM     10  N   UNL d   1      29.289 -14.009   2.906  0.00  0.00    -0.067 NA
ATOM     11  C   UNL d   1      28.088 -13.699   3.478  0.00  0.00     0.051 A 
ATOM     12  C   UNL d   1      27.865 -13.700   4.848  0.00  0.00     0.054 A 
ATOM     13  C   UNL d   1      26.956 -13.325   2.563  0.00  0.00     0.071 C 
ATOM     14  C   UNL d   1      28.937 -14.025   5.625  0.00  0.00     0.051 A 
ATOM     15  C   UNL d   1      28.905 -14.075   7.117  0.00  0.00     0.071 C 
ATOM     16  N   UNL d   1      30.109 -14.322   5.069  0.00  0.00    -0.067 NA
ENDBRANCH   1   9
BRANCH   6  17
ATOM     17  C   UNL d   1      33.599 -16.233   0.504  0.00  0.00     0.142 C 
BRANCH  17  18
ATOM     18  C   UNL d   1      34.152 -17.624   0.391  0.00  0.00     0.061 C 
BRANCH  18  19
ATOM     19  C   UNL d   1      33.489 -18.677   1.340  0.00  0.00    -0.029 A 
ATOM     20  C   UNL d   1      33.712 -18.731   2.699  0.00  0.00     0.096 A 
ATOM     21  N   UNL d   1      32.996 -19.753   3.270  0.00  0.00    -0.365 N 
ATOM     22  C   UNL d   1      32.280 -20.438   2.341  0.00  0.00     0.043 A 
ATOM     23  H   UNL d   1      32.969 -20.003   4.240  0.00  0.00     0.165 HD
ATOM     24  C   UNL d   1      31.423 -21.572   2.461  0.00  0.00     0.033 A 
ATOM     25  C   UNL d   1      32.566 -19.773   1.157  0.00  0.00     0.001 A 
ATOM     26  C   UNL d   1      30.798 -22.070   1.350  0.00  0.00     0.044 A 
ATOM     27  C   UNL d   1      31.079 -21.423   0.214  0.00  0.00     0.117 A 
ATOM     28  F   UNL d   1      30.565 -21.914  -0.866  0.00  0.00    -0.206 F 
ATOM     29  C   UNL d   1      31.913 -20.346   0.113  0.00  0.00     0.056 A 
ENDBRANCH  18  19
ENDBRANCH  17  18
ENDBRANCH   6  17
BRANCH   4  30
ATOM     30  C   UNL d   1      29.463 -16.625  -0.511  0.00  0.00     0.078 C 
ATOM     31  C   UNL d   1      28.225 -16.293  -0.039  0.00  0.00     0.017 C 
BRANCH  31  32
ATOM     32  C   UNL d   1      26.811 -16.486  -0.516  0.00  0.00    -0.030 A 
ATOM     33  C   UNL d   1      25.999 -15.665  -1.377  0.00  0.00     0.012 A 
ATOM     34  C   UNL d   1      24.682 -15.961  -1.710  0.00  0.00     0.001 A 
ATOM     35  C   UNL d   1      24.135 -17.112  -1.207  0.00  0.00     0.001 A 
ATOM     36  C   UNL d   1      24.895 -17.936  -0.390  0.00  0.00     0.007 A 
ATOM     37  C   UNL d   1      26.202 -17.633  -0.041  0.00  0.00    -0.052 A 
ATOM     38  C   UNL d   1      26.924 -18.575   0.851  0.00  0.00     0.049 C 
ENDBRANCH  31  32
ENDBRANCH   4  30
TORSDOF 6
ENDMDL
MODEL 7
REMARK VINA RESULT:    -9.293      4.801      8.392
REMARK INTER + INTRA:         -12.773
REMARK INTER:                 -11.083
REMARK INTRA:                  -1.690
REMARK CONF_INDEPENDENT:        1.790
REMARK UNBOUND:                -1.690
REMARK  6 active torsions:
REMARK  status: ('A' for Active; 'I' for Inactive)
REMARK    1  A    between atoms: C_7  and  N_8 
REMARK       I    between atoms: N_8  and  C_9 
REMARK       I    between atoms: C_9  and  N_22 
REMARK       I    between atoms: N_10  and  C_11 
REMARK    2  A    between atoms: C_11  and  C_13 
REMARK    3  A    between atoms: C_14  and  C_15 
REMARK    4  A    between atoms: N_22  and  C_23 
REMARK    5  A    between atoms: C_23  and  C_24 
REMARK    6  A    between atoms: C_24  and  C_25 
ROOT
ATOM      1  N   UNL d   1      32.915 -17.635   2.333  0.00  0.00    -0.017 N 
ATOM      2  C   UNL d   1      32.244 -16.681   1.584  0.00  0.00     0.718 C 
ATOM      3  N   UNL d   1      31.155 -17.090   0.980  0.00  0.00    -0.024 NA
ATOM      4  C   UNL d   1      30.403 -16.329   0.196  0.00  0.00     0.283 C 
ATOM      5  O   UNL d   1      30.674 -15.196  -0.095  0.00  0.00    -0.266 OA
ATOM      6  N   UNL d   1      32.870 -15.407   1.613  0.00  0.00    -0.223 N 
ATOM      7  H   UNL d   1      33.758 -17.440   2.836  0.00  0.00     0.203 HD
ATOM      8  H   UNL d   1      33.718 -15.257   2.134  0.00  0.00     0.177 HD
ENDROOT
BRANCH   1   9
ATOM      9  C   UNL d   1      32.488 -18.976   2.453  0.00  0.00     0.741 A 
ATOM     10  N   UNL d   1      32.286 -19.723   1.356  0.00  0.00    -0.067 NA
ATOM     11  C   UNL d   1      31.874 -21.010   1.554  0.00  0.00     0.051 A 
ATOM     12  C   UNL d   1      31.668 -21.568   2.807  0.00  0.00     0.054 A 
ATOM     13  C   UNL d   1      31.620 -21.855   0.337  0.00  0.00     0.071 C 
ATOM     14  C   UNL d   1      31.893 -20.744   3.870  0.00  0.00     0.051 A 
ATOM     15  C   UNL d   1      31.720 -21.151   5.296  0.00  0.00     0.071 C 
ATOM     16  N   UNL d   1      32.289 -19.488   3.679  0.00  0.00    -0.067 NA
ENDBRANCH   1   9
BRANCH   6  17
ATOM     17  C   UNL d   1      32.354 -14.222   0.897  0.00  0.00     0.142 C 
BRANCH  17  18
ATOM     18  C   UNL d   1      31.680 -13.015   1.483  0.00  0.00     0.061 C 
BRANCH  18  19
ATOM     19  C   UNL d   1      30.219 -13.257   1.991  0.00  0.00    -0.029 A 
ATOM     20  C   UNL d   1      29.095 -13.030   1.226  0.00  0.00     0.096 A 
ATOM     21  N   UNL d   1      27.958 -13.332   1.932  0.00  0.00    -0.365 N 
ATOM     22  C   UNL d   1      28.249 -13.754   3.189  0.00  0.00     0.043 A 
ATOM     23  H   UNL d   1      27.011 -13.268   1.607  0.00  0.00     0.165 HD
ATOM     24  C   UNL d   1      27.406 -14.148   4.270  0.00  0.00     0.033 A 
ATOM     25  C   UNL d   1      29.636 -13.726   3.227  0.00  0.00     0.001 A 
ATOM     26  C   UNL d   1      27.964 -14.553   5.453  0.00  0.00     0.044 A 
ATOM     27  C   UNL d   1      29.300 -14.521   5.479  0.00  0.00     0.117 A 
ATOM     28  F   UNL d   1      29.856 -14.824   6.606  0.00  0.00    -0.206 F 
ATOM     29  C   UNL d   1      30.095 -14.129   4.440  0.00  0.00     0.056 A 
ENDBRANCH  18  19
ENDBRANCH  17  18
ENDBRANCH   6  17
BRANCH   4  30
ATOM     30  C   UNL d   1      29.206 -16.780  -0.458  0.00  0.00     0.078 C 
ATOM     31  C   UNL d   1      27.995 -16.756   0.173  0.00  0.00     0.017 C 
BRANCH  31  32
ATOM     32  C   UNL d   1      26.590 -17.148  -0.195  0.00  0.00    -0.030 A 
ATOM     33  C   UNL d   1      25.752 -18.200   0.322  0.00  0.00     0.012 A 
ATOM     34  C   UNL d   1      24.468 -18.463  -0.143  0.00  0.00     0.001 A 
ATOM     35  C   UNL d   1      23.966 -17.662  -1.135  0.00  0.00     0.001 A 
ATOM     36  C   UNL d   1      24.739 -16.628  -1.643  0.00  0.00     0.007 A 
ATOM     37  C   UNL d   1      26.026 -16.375  -1.194  0.00  0.00    -0.052 A 
ATOM     38  C   UNL d   1      26.775 -15.252  -1.813  0.00  0.00     0.049 C 
ENDBRANCH  31  32
ENDBRANCH   4  30
TORSDOF 6
ENDMDL
MODEL 8
REMARK VINA RESULT:    -9.072      3.799      8.140
REMARK INTER + INTRA:         -13.169
REMARK INTER:                 -10.862
REMARK INTRA:                  -2.307
REMARK CONF_INDEPENDENT:        1.790
REMARK UNBOUND:                -2.307
REMARK  6 active torsions:
REMARK  status: ('A' for Active; 'I' for Inactive)
REMARK    1  A    between atoms: C_7  and  N_8 
REMARK       I    between atoms: N_8  and  C_9 
REMARK       I    between atoms: C_9  and  N_22 
REMARK       I    between atoms: N_10  and  C_11 
REMARK    2  A    between atoms: C_11  and  C_13 
REMARK    3  A    between atoms: C_14  and  C_15 
REMARK    4  A    between atoms: N_22  and  C_23 
REMARK    5  A    between atoms: C_23  and  C_24 
REMARK    6  A    between atoms: C_24  and  C_25 
ROOT
ATOM      1  N   UNL d   1      30.774 -14.847   1.594  0.00  0.00    -0.017 N 
ATOM      2  C   UNL d   1      30.623 -15.798   0.597  0.00  0.00     0.718 C 
ATOM      3  N   UNL d   1      29.425 -16.319   0.480  0.00  0.00    -0.024 NA
ATOM      4  C   UNL d   1      29.102 -17.263  -0.393  0.00  0.00     0.283 C 
ATOM      5  O   UNL d   1      29.891 -17.790  -1.131  0.00  0.00    -0.266 OA
ATOM      6  N   UNL d   1      31.816 -16.035  -0.133  0.00  0.00    -0.223 N 
ATOM      7  H   UNL d   1      31.641 -14.382   1.778  0.00  0.00     0.203 HD
ATOM      8  H   UNL d   1      32.666 -15.543   0.088  0.00  0.00     0.177 HD
ENDROOT
BRANCH   1   9
ATOM      9  C   UNL d   1      29.729 -14.445   2.455  0.00  0.00     0.741 A 
ATOM     10  N   UNL d   1      29.854 -14.588   3.784  0.00  0.00    -0.067 NA
ATOM     11  C   UNL d   1      28.801 -14.177   4.551  0.00  0.00     0.051 A 
ATOM     12  C   UNL d   1      27.641 -13.623   4.030  0.00  0.00     0.054 A 
ATOM     13  C   UNL d   1      28.914 -14.351   6.040  0.00  0.00     0.071 C 
ATOM     14  C   UNL d   1      27.590 -13.513   2.673  0.00  0.00     0.051 A 
ATOM     15  C   UNL d   1      26.429 -12.952   1.920  0.00  0.00     0.071 C 
ATOM     16  N   UNL d   1      28.613 -13.919   1.924  0.00  0.00    -0.067 NA
ENDBRANCH   1   9
BRANCH   6  17
ATOM     17  C   UNL d   1      31.921 -17.002  -1.245  0.00  0.00     0.142 C 
BRANCH  17  18
ATOM     18  C   UNL d   1      32.247 -16.717  -2.684  0.00  0.00     0.061 C 
BRANCH  18  19
ATOM     19  C   UNL d   1      31.004 -16.501  -3.610  0.00  0.00    -0.029 A 
ATOM     20  C   UNL d   1      30.855 -17.100  -4.843  0.00  0.00     0.096 A 
ATOM     21  N   UNL d   1      29.669 -16.728  -5.424  0.00  0.00    -0.365 N 
ATOM     22  C   UNL d   1      28.978 -15.863  -4.637  0.00  0.00     0.043 A 
ATOM     23  H   UNL d   1      29.311 -17.028  -6.312  0.00  0.00     0.165 HD
ATOM     24  C   UNL d   1      27.730 -15.201  -4.834  0.00  0.00     0.033 A 
ATOM     25  C   UNL d   1      29.785 -15.732  -3.516  0.00  0.00     0.001 A 
ATOM     26  C   UNL d   1      27.240 -14.374  -3.859  0.00  0.00     0.044 A 
ATOM     27  C   UNL d   1      28.024 -14.254  -2.783  0.00  0.00     0.117 A 
ATOM     28  F   UNL d   1      27.628 -13.421  -1.877  0.00  0.00    -0.206 F 
ATOM     29  C   UNL d   1      29.225 -14.884  -2.615  0.00  0.00     0.056 A 
ENDBRANCH  18  19
ENDBRANCH  17  18
ENDBRANCH   6  17
BRANCH   4  30
ATOM     30  C   UNL d   1      27.788 -17.826  -0.523  0.00  0.00     0.078 C 
ATOM     31  C   UNL d   1      26.666 -17.082  -0.288  0.00  0.00     0.017 C 
BRANCH  31  32
ATOM     32  C   UNL d   1      25.185 -17.343  -0.318  0.00  0.00    -0.030 A 
ATOM     33  C   UNL d   1      24.419 -18.424   0.247  0.00  0.00     0.012 A 
ATOM     34  C   UNL d   1      23.041 -18.549   0.111  0.00  0.00     0.001 A 
ATOM     35  C   UNL d   1      22.372 -17.574  -0.582  0.00  0.00     0.001 A 
ATOM     36  C   UNL d   1      23.076 -16.508  -1.124  0.00  0.00     0.007 A 
ATOM     37  C   UNL d   1      24.453 -16.392  -1.006  0.00  0.00    -0.052 A 
ATOM     38  C   UNL d   1      25.112 -15.220  -1.634  0.00  0.00     0.049 C 
ENDBRANCH  31  32
ENDBRANCH   4  30
TORSDOF 6
ENDMDL
MODEL 9
REMARK VINA RESULT:    -9.034      4.180      8.300
REMARK INTER + INTRA:         -12.729
REMARK INTER:                 -10.823
REMARK INTRA:                  -1.906
REMARK CONF_INDEPENDENT:        1.790
REMARK UNBOUND:                -1.906
REMARK  6 active torsions:
REMARK  status: ('A' for Active; 'I' for Inactive)
REMARK    1  A    between atoms: C_7  and  N_8 
REMARK       I    between atoms: N_8  and  C_9 
REMARK       I    between atoms: C_9  and  N_22 
REMARK       I    between atoms: N_10  and  C_11 
REMARK    2  A    between atoms: C_11  and  C_13 
REMARK    3  A    between atoms: C_14  and  C_15 
REMARK    4  A    between atoms: N_22  and  C_23 
REMARK    5  A    between atoms: C_23  and  C_24 
REMARK    6  A    between atoms: C_24  and  C_25 
ROOT
ATOM      1  N   UNL d   1      28.457 -18.185  -0.145  0.00  0.00    -0.017 N 
ATOM      2  C   UNL d   1      29.588 -17.860  -0.878  0.00  0.00     0.718 C 
ATOM      3  N   UNL d   1      29.458 -16.863  -1.720  0.00  0.00    -0.024 NA
ATOM      4  C   UNL d   1      30.419 -16.434  -2.526  0.00  0.00     0.283 C 
ATOM      5  O   UNL d   1      31.497 -16.956  -2.618  0.00  0.00    -0.266 OA
ATOM      6  N   UNL d   1      30.704 -18.682  -0.575  0.00  0.00    -0.223 N 
ATOM      7  H   UNL d   1      28.435 -18.928   0.525  0.00  0.00     0.203 HD
ATOM      8  H   UNL d   1      30.636 -19.419   0.108  0.00  0.00     0.177 HD
ENDROOT
BRANCH   1   9
ATOM      9  C   UNL d   1      27.222 -17.511  -0.275  0.00  0.00     0.741 A 
ATOM     10  N   UNL d   1      26.068 -18.192  -0.189  0.00  0.00    -0.067 NA
ATOM     11  C   UNL d   1      24.915 -17.472  -0.324  0.00  0.00     0.051 A 
ATOM     12  C   UNL d   1      24.885 -16.100  -0.532  0.00  0.00     0.054 A 
ATOM     13  C   UNL d   1      23.614 -18.220  -0.254  0.00  0.00     0.071 C 
ATOM     14  C   UNL d   1      26.098 -15.483  -0.609  0.00  0.00     0.051 A 
ATOM     15  C   UNL d   1      26.280 -14.019  -0.837  0.00  0.00     0.071 C 
ATOM     16  N   UNL d   1      27.222 -16.185  -0.484  0.00  0.00    -0.067 NA
ENDBRANCH   1   9
BRANCH   6  17
ATOM     17  C   UNL d   1      32.026 -18.543  -1.219  0.00  0.00     0.142 C 
BRANCH  17  18
ATOM     18  C   UNL d   1      32.730 -19.536  -2.099  0.00  0.00     0.061 C 
BRANCH  18  19
ATOM     19  C   UNL d   1      31.904 -20.022  -3.336  0.00  0.00    -0.029 A 
ATOM     20  C   UNL d   1      31.217 -21.216  -3.376  0.00  0.00     0.096 A 
ATOM     21  N   UNL d   1      30.585 -21.372  -4.585  0.00  0.00    -0.365 N 
ATOM     22  C   UNL d   1      30.824 -20.322  -5.412  0.00  0.00     0.043 A 
ATOM     23  H   UNL d   1      30.011 -22.143  -4.870  0.00  0.00     0.165 HD
ATOM     24  C   UNL d   1      30.405 -20.062  -6.750  0.00  0.00     0.033 A 
ATOM     25  C   UNL d   1      31.620 -19.482  -4.646  0.00  0.00     0.001 A 
ATOM     26  C   UNL d   1      30.780 -18.897  -7.364  0.00  0.00     0.044 A 
ATOM     27  C   UNL d   1      31.547 -18.095  -6.618  0.00  0.00     0.117 A 
ATOM     28  F   UNL d   1      31.981 -17.023  -7.195  0.00  0.00    -0.206 F 
ATOM     29  C   UNL d   1      31.951 -18.364  -5.342  0.00  0.00     0.056 A 
ENDBRANCH  18  19
ENDBRANCH  17  18
ENDBRANCH   6  17
BRANCH   4  30
ATOM     30  C   UNL d   1      30.274 -15.336  -3.441  0.00  0.00     0.078 C 
ATOM     31  C   UNL d   1      30.229 -15.534  -4.791  0.00  0.00     0.017 C 
BRANCH  31  32
ATOM     32  C   UNL d   1      30.101 -14.645  -5.999  0.00  0.00    -0.030 A 
ATOM     33  C   UNL d   1      31.115 -14.099  -6.864  0.00  0.00     0.012 A 
ATOM     34  C   UNL d   1      30.844 -13.258  -7.937  0.00  0.00     0.001 A 
ATOM     35  C   UNL d   1      29.534 -12.950  -8.198  0.00  0.00     0.001 A 
ATOM     36  C   UNL d   1      28.530 -13.474  -7.397  0.00  0.00     0.007 A 
ATOM     37  C   UNL d   1      28.800 -14.298  -6.314  0.00  0.00    -0.052 A 
ATOM     38  C   UNL d   1      27.654 -14.795  -5.511  0.00  0.00     0.049 C 
ENDBRANCH  31  32
ENDBRANCH   4  30
TORSDOF 6
ENDMDL
