MODEL 1
REMARK VINA RESULT:    -8.479      0.000      0.000
REMARK INTER + INTRA:         -10.674
REMARK INTER:                  -9.373
REMARK INTRA:                  -1.300
REMARK CONF_INDEPENDENT:        0.895
REMARK UNBOUND:                -1.300
REMARK  3 active torsions:
REMARK  status: ('A' for Active; 'I' for Inactive)
REMARK    1  A    between atoms: C_7  and  C_8 
REMARK       I    between atoms: C_8  and  N_10 
REMARK    2  A    between atoms: N_10  and  N_11 
REMARK       I    between atoms: N_11  and  C_12 
REMARK    3  A    between atoms: C_12  and  C_14 
ROOT
ATOM      1  C   UNL d   1      24.290 -17.896  -0.191  0.00  0.00     0.270 C 
ATOM      2  O   UNL d   1      24.670 -18.286   0.914  0.00  0.00    -0.266 OA
ATOM      3  N   UNL d   1      23.038 -18.250  -0.676  0.00  0.00    -0.263 N 
ATOM      4  H   UNL d   1      22.658 -17.988  -1.570  0.00  0.00     0.190 HD
ENDROOT
BRANCH   3   5
ATOM      5  N   UNL d   1      22.116 -19.022   0.050  0.00  0.00    -0.263 N 
ATOM      6  C   UNL d   1      20.781 -18.937  -0.334  0.00  0.00     0.270 C 
ATOM      7  O   UNL d   1      20.411 -18.200  -1.254  0.00  0.00    -0.266 OA
ATOM      8  H   UNL d   1      22.483 -19.700   0.712  0.00  0.00     0.190 HD
BRANCH   6   9
ATOM      9  C   UNL d   1      19.856 -19.779   0.412  0.00  0.00     0.040 A 
ATOM     10  C   UNL d   1      19.861 -19.984   1.832  0.00  0.00     0.024 A 
ATOM     11  C   UNL d   1      18.853 -20.822   2.255  0.00  0.00     0.050 A 
ATOM     12  S   UNL d   1      17.888 -21.368   0.956  0.00  0.00    -0.113 SA
ATOM     13  C   UNL d   1      18.798 -20.454  -0.172  0.00  0.00     0.066 A 
ENDBRANCH   6   9
ENDBRANCH   3   5
BRANCH   1  14
ATOM     14  C   UNL d   1      25.201 -17.010  -1.049  0.00  0.00     0.039 A 
ATOM     15  C   UNL d   1      24.575 -16.154  -1.989  0.00  0.00     0.017 A 
ATOM     16  C   UNL d   1      25.315 -15.298  -2.825  0.00  0.00     0.001 A 
ATOM     17  C   UNL d   1      26.701 -15.281  -2.752  0.00  0.00     0.001 A 
ATOM     18  C   UNL d   1      27.342 -16.110  -1.842  0.00  0.00     0.007 A 
ATOM     19  C   UNL d   1      26.615 -16.971  -0.988  0.00  0.00    -0.046 A 
ATOM     20  C   UNL d   1      27.436 -17.795  -0.049  0.00  0.00     0.049 C 
ENDBRANCH   1  14
TORSDOF 3
ENDMDL
MODEL 2
REMARK VINA RESULT:    -7.699      2.664      7.507
REMARK INTER + INTRA:          -9.928
REMARK INTER:                  -8.594
REMARK INTRA:                  -1.334
REMARK CONF_INDEPENDENT:        0.895
REMARK UNBOUND:                -1.334
REMARK  3 active torsions:
REMARK  status: ('A' for Active; 'I' for Inactive)
REMARK    1  A    between atoms: C_7  and  C_8 
REMARK       I    between atoms: C_8  and  N_10 
REMARK    2  A    between atoms: N_10  and  N_11 
REMARK       I    between atoms: N_11  and  C_12 
REMARK    3  A    between atoms: C_12  and  C_14 
ROOT
ATOM      1  C   UNL d   1      20.706 -18.774  -0.472  0.00  0.00     0.270 C 
ATOM      2  O   UNL d   1      20.294 -17.931  -1.270  0.00  0.00    -0.266 OA
ATOM      3  N   UNL d   1      22.065 -18.914  -0.228  0.00  0.00    -0.263 N 
ATOM      4  H   UNL d   1      22.484 -19.586   0.394  0.00  0.00     0.190 HD
ENDROOT
BRANCH   3   5
ATOM      5  N   UNL d   1      23.046 -18.103  -0.820  0.00  0.00    -0.263 N 
ATOM      6  C   UNL d   1      24.265 -18.001  -0.157  0.00  0.00     0.270 C 
ATOM      7  O   UNL d   1      24.475 -18.574   0.918  0.00  0.00    -0.266 OA
ATOM      8  H   UNL d   1      22.871 -17.755  -1.758  0.00  0.00     0.190 HD
BRANCH   6   9
ATOM      9  C   UNL d   1      25.275 -17.184  -0.815  0.00  0.00     0.040 A 
ATOM     10  C   UNL d   1      26.590 -16.903  -0.315  0.00  0.00     0.024 A 
ATOM     11  C   UNL d   1      27.329 -16.112  -1.166  0.00  0.00     0.050 A 
ATOM     12  S   UNL d   1      26.456 -15.701  -2.576  0.00  0.00    -0.113 SA
ATOM     13  C   UNL d   1      25.099 -16.612  -2.064  0.00  0.00     0.066 A 
ENDBRANCH   6   9
ENDBRANCH   3   5
BRANCH   1  14
ATOM     14  C   UNL d   1      19.715 -19.683   0.264  0.00  0.00     0.039 A 
ATOM     15  C   UNL d   1      18.734 -20.341  -0.519  0.00  0.00     0.017 A 
ATOM     16  C   UNL d   1      17.778 -21.200   0.052  0.00  0.00     0.001 A 
ATOM     17  C   UNL d   1      17.768 -21.417   1.423  0.00  0.00     0.001 A 
ATOM     18  C   UNL d   1      18.715 -20.784   2.216  0.00  0.00     0.007 A 
ATOM     19  C   UNL d   1      19.689 -19.925   1.659  0.00  0.00    -0.046 A 
ATOM     20  C   UNL d   1      20.655 -19.325   2.630  0.00  0.00     0.049 C 
ENDBRANCH   1  14
TORSDOF 3
ENDMDL
MODEL 3
REMARK VINA RESULT:    -7.428      0.829      1.777
REMARK INTER + INTRA:          -9.696
REMARK INTER:                  -8.323
REMARK INTRA:                  -1.374
REMARK CONF_INDEPENDENT:        0.895
REMARK UNBOUND:                -1.374
REMARK  3 active torsions:
REMARK  status: ('A' for Active; 'I' for Inactive)
REMARK    1  A    between atoms: C_7  and  C_8 
REMARK       I    between atoms: C_8  and  N_10 
REMARK    2  A    between atoms: N_10  and  N_11 
REMARK       I    between atoms: N_11  and  C_12 
REMARK    3  A    between atoms: C_12  and  C_14 
ROOT
ATOM      1  C   UNL d   1      25.047 -17.888  -0.245  0.00  0.00     0.270 C 
ATOM      2  O   UNL d   1      25.461 -18.669   0.613  0.00  0.00    -0.266 OA
ATOM      3  N   UNL d   1      23.698 -17.842  -0.569  0.00  0.00    -0.263 N 
ATOM      4  H   UNL d   1      23.281 -17.247  -1.266  0.00  0.00     0.190 HD
ENDROOT
BRANCH   3   5
ATOM      5  N   UNL d   1      22.721 -18.627   0.065  0.00  0.00    -0.263 N 
ATOM      6  C   UNL d   1      21.410 -18.480  -0.376  0.00  0.00     0.270 C 
ATOM      7  O   UNL d   1      21.105 -17.680  -1.268  0.00  0.00    -0.266 OA
ATOM      8  H   UNL d   1      23.037 -19.353   0.702  0.00  0.00     0.190 HD
BRANCH   6   9
ATOM      9  C   UNL d   1      20.426 -19.335   0.274  0.00  0.00     0.040 A 
ATOM     10  C   UNL d   1      20.219 -19.456   1.688  0.00  0.00     0.024 A 
ATOM     11  C   UNL d   1      19.205 -20.332   2.008  0.00  0.00     0.050 A 
ATOM     12  S   UNL d   1      18.489 -21.015   0.615  0.00  0.00    -0.113 SA
ATOM     13  C   UNL d   1      19.513 -20.112  -0.419  0.00  0.00     0.066 A 
ENDBRANCH   6   9
ENDBRANCH   3   5
BRANCH   1  14
ATOM     14  C   UNL d   1      26.024 -16.954  -0.969  0.00  0.00     0.039 A 
ATOM     15  C   UNL d   1      27.407 -17.218  -0.816  0.00  0.00     0.017 A 
ATOM     16  C   UNL d   1      28.390 -16.426  -1.437  0.00  0.00     0.001 A 
ATOM     17  C   UNL d   1      28.018 -15.343  -2.220  0.00  0.00     0.001 A 
ATOM     18  C   UNL d   1      26.670 -15.058  -2.387  0.00  0.00     0.007 A 
ATOM     19  C   UNL d   1      25.668 -15.847  -1.778  0.00  0.00    -0.046 A 
ATOM     20  C   UNL d   1      24.259 -15.434  -2.057  0.00  0.00     0.049 C 
ENDBRANCH   1  14
TORSDOF 3
ENDMDL
MODEL 4
REMARK VINA RESULT:    -6.326     11.510     14.123
REMARK INTER + INTRA:          -8.691
REMARK INTER:                  -7.221
REMARK INTRA:                  -1.470
REMARK CONF_INDEPENDENT:        0.895
REMARK UNBOUND:                -1.470
REMARK  3 active torsions:
REMARK  status: ('A' for Active; 'I' for Inactive)
REMARK    1  A    between atoms: C_7  and  C_8 
REMARK       I    between atoms: C_8  and  N_10 
REMARK    2  A    between atoms: N_10  and  N_11 
REMARK       I    between atoms: N_11  and  C_12 
REMARK    3  A    between atoms: C_12  and  C_14 
ROOT
ATOM      1  C   UNL d   1      34.888 -22.192   7.251  0.00  0.00     0.270 C 
ATOM      2  O   UNL d   1      35.596 -22.608   6.332  0.00  0.00    -0.266 OA
ATOM      3  N   UNL d   1      33.574 -21.809   7.015  0.00  0.00    -0.263 N 
ATOM      4  H   UNL d   1      32.936 -21.445   7.703  0.00  0.00     0.190 HD
ENDROOT
BRANCH   3   5
ATOM      5  N   UNL d   1      32.953 -21.903   5.759  0.00  0.00    -0.263 N 
ATOM      6  C   UNL d   1      31.608 -21.554   5.693  0.00  0.00     0.270 C 
ATOM      7  O   UNL d   1      30.973 -21.201   6.693  0.00  0.00    -0.266 OA
ATOM      8  H   UNL d   1      33.543 -22.078   4.951  0.00  0.00     0.190 HD
BRANCH   6   9
ATOM      9  C   UNL d   1      31.003 -21.624   4.370  0.00  0.00     0.040 A 
ATOM     10  C   UNL d   1      31.681 -21.432   3.121  0.00  0.00     0.024 A 
ATOM     11  C   UNL d   1      30.850 -21.576   2.032  0.00  0.00     0.050 A 
ATOM     12  S   UNL d   1      29.248 -21.947   2.496  0.00  0.00    -0.113 SA
ATOM     13  C   UNL d   1      29.674 -21.950   4.155  0.00  0.00     0.066 A 
ENDBRANCH   6   9
ENDBRANCH   3   5
BRANCH   1  14
ATOM     14  C   UNL d   1      35.453 -22.091   8.672  0.00  0.00     0.039 A 
ATOM     15  C   UNL d   1      35.655 -23.304   9.377  0.00  0.00     0.017 A 
ATOM     16  C   UNL d   1      36.171 -23.328  10.685  0.00  0.00     0.001 A 
ATOM     17  C   UNL d   1      36.491 -22.141  11.330  0.00  0.00     0.001 A 
ATOM     18  C   UNL d   1      36.302 -20.937  10.664  0.00  0.00     0.007 A 
ATOM     19  C   UNL d   1      35.793 -20.893   9.347  0.00  0.00    -0.046 A 
ATOM     20  C   UNL d   1      35.657 -19.529   8.749  0.00  0.00     0.049 C 
ENDBRANCH   1  14
TORSDOF 3
ENDMDL
MODEL 5
REMARK VINA RESULT:    -6.073      5.252      8.596
REMARK INTER + INTRA:          -8.431
REMARK INTER:                  -6.968
REMARK INTRA:                  -1.463
REMARK CONF_INDEPENDENT:        0.895
REMARK UNBOUND:                -1.463
REMARK  3 active torsions:
REMARK  status: ('A' for Active; 'I' for Inactive)
REMARK    1  A    between atoms: C_7  and  C_8 
REMARK       I    between atoms: C_8  and  N_10 
REMARK    2  A    between atoms: N_10  and  N_11 
REMARK       I    between atoms: N_11  and  C_12 
REMARK    3  A    between atoms: C_12  and  C_14 
ROOT
ATOM      1  C   UNL d   1      25.660 -15.620  -1.728  0.00  0.00     0.270 C 
ATOM      2  O   UNL d   1      26.242 -14.777  -1.043  0.00  0.00    -0.266 OA
ATOM      3  N   UNL d   1      25.880 -15.697  -3.096  0.00  0.00    -0.263 N 
ATOM      4  H   UNL d   1      25.436 -16.342  -3.728  0.00  0.00     0.190 HD
ENDROOT
BRANCH   3   5
ATOM      5  N   UNL d   1      26.788 -14.873  -3.782  0.00  0.00    -0.263 N 
ATOM      6  C   UNL d   1      26.848 -15.016  -5.165  0.00  0.00     0.270 C 
ATOM      7  O   UNL d   1      26.157 -15.845  -5.768  0.00  0.00    -0.266 OA
ATOM      8  H   UNL d   1      27.240 -14.128  -3.261  0.00  0.00     0.190 HD
BRANCH   6   9
ATOM      9  C   UNL d   1      27.770 -14.122  -5.852  0.00  0.00     0.040 A 
ATOM     10  C   UNL d   1      28.869 -14.520  -6.684  0.00  0.00     0.024 A 
ATOM     11  C   UNL d   1      29.555 -13.450  -7.212  0.00  0.00     0.050 A 
ATOM     12  S   UNL d   1      28.888 -11.956  -6.720  0.00  0.00    -0.113 SA
ATOM     13  C   UNL d   1      27.655 -12.742  -5.827  0.00  0.00     0.066 A 
ENDBRANCH   6   9
ENDBRANCH   3   5
BRANCH   1  14
ATOM     14  C   UNL d   1      24.680 -16.599  -1.071  0.00  0.00     0.039 A 
ATOM     15  C   UNL d   1      23.297 -16.325  -1.213  0.00  0.00     0.017 A 
ATOM     16  C   UNL d   1      22.312 -17.158  -0.653  0.00  0.00     0.001 A 
ATOM     17  C   UNL d   1      22.680 -18.282   0.073  0.00  0.00     0.001 A 
ATOM     18  C   UNL d   1      24.028 -18.575   0.230  0.00  0.00     0.007 A 
ATOM     19  C   UNL d   1      25.032 -17.755  -0.332  0.00  0.00    -0.046 A 
ATOM     20  C   UNL d   1      26.440 -18.200  -0.095  0.00  0.00     0.049 C 
ENDBRANCH   1  14
TORSDOF 3
ENDMDL
MODEL 6
REMARK VINA RESULT:    -5.838      6.143      9.117
REMARK INTER + INTRA:          -8.184
REMARK INTER:                  -6.733
REMARK INTRA:                  -1.451
REMARK CONF_INDEPENDENT:        0.895
REMARK UNBOUND:                -1.451
REMARK  3 active torsions:
REMARK  status: ('A' for Active; 'I' for Inactive)
REMARK    1  A    between atoms: C_7  and  C_8 
REMARK       I    between atoms: C_8  and  N_10 
REMARK    2  A    between atoms: N_10  and  N_11 
REMARK       I    between atoms: N_11  and  C_12 
REMARK    3  A    between atoms: C_12  and  C_14 
ROOT
ATOM      1  C   UNL d   1      25.216 -14.528  -3.222  0.00  0.00     0.270 C 
ATOM      2  O   UNL d   1      24.780 -14.824  -4.336  0.00  0.00    -0.266 OA
ATOM      3  N   UNL d   1      25.482 -13.207  -2.892  0.00  0.00    -0.263 N 
ATOM      4  H   UNL d   1      25.853 -12.883  -2.014  0.00  0.00     0.190 HD
ENDROOT
BRANCH   3   5
ATOM      5  N   UNL d   1      25.244 -12.129  -3.761  0.00  0.00    -0.263 N 
ATOM      6  C   UNL d   1      25.841 -10.914  -3.437  0.00  0.00     0.270 C 
ATOM      7  O   UNL d   1      26.530 -10.774  -2.420  0.00  0.00    -0.266 OA
ATOM      8  H   UNL d   1      24.776 -12.323  -4.641  0.00  0.00     0.190 HD
BRANCH   6   9
ATOM      9  C   UNL d   1      25.607  -9.826  -4.376  0.00  0.00     0.040 A 
ATOM     10  C   UNL d   1      25.747  -9.899  -5.802  0.00  0.00     0.024 A 
ATOM     11  C   UNL d   1      25.441  -8.712  -6.431  0.00  0.00     0.050 A 
ATOM     12  S   UNL d   1      24.980  -7.500  -5.320  0.00  0.00    -0.113 SA
ATOM     13  C   UNL d   1      25.155  -8.573  -3.996  0.00  0.00     0.066 A 
ENDBRANCH   6   9
ENDBRANCH   3   5
BRANCH   1  14
ATOM     14  C   UNL d   1      25.471 -15.625  -2.181  0.00  0.00     0.039 A 
ATOM     15  C   UNL d   1      24.337 -16.278  -1.637  0.00  0.00     0.017 A 
ATOM     16  C   UNL d   1      24.455 -17.301  -0.678  0.00  0.00     0.001 A 
ATOM     17  C   UNL d   1      25.708 -17.691  -0.228  0.00  0.00     0.001 A 
ATOM     18  C   UNL d   1      26.837 -17.068  -0.741  0.00  0.00     0.007 A 
ATOM     19  C   UNL d   1      26.739 -16.045  -1.711  0.00  0.00    -0.046 A 
ATOM     20  C   UNL d   1      28.037 -15.474  -2.185  0.00  0.00     0.049 C 
ENDBRANCH   1  14
TORSDOF 3
ENDMDL
MODEL 7
REMARK VINA RESULT:    -5.740      4.071      5.985
REMARK INTER + INTRA:          -8.119
REMARK INTER:                  -6.635
REMARK INTRA:                  -1.484
REMARK CONF_INDEPENDENT:        0.895
REMARK UNBOUND:                -1.484
REMARK  3 active torsions:
REMARK  status: ('A' for Active; 'I' for Inactive)
REMARK    1  A    between atoms: C_7  and  C_8 
REMARK       I    between atoms: C_8  and  N_10 
REMARK    2  A    between atoms: N_10  and  N_11 
REMARK       I    between atoms: N_11  and  C_12 
REMARK    3  A    between atoms: C_12  and  C_14 
ROOT
ATOM      1  C   UNL d   1      26.478 -15.049  -5.023  0.00  0.00     0.270 C 
ATOM      2  O   UNL d   1      26.070 -15.941  -5.769  0.00  0.00    -0.266 OA
ATOM      3  N   UNL d   1      26.133 -15.035  -3.679  0.00  0.00    -0.263 N 
ATOM      4  H   UNL d   1      26.409 -14.337  -3.008  0.00  0.00     0.190 HD
ENDROOT
BRANCH   3   5
ATOM      5  N   UNL d   1      25.349 -16.029  -3.070  0.00  0.00    -0.263 N 
ATOM      6  C   UNL d   1      25.081 -15.878  -1.713  0.00  0.00     0.270 C 
ATOM      7  O   UNL d   1      25.529 -14.929  -1.059  0.00  0.00    -0.266 OA
ATOM      8  H   UNL d   1      24.906 -16.717  -3.671  0.00  0.00     0.190 HD
BRANCH   6   9
ATOM      9  C   UNL d   1      24.235 -16.904  -1.119  0.00  0.00     0.040 A 
ATOM     10  C   UNL d   1      24.664 -18.200  -0.681  0.00  0.00     0.024 A 
ATOM     11  C   UNL d   1      23.640 -18.950  -0.145  0.00  0.00     0.050 A 
ATOM     12  S   UNL d   1      22.155 -18.105  -0.158  0.00  0.00    -0.113 SA
ATOM     13  C   UNL d   1      22.889 -16.720  -0.850  0.00  0.00     0.066 A 
ENDBRANCH   6   9
ENDBRANCH   3   5
BRANCH   1  14
ATOM     14  C   UNL d   1      27.377 -13.937  -5.577  0.00  0.00     0.039 A 
ATOM     15  C   UNL d   1      28.513 -14.335  -6.325  0.00  0.00     0.017 A 
ATOM     16  C   UNL d   1      29.404 -13.399  -6.880  0.00  0.00     0.001 A 
ATOM     17  C   UNL d   1      29.191 -12.039  -6.695  0.00  0.00     0.001 A 
ATOM     18  C   UNL d   1      28.087 -11.620  -5.965  0.00  0.00     0.007 A 
ATOM     19  C   UNL d   1      27.177 -12.546  -5.406  0.00  0.00    -0.046 A 
ATOM     20  C   UNL d   1      26.026 -11.951  -4.659  0.00  0.00     0.049 C 
ENDBRANCH   1  14
TORSDOF 3
ENDMDL
MODEL 8
REMARK VINA RESULT:    -5.659      4.936      8.190
REMARK INTER + INTRA:          -7.971
REMARK INTER:                  -6.554
REMARK INTRA:                  -1.418
REMARK CONF_INDEPENDENT:        0.895
REMARK UNBOUND:                -1.418
REMARK  3 active torsions:
REMARK  status: ('A' for Active; 'I' for Inactive)
REMARK    1  A    between atoms: C_7  and  C_8 
REMARK       I    between atoms: C_8  and  N_10 
REMARK    2  A    between atoms: N_10  and  N_11 
REMARK       I    between atoms: N_11  and  C_12 
REMARK    3  A    between atoms: C_12  and  C_14 
ROOT
ATOM      1  C   UNL d   1      24.923 -15.732  -0.986  0.00  0.00     0.270 C 
ATOM      2  O   UNL d   1      25.706 -15.336  -0.121  0.00  0.00    -0.266 OA
ATOM      3  N   UNL d   1      24.804 -15.060  -2.195  0.00  0.00    -0.263 N 
ATOM      4  H   UNL d   1      24.180 -15.306  -2.945  0.00  0.00     0.190 HD
ENDROOT
BRANCH   3   5
ATOM      5  N   UNL d   1      25.573 -13.935  -2.535  0.00  0.00    -0.263 N 
ATOM      6  C   UNL d   1      25.481 -13.482  -3.848  0.00  0.00     0.270 C 
ATOM      7  O   UNL d   1      24.777 -14.051  -4.689  0.00  0.00    -0.266 OA
ATOM      8  H   UNL d   1      26.037 -13.433  -1.784  0.00  0.00     0.190 HD
BRANCH   6   9
ATOM      9  C   UNL d   1      26.260 -12.291  -4.159  0.00  0.00     0.040 A 
ATOM     10  C   UNL d   1      27.482 -12.256  -4.911  0.00  0.00     0.024 A 
ATOM     11  C   UNL d   1      27.984 -10.982  -5.058  0.00  0.00     0.050 A 
ATOM     12  S   UNL d   1      26.994  -9.814  -4.300  0.00  0.00    -0.113 SA
ATOM     13  C   UNL d   1      25.873 -11.010  -3.803  0.00  0.00     0.066 A 
ENDBRANCH   6   9
ENDBRANCH   3   5
BRANCH   1  14
ATOM     14  C   UNL d   1      24.066 -16.978  -0.735  0.00  0.00     0.039 A 
ATOM     15  C   UNL d   1      22.665 -16.845  -0.899  0.00  0.00     0.017 A 
ATOM     16  C   UNL d   1      21.785 -17.924  -0.696  0.00  0.00     0.001 A 
ATOM     17  C   UNL d   1      22.280 -19.163  -0.314  0.00  0.00     0.001 A 
ATOM     18  C   UNL d   1      23.648 -19.323  -0.143  0.00  0.00     0.007 A 
ATOM     19  C   UNL d   1      24.548 -18.253  -0.350  0.00  0.00    -0.046 A 
ATOM     20  C   UNL d   1      25.994 -18.573  -0.145  0.00  0.00     0.049 C 
ENDBRANCH   1  14
TORSDOF 3
ENDMDL
