MODEL 1
REMARK VINA RESULT:    -9.757      0.000      0.000
REMARK INTER + INTRA:         -14.933
REMARK INTER:                 -12.441
REMARK INTRA:                  -2.492
REMARK CONF_INDEPENDENT:        2.685
REMARK UNBOUND:                -2.492
REMARK  9 active torsions:
REMARK  status: ('A' for Active; 'I' for Inactive)
REMARK    1  A    between atoms: O_2  and  C_3 
REMARK    2  A    between atoms: C_6  and  C_7 
REMARK    3  A    between atoms: C_10  and  C_11 
REMARK    4  A    between atoms: C_11  and  O_12 
REMARK    5  A    between atoms: C_15  and  N_16 
REMARK    6  A    between atoms: N_16  and  C_17 
REMARK    7  A    between atoms: C_17  and  N_19 
REMARK       I    between atoms: N_19  and  C_20 
REMARK    8  A    between atoms: C_20  and  C_22 
REMARK    9  A    between atoms: C_28  and  O_29 
ROOT
ATOM      1  N   UNL d   1      24.889 -15.123  -1.953  0.00  0.00    -0.331 N 
ATOM      2  H   UNL d   1      24.249 -14.950  -2.718  0.00  0.00     0.168 HD
ENDROOT
BRANCH   1   3
ATOM      3  C   UNL d   1      24.647 -16.360  -1.225  0.00  0.00     0.069 C 
ATOM      4  C   UNL d   1      23.322 -16.883  -1.097  0.00  0.00     0.046 C 
ATOM      5  C   UNL d   1      23.055 -18.163  -0.517  0.00  0.00     0.000 C 
ATOM      6  C   UNL d   1      24.142 -18.950  -0.138  0.00  0.00     0.017 C 
ATOM      7  C   UNL d   1      25.425 -18.401  -0.151  0.00  0.00     0.040 C 
ATOM      8  C   UNL d   1      25.670 -17.095  -0.608  0.00  0.00     0.095 C 
BRANCH   5   9
ATOM      9  C   UNL d   1      21.689 -18.694  -0.376  0.00  0.00     0.086 A 
ATOM     10  C   UNL d   1      20.653 -18.863  -1.270  0.00  0.00     0.040 A 
ATOM     11  C   UNL d   1      19.546 -19.349  -0.542  0.00  0.00     0.038 A 
ATOM     12  C   UNL d   1      19.951 -19.491   0.769  0.00  0.00     0.077 A 
ATOM     13  O   UNL d   1      21.275 -19.113   0.876  0.00  0.00    -0.312 OA
BRANCH  12  14
ATOM     14  C   UNL d   1      19.211 -19.929   1.990  0.00  0.00     0.229 C 
BRANCH  14  15
ATOM     15  O   UNL d   1      20.165 -20.434   2.934  0.00  0.00    -0.394 OA
ATOM     16  H   UNL d   1      21.037 -20.099   2.665  0.00  0.00     0.209 HD
ENDBRANCH  14  15
ENDBRANCH  12  14
ENDBRANCH   5   9
BRANCH   8  17
ATOM     17  O   UNL d   1      26.969 -16.710  -0.427  0.00  0.00    -0.354 OA
ATOM     18  C   UNL d   1      27.591 -17.006   0.820  0.00  0.00     0.210 C 
ENDBRANCH   8  17
ENDBRANCH   1   3
BRANCH   1  19
ATOM     19  C   UNL d   1      26.014 -14.253  -1.804  0.00  0.00     0.179 C 
ATOM     20  S   UNL d   1      26.561 -13.556  -0.377  0.00  0.00    -0.040 SA
BRANCH  19  21
ATOM     21  N   UNL d   1      26.709 -14.027  -3.009  0.00  0.00    -0.299 N 
ATOM     22  C   UNL d   1      26.181 -13.980  -4.311  0.00  0.00     0.260 C 
ATOM     23  O   UNL d   1      25.079 -14.449  -4.641  0.00  0.00    -0.267 OA
ATOM     24  H   UNL d   1      27.626 -13.620  -2.897  0.00  0.00     0.171 HD
BRANCH  22  25
ATOM     25  C   UNL d   1      27.032 -13.477  -5.427  0.00  0.00     0.067 A 
ATOM     26  C   UNL d   1      26.707 -12.173  -5.879  0.00  0.00     0.039 A 
ATOM     27  C   UNL d   1      27.310 -11.631  -7.016  0.00  0.00     0.012 A 
ATOM     28 BR   UNL d   1      26.712  -9.981  -7.725  0.00  0.00    -0.051 Br
ATOM     29  C   UNL d   1      28.303 -12.335  -7.681  0.00  0.00     0.022 A 
ATOM     30  C   UNL d   1      28.612 -13.630  -7.261  0.00  0.00     0.039 A 
ATOM     31  C   UNL d   1      27.962 -14.238  -6.163  0.00  0.00     0.084 A 
BRANCH  31  32
ATOM     32  O   UNL d   1      28.330 -15.552  -6.042  0.00  0.00    -0.355 OA
ATOM     33  C   UNL d   1      29.267 -15.933  -5.055  0.00  0.00     0.210 C 
ENDBRANCH  31  32
ENDBRANCH  22  25
ENDBRANCH  19  21
ENDBRANCH   1  19
TORSDOF 9
ENDMDL
MODEL 2
REMARK VINA RESULT:    -9.472      1.608      2.134
REMARK INTER + INTRA:         -14.583
REMARK INTER:                 -12.156
REMARK INTRA:                  -2.427
REMARK CONF_INDEPENDENT:        2.685
REMARK UNBOUND:                -2.427
REMARK  9 active torsions:
REMARK  status: ('A' for Active; 'I' for Inactive)
REMARK    1  A    between atoms: O_2  and  C_3 
REMARK    2  A    between atoms: C_6  and  C_7 
REMARK    3  A    between atoms: C_10  and  C_11 
REMARK    4  A    between atoms: C_11  and  O_12 
REMARK    5  A    between atoms: C_15  and  N_16 
REMARK    6  A    between atoms: N_16  and  C_17 
REMARK    7  A    between atoms: C_17  and  N_19 
REMARK       I    between atoms: N_19  and  C_20 
REMARK    8  A    between atoms: C_20  and  C_22 
REMARK    9  A    between atoms: C_28  and  O_29 
ROOT
ATOM      1  N   UNL d   1      24.978 -15.208  -2.073  0.00  0.00    -0.331 N 
ATOM      2  H   UNL d   1      24.346 -15.062  -2.850  0.00  0.00     0.168 HD
ENDROOT
BRANCH   1   3
ATOM      3  C   UNL d   1      24.719 -16.412  -1.296  0.00  0.00     0.069 C 
ATOM      4  C   UNL d   1      23.388 -16.917  -1.157  0.00  0.00     0.046 C 
ATOM      5  C   UNL d   1      23.106 -18.170  -0.527  0.00  0.00     0.000 C 
ATOM      6  C   UNL d   1      24.183 -18.950  -0.108  0.00  0.00     0.017 C 
ATOM      7  C   UNL d   1      25.471 -18.413  -0.133  0.00  0.00     0.040 C 
ATOM      8  C   UNL d   1      25.731 -17.130  -0.642  0.00  0.00     0.095 C 
BRANCH   5   9
ATOM      9  C   UNL d   1      21.734 -18.683  -0.375  0.00  0.00     0.086 A 
ATOM     10  C   UNL d   1      20.705 -18.886  -1.270  0.00  0.00     0.040 A 
ATOM     11  C   UNL d   1      19.587 -19.328  -0.531  0.00  0.00     0.038 A 
ATOM     12  C   UNL d   1      19.979 -19.410   0.789  0.00  0.00     0.077 A 
ATOM     13  O   UNL d   1      21.305 -19.039   0.892  0.00  0.00    -0.312 OA
BRANCH  12  14
ATOM     14  C   UNL d   1      19.223 -19.784   2.022  0.00  0.00     0.229 C 
BRANCH  14  15
ATOM     15  O   UNL d   1      20.137 -20.404   2.936  0.00  0.00    -0.394 OA
ATOM     16  H   UNL d   1      21.031 -20.116   2.685  0.00  0.00     0.209 HD
ENDBRANCH  14  15
ENDBRANCH  12  14
ENDBRANCH   5   9
BRANCH   8  17
ATOM     17  O   UNL d   1      27.032 -16.748  -0.467  0.00  0.00    -0.354 OA
ATOM     18  C   UNL d   1      27.441 -16.329   0.832  0.00  0.00     0.210 C 
ENDBRANCH   8  17
ENDBRANCH   1   3
BRANCH   1  19
ATOM     19  C   UNL d   1      26.107 -14.340  -1.949  0.00  0.00     0.179 C 
ATOM     20  S   UNL d   1      26.557 -13.467  -0.587  0.00  0.00    -0.040 SA
BRANCH  19  21
ATOM     21  N   UNL d   1      26.900 -14.286  -3.113  0.00  0.00    -0.299 N 
ATOM     22  C   UNL d   1      26.498 -14.517  -4.440  0.00  0.00     0.260 C 
ATOM     23  O   UNL d   1      25.461 -15.120  -4.767  0.00  0.00    -0.267 OA
ATOM     24  H   UNL d   1      27.777 -13.798  -3.004  0.00  0.00     0.171 HD
BRANCH  22  25
ATOM     25  C   UNL d   1      27.421 -14.164  -5.556  0.00  0.00     0.067 A 
ATOM     26  C   UNL d   1      28.435 -15.120  -5.812  0.00  0.00     0.039 A 
ATOM     27  C   UNL d   1      29.464 -14.859  -6.719  0.00  0.00     0.012 A 
ATOM     28 BR   UNL d   1      30.921 -16.054  -6.888  0.00  0.00    -0.051 Br
ATOM     29  C   UNL d   1      29.466 -13.679  -7.448  0.00  0.00     0.022 A 
ATOM     30  C   UNL d   1      28.487 -12.719  -7.186  0.00  0.00     0.039 A 
ATOM     31  C   UNL d   1      27.479 -12.920  -6.216  0.00  0.00     0.084 A 
BRANCH  31  32
ATOM     32  O   UNL d   1      26.734 -11.784  -6.040  0.00  0.00    -0.355 OA
ATOM     33  C   UNL d   1      26.374 -11.372  -4.737  0.00  0.00     0.210 C 
ENDBRANCH  31  32
ENDBRANCH  22  25
ENDBRANCH  19  21
ENDBRANCH   1  19
TORSDOF 9
ENDMDL
MODEL 3
REMARK VINA RESULT:    -9.436      2.579      3.366
REMARK INTER + INTRA:         -15.422
REMARK INTER:                 -12.121
REMARK INTRA:                  -3.301
REMARK CONF_INDEPENDENT:        2.685
REMARK UNBOUND:                -3.301
REMARK  9 active torsions:
REMARK  status: ('A' for Active; 'I' for Inactive)
REMARK    1  A    between atoms: O_2  and  C_3 
REMARK    2  A    between atoms: C_6  and  C_7 
REMARK    3  A    between atoms: C_10  and  C_11 
REMARK    4  A    between atoms: C_11  and  O_12 
REMARK    5  A    between atoms: C_15  and  N_16 
REMARK    6  A    between atoms: N_16  and  C_17 
REMARK    7  A    between atoms: C_17  and  N_19 
REMARK       I    between atoms: N_19  and  C_20 
REMARK    8  A    between atoms: C_20  and  C_22 
REMARK    9  A    between atoms: C_28  and  O_29 
ROOT
ATOM      1  N   UNL d   1      25.165 -14.967  -1.911  0.00  0.00    -0.331 N 
ATOM      2  H   UNL d   1      24.782 -14.147  -1.457  0.00  0.00     0.168 HD
ENDROOT
BRANCH   1   3
ATOM      3  C   UNL d   1      24.944 -16.217  -1.199  0.00  0.00     0.069 C 
ATOM      4  C   UNL d   1      23.626 -16.759  -1.070  0.00  0.00     0.046 C 
ATOM      5  C   UNL d   1      23.380 -18.050  -0.505  0.00  0.00     0.000 C 
ATOM      6  C   UNL d   1      24.479 -18.827  -0.143  0.00  0.00     0.017 C 
ATOM      7  C   UNL d   1      25.755 -18.261  -0.156  0.00  0.00     0.040 C 
ATOM      8  C   UNL d   1      25.980 -16.947  -0.597  0.00  0.00     0.095 C 
BRANCH   5   9
ATOM      9  C   UNL d   1      22.022 -18.601  -0.363  0.00  0.00     0.086 A 
ATOM     10  C   UNL d   1      21.015 -18.856  -1.271  0.00  0.00     0.040 A 
ATOM     11  C   UNL d   1      19.898 -19.315  -0.540  0.00  0.00     0.038 A 
ATOM     12  C   UNL d   1      20.269 -19.353   0.788  0.00  0.00     0.077 A 
ATOM     13  O   UNL d   1      21.581 -18.939   0.904  0.00  0.00    -0.312 OA
BRANCH  12  14
ATOM     14  C   UNL d   1      19.503 -19.720   2.017  0.00  0.00     0.229 C 
BRANCH  14  15
ATOM     15  O   UNL d   1      20.442 -20.110   3.028  0.00  0.00    -0.394 OA
ATOM     16  H   UNL d   1      21.326 -20.076   2.626  0.00  0.00     0.209 HD
ENDBRANCH  14  15
ENDBRANCH  12  14
ENDBRANCH   5   9
BRANCH   8  17
ATOM     17  O   UNL d   1      27.275 -16.546  -0.418  0.00  0.00    -0.354 OA
ATOM     18  C   UNL d   1      27.510 -15.232   0.079  0.00  0.00     0.210 C 
ENDBRANCH   8  17
ENDBRANCH   1   3
BRANCH   1  19
ATOM     19  C   UNL d   1      25.699 -14.821  -3.229  0.00  0.00     0.179 C 
ATOM     20  S   UNL d   1      25.063 -13.887  -4.472  0.00  0.00    -0.040 SA
BRANCH  19  21
ATOM     21  N   UNL d   1      26.901 -15.530  -3.427  0.00  0.00    -0.299 N 
ATOM     22  C   UNL d   1      27.710 -15.550  -4.577  0.00  0.00     0.260 C 
ATOM     23  O   UNL d   1      27.332 -15.206  -5.710  0.00  0.00    -0.267 OA
ATOM     24  H   UNL d   1      27.343 -15.856  -2.580  0.00  0.00     0.171 HD
BRANCH  22  25
ATOM     25  C   UNL d   1      29.070 -16.156  -4.505  0.00  0.00     0.067 A 
ATOM     26  C   UNL d   1      29.664 -16.431  -5.762  0.00  0.00     0.039 A 
ATOM     27  C   UNL d   1      30.864 -17.139  -5.856  0.00  0.00     0.012 A 
ATOM     28 BR   UNL d   1      31.530 -17.680  -7.543  0.00  0.00    -0.051 Br
ATOM     29  C   UNL d   1      31.540 -17.519  -4.706  0.00  0.00     0.022 A 
ATOM     30  C   UNL d   1      30.951 -17.277  -3.463  0.00  0.00     0.039 A 
ATOM     31  C   UNL d   1      29.698 -16.635  -3.338  0.00  0.00     0.084 A 
BRANCH  31  32
ATOM     32  O   UNL d   1      29.269 -16.646  -2.037  0.00  0.00    -0.355 OA
ATOM     33  C   UNL d   1      29.884 -17.507  -1.100  0.00  0.00     0.210 C 
ENDBRANCH  31  32
ENDBRANCH  22  25
ENDBRANCH  19  21
ENDBRANCH   1  19
TORSDOF 9
ENDMDL
MODEL 4
REMARK VINA RESULT:    -9.041      2.794      3.535
REMARK INTER + INTRA:         -14.577
REMARK INTER:                 -11.726
REMARK INTRA:                  -2.851
REMARK CONF_INDEPENDENT:        2.685
REMARK UNBOUND:                -2.851
REMARK  9 active torsions:
REMARK  status: ('A' for Active; 'I' for Inactive)
REMARK    1  A    between atoms: O_2  and  C_3 
REMARK    2  A    between atoms: C_6  and  C_7 
REMARK    3  A    between atoms: C_10  and  C_11 
REMARK    4  A    between atoms: C_11  and  O_12 
REMARK    5  A    between atoms: C_15  and  N_16 
REMARK    6  A    between atoms: N_16  and  C_17 
REMARK    7  A    between atoms: C_17  and  N_19 
REMARK       I    between atoms: N_19  and  C_20 
REMARK    8  A    between atoms: C_20  and  C_22 
REMARK    9  A    between atoms: C_28  and  O_29 
ROOT
ATOM      1  N   UNL d   1      24.606 -14.882  -2.227  0.00  0.00    -0.331 N 
ATOM      2  H   UNL d   1      23.913 -14.172  -2.029  0.00  0.00     0.168 HD
ENDROOT
BRANCH   1   3
ATOM      3  C   UNL d   1      24.501 -16.081  -1.408  0.00  0.00     0.069 C 
ATOM      4  C   UNL d   1      23.242 -16.739  -1.236  0.00  0.00     0.046 C 
ATOM      5  C   UNL d   1      23.119 -17.994  -0.561  0.00  0.00     0.000 C 
ATOM      6  C   UNL d   1      24.285 -18.622  -0.128  0.00  0.00     0.017 C 
ATOM      7  C   UNL d   1      25.498 -17.935  -0.186  0.00  0.00     0.040 C 
ATOM      8  C   UNL d   1      25.597 -16.648  -0.741  0.00  0.00     0.095 C 
BRANCH   5   9
ATOM      9  C   UNL d   1      21.820 -18.663  -0.376  0.00  0.00     0.086 A 
ATOM     10  C   UNL d   1      20.851 -19.087  -1.260  0.00  0.00     0.040 A 
ATOM     11  C   UNL d   1      19.779 -19.595  -0.496  0.00  0.00     0.038 A 
ATOM     12  C   UNL d   1      20.142 -19.493   0.831  0.00  0.00     0.077 A 
ATOM     13  O   UNL d   1      21.406 -18.943   0.914  0.00  0.00    -0.312 OA
BRANCH  12  14
ATOM     14  C   UNL d   1      19.407 -19.837   2.086  0.00  0.00     0.229 C 
BRANCH  14  15
ATOM     15  O   UNL d   1      20.354 -20.348   3.033  0.00  0.00    -0.394 OA
ATOM     16  H   UNL d   1      21.225 -19.995   2.784  0.00  0.00     0.209 HD
ENDBRANCH  14  15
ENDBRANCH  12  14
ENDBRANCH   5   9
BRANCH   8  17
ATOM     17  O   UNL d   1      26.843 -16.106  -0.594  0.00  0.00    -0.354 OA
ATOM     18  C   UNL d   1      26.951 -14.822   0.015  0.00  0.00     0.210 C 
ENDBRANCH   8  17
ENDBRANCH   1   3
BRANCH   1  19
ATOM     19  C   UNL d   1      25.455 -14.698  -3.363  0.00  0.00     0.179 C 
ATOM     20  S   UNL d   1      25.201 -13.643  -4.644  0.00  0.00    -0.040 SA
BRANCH  19  21
ATOM     21  N   UNL d   1      26.622 -15.486  -3.321  0.00  0.00    -0.299 N 
ATOM     22  C   UNL d   1      27.636 -15.575  -4.292  0.00  0.00     0.260 C 
ATOM     23  O   UNL d   1      27.509 -15.224  -5.477  0.00  0.00    -0.267 OA
ATOM     24  H   UNL d   1      26.869 -15.828  -2.404  0.00  0.00     0.171 HD
BRANCH  22  25
ATOM     25  C   UNL d   1      28.913 -16.266  -3.955  0.00  0.00     0.067 A 
ATOM     26  C   UNL d   1      29.203 -16.332  -2.569  0.00  0.00     0.039 A 
ATOM     27  C   UNL d   1      30.433 -16.808  -2.109  0.00  0.00     0.012 A 
ATOM     28 BR   UNL d   1      30.884 -16.690  -0.276  0.00  0.00    -0.051 Br
ATOM     29  C   UNL d   1      31.367 -17.304  -3.007  0.00  0.00     0.022 A 
ATOM     30  C   UNL d   1      31.103 -17.220  -4.376  0.00  0.00     0.039 A 
ATOM     31  C   UNL d   1      29.901 -16.668  -4.875  0.00  0.00     0.084 A 
BRANCH  31  32
ATOM     32  O   UNL d   1      29.940 -16.563  -6.240  0.00  0.00    -0.355 OA
ATOM     33  C   UNL d   1      30.604 -15.471  -6.844  0.00  0.00     0.210 C 
ENDBRANCH  31  32
ENDBRANCH  22  25
ENDBRANCH  19  21
ENDBRANCH   1  19
TORSDOF 9
ENDMDL
MODEL 5
REMARK VINA RESULT:    -8.835      3.620      6.052
REMARK INTER + INTRA:         -14.170
REMARK INTER:                 -11.520
REMARK INTRA:                  -2.650
REMARK CONF_INDEPENDENT:        2.685
REMARK UNBOUND:                -2.650
REMARK  9 active torsions:
REMARK  status: ('A' for Active; 'I' for Inactive)
REMARK    1  A    between atoms: O_2  and  C_3 
REMARK    2  A    between atoms: C_6  and  C_7 
REMARK    3  A    between atoms: C_10  and  C_11 
REMARK    4  A    between atoms: C_11  and  O_12 
REMARK    5  A    between atoms: C_15  and  N_16 
REMARK    6  A    between atoms: N_16  and  C_17 
REMARK    7  A    between atoms: C_17  and  N_19 
REMARK       I    between atoms: N_19  and  C_20 
REMARK    8  A    between atoms: C_20  and  C_22 
REMARK    9  A    between atoms: C_28  and  O_29 
ROOT
ATOM      1  N   UNL d   1      26.356 -17.671   0.674  0.00  0.00    -0.331 N 
ATOM      2  H   UNL d   1      26.310 -18.365   1.409  0.00  0.00     0.168 HD
ENDROOT
BRANCH   1   3
ATOM      3  C   UNL d   1      25.087 -17.396   0.016  0.00  0.00     0.069 C 
ATOM      4  C   UNL d   1      23.951 -18.236   0.242  0.00  0.00     0.046 C 
ATOM      5  C   UNL d   1      22.652 -17.924  -0.268  0.00  0.00     0.000 C 
ATOM      6  C   UNL d   1      22.487 -16.716  -0.944  0.00  0.00     0.017 C 
ATOM      7  C   UNL d   1      23.608 -15.951  -1.269  0.00  0.00     0.040 C 
ATOM      8  C   UNL d   1      24.903 -16.324  -0.870  0.00  0.00     0.095 C 
BRANCH   5   9
ATOM      9  C   UNL d   1      21.487 -18.796  -0.043  0.00  0.00     0.086 A 
ATOM     10  C   UNL d   1      20.637 -19.464  -0.900  0.00  0.00     0.040 A 
ATOM     11  C   UNL d   1      19.648 -20.086  -0.108  0.00  0.00     0.038 A 
ATOM     12  C   UNL d   1      19.944 -19.803   1.209  0.00  0.00     0.077 A 
ATOM     13  O   UNL d   1      21.088 -19.031   1.261  0.00  0.00    -0.312 OA
BRANCH  12  14
ATOM     14  C   UNL d   1      19.241 -20.161   2.478  0.00  0.00     0.229 C 
BRANCH  14  15
ATOM     15  O   UNL d   1      20.233 -20.450   3.472  0.00  0.00    -0.394 OA
ATOM     16  H   UNL d   1      21.075 -20.085   3.150  0.00  0.00     0.209 HD
ENDBRANCH  14  15
ENDBRANCH  12  14
ENDBRANCH   5   9
BRANCH   8  17
ATOM     17  O   UNL d   1      25.869 -15.509  -1.390  0.00  0.00    -0.354 OA
ATOM     18  C   UNL d   1      26.213 -15.664  -2.764  0.00  0.00     0.210 C 
ENDBRANCH   8  17
ENDBRANCH   1   3
BRANCH   1  19
ATOM     19  C   UNL d   1      27.577 -16.948   0.505  0.00  0.00     0.179 C 
ATOM     20  S   UNL d   1      28.760 -17.233  -0.654  0.00  0.00    -0.040 SA
BRANCH  19  21
ATOM     21  N   UNL d   1      27.725 -15.879   1.412  0.00  0.00    -0.299 N 
ATOM     22  C   UNL d   1      27.418 -14.523   1.202  0.00  0.00     0.260 C 
ATOM     23  O   UNL d   1      27.273 -13.999   0.085  0.00  0.00    -0.267 OA
ATOM     24  H   UNL d   1      27.830 -16.156   2.377  0.00  0.00     0.171 HD
BRANCH  22  25
ATOM     25  C   UNL d   1      27.403 -13.589   2.363  0.00  0.00     0.067 A 
ATOM     26  C   UNL d   1      27.180 -12.230   2.027  0.00  0.00     0.039 A 
ATOM     27  C   UNL d   1      27.294 -11.220   2.985  0.00  0.00     0.012 A 
ATOM     28 BR   UNL d   1      27.202  -9.399   2.476  0.00  0.00    -0.051 Br
ATOM     29  C   UNL d   1      27.552 -11.542   4.309  0.00  0.00     0.022 A 
ATOM     30  C   UNL d   1      27.800 -12.874   4.647  0.00  0.00     0.039 A 
ATOM     31  C   UNL d   1      27.772 -13.909   3.685  0.00  0.00     0.084 A 
BRANCH  31  32
ATOM     32  O   UNL d   1      28.189 -15.095   4.229  0.00  0.00    -0.355 OA
ATOM     33  C   UNL d   1      29.493 -15.204   4.764  0.00  0.00     0.210 C 
ENDBRANCH  31  32
ENDBRANCH  22  25
ENDBRANCH  19  21
ENDBRANCH   1  19
TORSDOF 9
ENDMDL
MODEL 6
REMARK VINA RESULT:    -8.495      3.314      4.619
REMARK INTER + INTRA:         -13.786
REMARK INTER:                 -11.180
REMARK INTRA:                  -2.606
REMARK CONF_INDEPENDENT:        2.685
REMARK UNBOUND:                -2.606
REMARK  9 active torsions:
REMARK  status: ('A' for Active; 'I' for Inactive)
REMARK    1  A    between atoms: O_2  and  C_3 
REMARK    2  A    between atoms: C_6  and  C_7 
REMARK    3  A    between atoms: C_10  and  C_11 
REMARK    4  A    between atoms: C_11  and  O_12 
REMARK    5  A    between atoms: C_15  and  N_16 
REMARK    6  A    between atoms: N_16  and  C_17 
REMARK    7  A    between atoms: C_17  and  N_19 
REMARK       I    between atoms: N_19  and  C_20 
REMARK    8  A    between atoms: C_20  and  C_22 
REMARK    9  A    between atoms: C_28  and  O_29 
ROOT
ATOM      1  N   UNL d   1      26.307 -18.082   0.099  0.00  0.00    -0.331 N 
ATOM      2  H   UNL d   1      26.361 -19.017   0.484  0.00  0.00     0.168 HD
ENDROOT
BRANCH   1   3
ATOM      3  C   UNL d   1      24.983 -17.687  -0.357  0.00  0.00     0.069 C 
ATOM      4  C   UNL d   1      23.844 -18.511  -0.092  0.00  0.00     0.046 C 
ATOM      5  C   UNL d   1      22.509 -18.095  -0.394  0.00  0.00     0.000 C 
ATOM      6  C   UNL d   1      22.322 -16.808  -0.895  0.00  0.00     0.017 C 
ATOM      7  C   UNL d   1      23.431 -16.046  -1.265  0.00  0.00     0.040 C 
ATOM      8  C   UNL d   1      24.745 -16.508  -1.079  0.00  0.00     0.095 C 
BRANCH   5   9
ATOM      9  C   UNL d   1      21.340 -18.950  -0.130  0.00  0.00     0.086 A 
ATOM     10  C   UNL d   1      20.411 -19.548  -0.956  0.00  0.00     0.040 A 
ATOM     11  C   UNL d   1      19.465 -20.190  -0.127  0.00  0.00     0.038 A 
ATOM     12  C   UNL d   1      19.864 -19.988   1.178  0.00  0.00     0.077 A 
ATOM     13  O   UNL d   1      21.030 -19.247   1.185  0.00  0.00    -0.312 OA
BRANCH  12  14
ATOM     14  C   UNL d   1      19.246 -20.398   2.474  0.00  0.00     0.229 C 
BRANCH  14  15
ATOM     15  O   UNL d   1      20.280 -20.451   3.465  0.00  0.00    -0.394 OA
ATOM     16  H   UNL d   1      21.095 -20.125   3.046  0.00  0.00     0.209 HD
ENDBRANCH  14  15
ENDBRANCH  12  14
ENDBRANCH   5   9
BRANCH   8  17
ATOM     17  O   UNL d   1      25.678 -15.666  -1.615  0.00  0.00    -0.354 OA
ATOM     18  C   UNL d   1      25.231 -14.631  -2.487  0.00  0.00     0.210 C 
ENDBRANCH   8  17
ENDBRANCH   1   3
BRANCH   1  19
ATOM     19  C   UNL d   1      27.456 -17.239   0.213  0.00  0.00     0.179 C 
ATOM     20  S   UNL d   1      27.639 -15.926   1.245  0.00  0.00    -0.040 SA
BRANCH  19  21
ATOM     21  N   UNL d   1      28.519 -17.626  -0.628  0.00  0.00    -0.299 N 
ATOM     22  C   UNL d   1      28.875 -17.077  -1.872  0.00  0.00     0.260 C 
ATOM     23  O   UNL d   1      28.123 -16.384  -2.577  0.00  0.00    -0.267 OA
ATOM     24  H   UNL d   1      29.231 -18.183  -0.180  0.00  0.00     0.171 HD
BRANCH  22  25
ATOM     25  C   UNL d   1      30.179 -17.450  -2.490  0.00  0.00     0.067 A 
ATOM     26  C   UNL d   1      30.229 -17.311  -3.899  0.00  0.00     0.039 A 
ATOM     27  C   UNL d   1      31.326 -17.768  -4.633  0.00  0.00     0.012 A 
ATOM     28 BR   UNL d   1      31.282 -17.768  -6.525  0.00  0.00    -0.051 Br
ATOM     29  C   UNL d   1      32.428 -18.299  -3.980  0.00  0.00     0.022 A 
ATOM     30  C   UNL d   1      32.380 -18.465  -2.595  0.00  0.00     0.039 A 
ATOM     31  C   UNL d   1      31.251 -18.087  -1.833  0.00  0.00     0.084 A 
BRANCH  31  32
ATOM     32  O   UNL d   1      31.385 -18.483  -0.528  0.00  0.00    -0.355 OA
ATOM     33  C   UNL d   1      31.505 -19.856  -0.218  0.00  0.00     0.210 C 
ENDBRANCH  31  32
ENDBRANCH  22  25
ENDBRANCH  19  21
ENDBRANCH   1  19
TORSDOF 9
ENDMDL
MODEL 7
REMARK VINA RESULT:    -8.418      3.564      4.576
REMARK INTER + INTRA:         -13.907
REMARK INTER:                 -11.103
REMARK INTRA:                  -2.804
REMARK CONF_INDEPENDENT:        2.685
REMARK UNBOUND:                -2.804
REMARK  9 active torsions:
REMARK  status: ('A' for Active; 'I' for Inactive)
REMARK    1  A    between atoms: O_2  and  C_3 
REMARK    2  A    between atoms: C_6  and  C_7 
REMARK    3  A    between atoms: C_10  and  C_11 
REMARK    4  A    between atoms: C_11  and  O_12 
REMARK    5  A    between atoms: C_15  and  N_16 
REMARK    6  A    between atoms: N_16  and  C_17 
REMARK    7  A    between atoms: C_17  and  N_19 
REMARK       I    between atoms: N_19  and  C_20 
REMARK    8  A    between atoms: C_20  and  C_22 
REMARK    9  A    between atoms: C_28  and  O_29 
ROOT
ATOM      1  N   UNL d   1      24.388 -15.212  -2.177  0.00  0.00    -0.331 N 
ATOM      2  H   UNL d   1      23.521 -14.727  -2.374  0.00  0.00     0.168 HD
ENDROOT
BRANCH   1   3
ATOM      3  C   UNL d   1      24.243 -16.410  -1.363  0.00  0.00     0.069 C 
ATOM      4  C   UNL d   1      22.963 -17.025  -1.192  0.00  0.00     0.046 C 
ATOM      5  C   UNL d   1      22.797 -18.278  -0.523  0.00  0.00     0.000 C 
ATOM      6  C   UNL d   1      23.942 -18.949  -0.095  0.00  0.00     0.017 C 
ATOM      7  C   UNL d   1      25.178 -18.304  -0.153  0.00  0.00     0.040 C 
ATOM      8  C   UNL d   1      25.320 -17.019  -0.702  0.00  0.00     0.095 C 
BRANCH   5   9
ATOM      9  C   UNL d   1      21.477 -18.903  -0.338  0.00  0.00     0.086 A 
ATOM     10  C   UNL d   1      20.420 -19.131  -1.194  0.00  0.00     0.040 A 
ATOM     11  C   UNL d   1      19.378 -19.701  -0.432  0.00  0.00     0.038 A 
ATOM     12  C   UNL d   1      19.843 -19.832   0.860  0.00  0.00     0.077 A 
ATOM     13  O   UNL d   1      21.142 -19.366   0.923  0.00  0.00    -0.312 OA
BRANCH  12  14
ATOM     14  C   UNL d   1      19.183 -20.336   2.102  0.00  0.00     0.229 C 
BRANCH  14  15
ATOM     15  O   UNL d   1      20.157 -20.344   3.154  0.00  0.00    -0.394 OA
ATOM     16  H   UNL d   1      21.029 -20.442   2.735  0.00  0.00     0.209 HD
ENDBRANCH  14  15
ENDBRANCH  12  14
ENDBRANCH   5   9
BRANCH   8  17
ATOM     17  O   UNL d   1      26.585 -16.521  -0.555  0.00  0.00    -0.354 OA
ATOM     18  C   UNL d   1      27.419 -17.088   0.452  0.00  0.00     0.210 C 
ENDBRANCH   8  17
ENDBRANCH   1   3
BRANCH   1  19
ATOM     19  C   UNL d   1      25.573 -14.773  -2.845  0.00  0.00     0.179 C 
ATOM     20  S   UNL d   1      25.819 -14.694  -4.504  0.00  0.00    -0.040 SA
BRANCH  19  21
ATOM     21  N   UNL d   1      26.585 -14.345  -1.962  0.00  0.00    -0.299 N 
ATOM     22  C   UNL d   1      26.822 -13.042  -1.491  0.00  0.00     0.260 C 
ATOM     23  O   UNL d   1      26.383 -12.009  -2.025  0.00  0.00    -0.267 OA
ATOM     24  H   UNL d   1      27.025 -15.084  -1.434  0.00  0.00     0.171 HD
BRANCH  22  25
ATOM     25  C   UNL d   1      27.780 -12.833  -0.369  0.00  0.00     0.067 A 
ATOM     26  C   UNL d   1      27.370 -13.384   0.871  0.00  0.00     0.039 A 
ATOM     27  C   UNL d   1      28.084 -13.135   2.045  0.00  0.00     0.012 A 
ATOM     28 BR   UNL d   1      27.407 -13.700   3.719  0.00  0.00    -0.051 Br
ATOM     29  C   UNL d   1      29.262 -12.403   2.002  0.00  0.00     0.022 A 
ATOM     30  C   UNL d   1      29.662 -11.834   0.791  0.00  0.00     0.039 A 
ATOM     31  C   UNL d   1      28.916 -12.000  -0.398  0.00  0.00     0.084 A 
BRANCH  31  32
ATOM     32  O   UNL d   1      29.428 -11.229  -1.408  0.00  0.00    -0.355 OA
ATOM     33  C   UNL d   1      30.727 -11.487  -1.902  0.00  0.00     0.210 C 
ENDBRANCH  31  32
ENDBRANCH  22  25
ENDBRANCH  19  21
ENDBRANCH   1  19
TORSDOF 9
ENDMDL
MODEL 8
REMARK VINA RESULT:    -8.320      3.796      5.167
REMARK INTER + INTRA:         -14.231
REMARK INTER:                 -11.005
REMARK INTRA:                  -3.226
REMARK CONF_INDEPENDENT:        2.685
REMARK UNBOUND:                -3.226
REMARK  9 active torsions:
REMARK  status: ('A' for Active; 'I' for Inactive)
REMARK    1  A    between atoms: O_2  and  C_3 
REMARK    2  A    between atoms: C_6  and  C_7 
REMARK    3  A    between atoms: C_10  and  C_11 
REMARK    4  A    between atoms: C_11  and  O_12 
REMARK    5  A    between atoms: C_15  and  N_16 
REMARK    6  A    between atoms: N_16  and  C_17 
REMARK    7  A    between atoms: C_17  and  N_19 
REMARK       I    between atoms: N_19  and  C_20 
REMARK    8  A    between atoms: C_20  and  C_22 
REMARK    9  A    between atoms: C_28  and  O_29 
ROOT
ATOM      1  N   UNL d   1      24.960 -15.046  -1.788  0.00  0.00    -0.331 N 
ATOM      2  H   UNL d   1      24.126 -14.545  -2.066  0.00  0.00     0.168 HD
ENDROOT
BRANCH   1   3
ATOM      3  C   UNL d   1      24.713 -16.314  -1.116  0.00  0.00     0.069 C 
ATOM      4  C   UNL d   1      23.386 -16.839  -1.015  0.00  0.00     0.046 C 
ATOM      5  C   UNL d   1      23.115 -18.142  -0.492  0.00  0.00     0.000 C 
ATOM      6  C   UNL d   1      24.199 -18.947  -0.145  0.00  0.00     0.017 C 
ATOM      7  C   UNL d   1      25.483 -18.402  -0.130  0.00  0.00     0.040 C 
ATOM      8  C   UNL d   1      25.733 -17.078  -0.529  0.00  0.00     0.095 C 
BRANCH   5   9
ATOM      9  C   UNL d   1      21.747 -18.676  -0.379  0.00  0.00     0.086 A 
ATOM     10  C   UNL d   1      20.697 -18.757  -1.268  0.00  0.00     0.040 A 
ATOM     11  C   UNL d   1      19.597 -19.300  -0.570  0.00  0.00     0.038 A 
ATOM     12  C   UNL d   1      20.021 -19.562   0.716  0.00  0.00     0.077 A 
ATOM     13  O   UNL d   1      21.349 -19.204   0.837  0.00  0.00    -0.312 OA
BRANCH  12  14
ATOM     14  C   UNL d   1      19.296 -20.104   1.904  0.00  0.00     0.229 C 
BRANCH  14  15
ATOM     15  O   UNL d   1      20.213 -20.149   3.005  0.00  0.00    -0.394 OA
ATOM     16  H   UNL d   1      21.108 -20.067   2.635  0.00  0.00     0.209 HD
ENDBRANCH  14  15
ENDBRANCH  12  14
ENDBRANCH   5   9
BRANCH   8  17
ATOM     17  O   UNL d   1      27.032 -16.704  -0.328  0.00  0.00    -0.354 OA
ATOM     18  C   UNL d   1      28.007 -17.727  -0.147  0.00  0.00     0.210 C 
ENDBRANCH   8  17
ENDBRANCH   1   3
BRANCH   1  19
ATOM     19  C   UNL d   1      26.225 -14.550  -2.233  0.00  0.00     0.179 C 
ATOM     20  S   UNL d   1      26.623 -14.071  -3.792  0.00  0.00    -0.040 SA
BRANCH  19  21
ATOM     21  N   UNL d   1      27.178 -14.444  -1.199  0.00  0.00    -0.299 N 
ATOM     22  C   UNL d   1      27.028 -13.813   0.048  0.00  0.00     0.260 C 
ATOM     23  O   UNL d   1      26.151 -12.973   0.311  0.00  0.00    -0.267 OA
ATOM     24  H   UNL d   1      27.949 -15.090  -1.269  0.00  0.00     0.171 HD
BRANCH  22  25
ATOM     25  C   UNL d   1      28.059 -14.026   1.104  0.00  0.00     0.067 A 
ATOM     26  C   UNL d   1      27.687 -13.574   2.395  0.00  0.00     0.039 A 
ATOM     27  C   UNL d   1      28.603 -13.563   3.449  0.00  0.00     0.012 A 
ATOM     28 BR   UNL d   1      28.153 -12.762   5.103  0.00  0.00    -0.051 Br
ATOM     29  C   UNL d   1      29.880 -14.073   3.267  0.00  0.00     0.022 A 
ATOM     30  C   UNL d   1      30.265 -14.496   1.994  0.00  0.00     0.039 A 
ATOM     31  C   UNL d   1      29.387 -14.444   0.888  0.00  0.00     0.084 A 
BRANCH  31  32
ATOM     32  O   UNL d   1      30.039 -14.771  -0.272  0.00  0.00    -0.355 OA
ATOM     33  C   UNL d   1      31.353 -14.302  -0.498  0.00  0.00     0.210 C 
ENDBRANCH  31  32
ENDBRANCH  22  25
ENDBRANCH  19  21
ENDBRANCH   1  19
TORSDOF 9
ENDMDL
MODEL 9
REMARK VINA RESULT:    -7.981      3.195      4.389
REMARK INTER + INTRA:         -14.115
REMARK INTER:                 -10.665
REMARK INTRA:                  -3.449
REMARK CONF_INDEPENDENT:        2.685
REMARK UNBOUND:                -3.449
REMARK  9 active torsions:
REMARK  status: ('A' for Active; 'I' for Inactive)
REMARK    1  A    between atoms: O_2  and  C_3 
REMARK    2  A    between atoms: C_6  and  C_7 
REMARK    3  A    between atoms: C_10  and  C_11 
REMARK    4  A    between atoms: C_11  and  O_12 
REMARK    5  A    between atoms: C_15  and  N_16 
REMARK    6  A    between atoms: N_16  and  C_17 
REMARK    7  A    between atoms: C_17  and  N_19 
REMARK       I    between atoms: N_19  and  C_20 
REMARK    8  A    between atoms: C_20  and  C_22 
REMARK    9  A    between atoms: C_28  and  O_29 
ROOT
ATOM      1  N   UNL d   1      24.389 -15.248  -2.276  0.00  0.00    -0.331 N 
ATOM      2  H   UNL d   1      23.519 -14.892  -2.653  0.00  0.00     0.168 HD
ENDROOT
BRANCH   1   3
ATOM      3  C   UNL d   1      24.247 -16.422  -1.427  0.00  0.00     0.069 C 
ATOM      4  C   UNL d   1      22.972 -17.047  -1.253  0.00  0.00     0.046 C 
ATOM      5  C   UNL d   1      22.813 -18.281  -0.548  0.00  0.00     0.000 C 
ATOM      6  C   UNL d   1      23.960 -18.924  -0.085  0.00  0.00     0.017 C 
ATOM      7  C   UNL d   1      25.189 -18.266  -0.146  0.00  0.00     0.040 C 
ATOM      8  C   UNL d   1      25.323 -16.996  -0.733  0.00  0.00     0.095 C 
BRANCH   5   9
ATOM      9  C   UNL d   1      21.498 -18.917  -0.361  0.00  0.00     0.086 A 
ATOM     10  C   UNL d   1      20.462 -19.198  -1.227  0.00  0.00     0.040 A 
ATOM     11  C   UNL d   1      19.413 -19.749  -0.461  0.00  0.00     0.038 A 
ATOM     12  C   UNL d   1      19.853 -19.814   0.845  0.00  0.00     0.077 A 
ATOM     13  O   UNL d   1      21.143 -19.326   0.912  0.00  0.00    -0.312 OA
BRANCH  12  14
ATOM     14  C   UNL d   1      19.174 -20.270   2.095  0.00  0.00     0.229 C 
BRANCH  14  15
ATOM     15  O   UNL d   1      20.160 -20.359   3.132  0.00  0.00    -0.394 OA
ATOM     16  H   UNL d   1      21.030 -20.364   2.699  0.00  0.00     0.209 HD
ENDBRANCH  14  15
ENDBRANCH  12  14
ENDBRANCH   5   9
BRANCH   8  17
ATOM     17  O   UNL d   1      26.579 -16.478  -0.585  0.00  0.00    -0.354 OA
ATOM     18  C   UNL d   1      27.667 -17.385  -0.428  0.00  0.00     0.210 C 
ENDBRANCH   8  17
ENDBRANCH   1   3
BRANCH   1  19
ATOM     19  C   UNL d   1      25.612 -14.680  -2.749  0.00  0.00     0.179 C 
ATOM     20  S   UNL d   1      26.181 -14.698  -4.329  0.00  0.00    -0.040 SA
BRANCH  19  21
ATOM     21  N   UNL d   1      26.351 -14.026  -1.742  0.00  0.00    -0.299 N 
ATOM     22  C   UNL d   1      26.651 -12.656  -1.649  0.00  0.00     0.260 C 
ATOM     23  O   UNL d   1      26.593 -11.856  -2.598  0.00  0.00    -0.267 OA
ATOM     24  H   UNL d   1      26.462 -14.554  -0.889  0.00  0.00     0.171 HD
BRANCH  22  25
ATOM     25  C   UNL d   1      27.224 -12.117  -0.382  0.00  0.00     0.067 A 
ATOM     26  C   UNL d   1      27.780 -10.818  -0.489  0.00  0.00     0.039 A 
ATOM     27  C   UNL d   1      28.490 -10.246   0.569  0.00  0.00     0.012 A 
ATOM     28 BR   UNL d   1      29.403  -8.604   0.337  0.00  0.00    -0.051 Br
ATOM     29  C   UNL d   1      28.596 -10.915   1.779  0.00  0.00     0.022 A 
ATOM     30  C   UNL d   1      28.076 -12.207   1.887  0.00  0.00     0.039 A 
ATOM     31  C   UNL d   1      27.423 -12.844   0.808  0.00  0.00     0.084 A 
BRANCH  31  32
ATOM     32  O   UNL d   1      27.136 -14.149   1.111  0.00  0.00    -0.355 OA
ATOM     33  C   UNL d   1      27.885 -14.823   2.102  0.00  0.00     0.210 C 
ENDBRANCH  31  32
ENDBRANCH  22  25
ENDBRANCH  19  21
ENDBRANCH   1  19
TORSDOF 9
ENDMDL
