MODEL 1
REMARK VINA RESULT:    -7.058      0.000      0.000
REMARK INTER + INTRA:          -9.165
REMARK INTER:                  -8.550
REMARK INTRA:                  -0.616
REMARK CONF_INDEPENDENT:        1.492
REMARK UNBOUND:                -0.616
REMARK  5 active torsions:
REMARK  status: ('A' for Active; 'I' for Inactive)
REMARK    1  A    between atoms: O_1  and  C_2 
REMARK    2  A    between atoms: C_4  and  N_5 
REMARK    3  A    between atoms: N_5  and  C_6 
REMARK    4  A    between atoms: C_13  and  N_14 
REMARK    5  A    between atoms: N_14  and  C_15 
ROOT
ATOM      1  C   UNL d   1      25.121 -17.528  -0.209  0.00  0.00     0.142 C 
ATOM      2  C   UNL d   1      23.781 -17.834   0.439  0.00  0.00     0.059 C 
ATOM      3  C   UNL d   1      22.991 -18.607  -0.658  0.00  0.00     0.086 C 
ATOM      4  C   UNL d   1      23.656 -18.199  -2.015  0.00  0.00     0.052 C 
ATOM      5  C   UNL d   1      24.780 -17.199  -1.682  0.00  0.00     0.112 C 
ENDROOT
BRANCH   3   6
ATOM      6  N   UNL d   1      21.512 -18.474  -0.749  0.00  0.00    -0.385 N 
ATOM      7  H   UNL d   1      21.176 -17.507  -0.835  0.00  0.00     0.160 HD
BRANCH   6   8
ATOM      8  C   UNL d   1      20.580 -19.234  -0.055  0.00  0.00     0.028 A 
ATOM      9  C   UNL d   1      19.493 -19.736  -0.775  0.00  0.00     0.029 A 
ATOM     10  C   UNL d   1      18.469 -20.448  -0.144  0.00  0.00     0.002 A 
ATOM     11  C   UNL d   1      18.497 -20.647   1.234  0.00  0.00     0.000 A 
ATOM     12  C   UNL d   1      19.518 -20.085   1.981  0.00  0.00     0.002 A 
ATOM     13  C   UNL d   1      20.541 -19.393   1.334  0.00  0.00     0.029 A 
ENDBRANCH   6   8
ENDBRANCH   3   6
BRANCH   1  14
ATOM     14  O   UNL d   1      25.908 -18.715  -0.088  0.00  0.00    -0.393 OA
ATOM     15  H   UNL d   1      26.676 -18.595  -0.681  0.00  0.00     0.210 HD
ENDBRANCH   1  14
BRANCH   5  16
ATOM     16  N   UNL d   1      24.470 -15.748  -1.966  0.00  0.00    -0.383 N 
ATOM     17  H   UNL d   1      23.602 -15.423  -1.550  0.00  0.00     0.160 HD
BRANCH  16  18
ATOM     18  C   UNL d   1      25.272 -14.768  -2.523  0.00  0.00     0.028 A 
ATOM     19  C   UNL d   1      24.943 -14.133  -3.686  0.00  0.00     0.029 A 
ATOM     20  C   UNL d   1      25.519 -13.047  -4.316  0.00  0.00     0.002 A 
ATOM     21  C   UNL d   1      26.635 -12.518  -3.740  0.00  0.00     0.000 A 
ATOM     22  C   UNL d   1      27.122 -13.163  -2.607  0.00  0.00     0.002 A 
ATOM     23  C   UNL d   1      26.448 -14.260  -1.986  0.00  0.00     0.029 A 
ENDBRANCH  16  18
ENDBRANCH   5  16
TORSDOF 5
ENDMDL
MODEL 2
REMARK VINA RESULT:    -6.464      3.102      5.195
REMARK INTER + INTRA:          -8.577
REMARK INTER:                  -7.956
REMARK INTRA:                  -0.621
REMARK CONF_INDEPENDENT:        1.492
REMARK UNBOUND:                -0.621
REMARK  5 active torsions:
REMARK  status: ('A' for Active; 'I' for Inactive)
REMARK    1  A    between atoms: O_1  and  C_2 
REMARK    2  A    between atoms: C_4  and  N_5 
REMARK    3  A    between atoms: N_5  and  C_6 
REMARK    4  A    between atoms: C_13  and  N_14 
REMARK    5  A    between atoms: N_14  and  C_15 
ROOT
ATOM      1  C   UNL d   1      27.172 -14.353  -4.758  0.00  0.00     0.142 C 
ATOM      2  C   UNL d   1      27.131 -15.108  -3.441  0.00  0.00     0.059 C 
ATOM      3  C   UNL d   1      25.613 -15.240  -3.120  0.00  0.00     0.086 C 
ATOM      4  C   UNL d   1      24.917 -14.088  -3.919  0.00  0.00     0.052 C 
ATOM      5  C   UNL d   1      26.030 -13.315  -4.653  0.00  0.00     0.112 C 
ENDROOT
BRANCH   3   6
ATOM      6  N   UNL d   1      25.144 -15.242  -1.708  0.00  0.00    -0.385 N 
ATOM      7  H   UNL d   1      25.775 -14.771  -1.048  0.00  0.00     0.160 HD
BRANCH   6   8
ATOM      8  C   UNL d   1      24.489 -16.286  -1.067  0.00  0.00     0.028 A 
ATOM      9  C   UNL d   1      25.248 -17.408  -0.725  0.00  0.00     0.029 A 
ATOM     10  C   UNL d   1      24.657 -18.535  -0.145  0.00  0.00     0.002 A 
ATOM     11  C   UNL d   1      23.283 -18.574   0.076  0.00  0.00     0.000 A 
ATOM     12  C   UNL d   1      22.499 -17.510  -0.334  0.00  0.00     0.002 A 
ATOM     13  C   UNL d   1      23.105 -16.386  -0.895  0.00  0.00     0.029 A 
ENDBRANCH   6   8
ENDBRANCH   3   6
BRANCH   1  14
ATOM     14  O   UNL d   1      26.932 -15.320  -5.785  0.00  0.00    -0.393 OA
ATOM     15  H   UNL d   1      25.991 -15.572  -5.706  0.00  0.00     0.210 HD
ENDBRANCH   1  14
BRANCH   5  16
ATOM     16  N   UNL d   1      26.417 -11.988  -4.043  0.00  0.00    -0.383 N 
ATOM     17  H   UNL d   1      27.236 -12.034  -3.443  0.00  0.00     0.160 HD
BRANCH  16  18
ATOM     18  C   UNL d   1      25.955 -10.716  -4.332  0.00  0.00     0.028 A 
ATOM     19  C   UNL d   1      25.587 -10.345  -5.594  0.00  0.00     0.029 A 
ATOM     20  C   UNL d   1      24.974  -9.196  -6.055  0.00  0.00     0.002 A 
ATOM     21  C   UNL d   1      24.717  -8.222  -5.137  0.00  0.00     0.000 A 
ATOM     22  C   UNL d   1      25.155  -8.453  -3.837  0.00  0.00     0.002 A 
ATOM     23  C   UNL d   1      25.747  -9.687  -3.423  0.00  0.00     0.029 A 
ENDBRANCH  16  18
ENDBRANCH   5  16
TORSDOF 5
ENDMDL
MODEL 3
REMARK VINA RESULT:    -6.420      2.621      7.099
REMARK INTER + INTRA:          -9.002
REMARK INTER:                  -7.911
REMARK INTRA:                  -1.090
REMARK CONF_INDEPENDENT:        1.492
REMARK UNBOUND:                -1.090
REMARK  5 active torsions:
REMARK  status: ('A' for Active; 'I' for Inactive)
REMARK    1  A    between atoms: O_1  and  C_2 
REMARK    2  A    between atoms: C_4  and  N_5 
REMARK    3  A    between atoms: N_5  and  C_6 
REMARK    4  A    between atoms: C_13  and  N_14 
REMARK    5  A    between atoms: N_14  and  C_15 
ROOT
ATOM      1  C   UNL d   1      28.563 -17.400  -0.765  0.00  0.00     0.142 C 
ATOM      2  C   UNL d   1      28.133 -16.156  -1.524  0.00  0.00     0.059 C 
ATOM      3  C   UNL d   1      27.531 -15.226  -0.429  0.00  0.00     0.086 C 
ATOM      4  C   UNL d   1      27.116 -16.178   0.743  0.00  0.00     0.052 C 
ATOM      5  C   UNL d   1      27.459 -17.613   0.299  0.00  0.00     0.112 C 
ENDROOT
BRANCH   3   6
ATOM      6  N   UNL d   1      26.412 -14.304  -0.762  0.00  0.00    -0.385 N 
ATOM      7  H   UNL d   1      25.531 -14.509  -0.275  0.00  0.00     0.160 HD
BRANCH   6   8
ATOM      8  C   UNL d   1      26.141 -13.770  -2.016  0.00  0.00     0.028 A 
ATOM      9  C   UNL d   1      25.416 -14.561  -2.910  0.00  0.00     0.029 A 
ATOM     10  C   UNL d   1      25.162 -14.134  -4.217  0.00  0.00     0.002 A 
ATOM     11  C   UNL d   1      25.658 -12.913  -4.667  0.00  0.00     0.000 A 
ATOM     12  C   UNL d   1      26.453 -12.152  -3.827  0.00  0.00     0.002 A 
ATOM     13  C   UNL d   1      26.682 -12.583  -2.521  0.00  0.00     0.029 A 
ENDBRANCH   6   8
ENDBRANCH   3   6
BRANCH   1  14
ATOM     14  O   UNL d   1      29.830 -17.096  -0.177  0.00  0.00    -0.393 OA
ATOM     15  H   UNL d   1      29.921 -17.687   0.596  0.00  0.00     0.210 HD
ENDBRANCH   1  14
BRANCH   5  16
ATOM     16  N   UNL d   1      26.289 -18.458  -0.143  0.00  0.00    -0.383 N 
ATOM     17  H   UNL d   1      26.470 -19.458  -0.119  0.00  0.00     0.160 HD
BRANCH  16  18
ATOM     18  C   UNL d   1      24.975 -18.092  -0.376  0.00  0.00     0.028 A 
ATOM     19  C   UNL d   1      23.931 -18.941  -0.147  0.00  0.00     0.029 A 
ATOM     20  C   UNL d   1      22.567 -18.724  -0.173  0.00  0.00     0.002 A 
ATOM     21  C   UNL d   1      22.146 -17.478  -0.530  0.00  0.00     0.000 A 
ATOM     22  C   UNL d   1      23.130 -16.563  -0.893  0.00  0.00     0.002 A 
ATOM     23  C   UNL d   1      24.528 -16.847  -0.802  0.00  0.00     0.029 A 
ENDBRANCH  16  18
ENDBRANCH   5  16
TORSDOF 5
ENDMDL
MODEL 4
REMARK VINA RESULT:    -6.244      3.562      8.476
REMARK INTER + INTRA:          -8.647
REMARK INTER:                  -7.736
REMARK INTRA:                  -0.911
REMARK CONF_INDEPENDENT:        1.492
REMARK UNBOUND:                -0.911
REMARK  5 active torsions:
REMARK  status: ('A' for Active; 'I' for Inactive)
REMARK    1  A    between atoms: O_1  and  C_2 
REMARK    2  A    between atoms: C_4  and  N_5 
REMARK    3  A    between atoms: N_5  and  C_6 
REMARK    4  A    between atoms: C_13  and  N_14 
REMARK    5  A    between atoms: N_14  and  C_15 
ROOT
ATOM      1  C   UNL d   1      25.062 -14.104  -3.426  0.00  0.00     0.142 C 
ATOM      2  C   UNL d   1      26.248 -13.230  -3.793  0.00  0.00     0.059 C 
ATOM      3  C   UNL d   1      26.844 -13.904  -5.065  0.00  0.00     0.086 C 
ATOM      4  C   UNL d   1      26.360 -15.391  -5.012  0.00  0.00     0.052 C 
ATOM      5  C   UNL d   1      25.530 -15.549  -3.724  0.00  0.00     0.112 C 
ENDROOT
BRANCH   3   6
ATOM      6  N   UNL d   1      28.307 -13.848  -5.326  0.00  0.00    -0.385 N 
ATOM      7  H   UNL d   1      28.584 -13.193  -6.067  0.00  0.00     0.160 HD
BRANCH   6   8
ATOM      8  C   UNL d   1      29.181 -14.928  -5.305  0.00  0.00     0.028 A 
ATOM      9  C   UNL d   1      29.587 -15.453  -6.535  0.00  0.00     0.029 A 
ATOM     10  C   UNL d   1      30.405 -16.584  -6.608  0.00  0.00     0.002 A 
ATOM     11  C   UNL d   1      30.810 -17.235  -5.446  0.00  0.00     0.000 A 
ATOM     12  C   UNL d   1      30.351 -16.786  -4.220  0.00  0.00     0.002 A 
ATOM     13  C   UNL d   1      29.550 -15.646  -4.162  0.00  0.00     0.029 A 
ENDBRANCH   6   8
ENDBRANCH   3   6
BRANCH   1  14
ATOM     14  O   UNL d   1      23.984 -13.699  -4.274  0.00  0.00    -0.393 OA
ATOM     15  H   UNL d   1      24.381 -13.507  -5.146  0.00  0.00     0.210 HD
ENDBRANCH   1  14
BRANCH   5  16
ATOM     16  N   UNL d   1      26.223 -16.252  -2.581  0.00  0.00    -0.383 N 
ATOM     17  H   UNL d   1      27.229 -16.110  -2.559  0.00  0.00     0.160 HD
BRANCH  16  18
ATOM     18  C   UNL d   1      25.681 -16.880  -1.473  0.00  0.00     0.028 A 
ATOM     19  C   UNL d   1      24.334 -17.025  -1.305  0.00  0.00     0.029 A 
ATOM     20  C   UNL d   1      23.612 -17.735  -0.365  0.00  0.00     0.002 A 
ATOM     21  C   UNL d   1      24.323 -18.375   0.605  0.00  0.00     0.000 A 
ATOM     22  C   UNL d   1      25.703 -18.200   0.592  0.00  0.00     0.002 A 
ATOM     23  C   UNL d   1      26.387 -17.483  -0.439  0.00  0.00     0.029 A 
ENDBRANCH  16  18
ENDBRANCH   5  16
TORSDOF 5
ENDMDL
MODEL 5
REMARK VINA RESULT:    -6.220      2.906      4.317
REMARK INTER + INTRA:          -8.989
REMARK INTER:                  -7.712
REMARK INTRA:                  -1.277
REMARK CONF_INDEPENDENT:        1.492
REMARK UNBOUND:                -1.277
REMARK  5 active torsions:
REMARK  status: ('A' for Active; 'I' for Inactive)
REMARK    1  A    between atoms: O_1  and  C_2 
REMARK    2  A    between atoms: C_4  and  N_5 
REMARK    3  A    between atoms: N_5  and  C_6 
REMARK    4  A    between atoms: C_13  and  N_14 
REMARK    5  A    between atoms: N_14  and  C_15 
ROOT
ATOM      1  C   UNL d   1      28.303 -14.608   0.509  0.00  0.00     0.142 C 
ATOM      2  C   UNL d   1      26.979 -15.347   0.599  0.00  0.00     0.059 C 
ATOM      3  C   UNL d   1      27.341 -16.827   0.276  0.00  0.00     0.086 C 
ATOM      4  C   UNL d   1      28.680 -16.761  -0.533  0.00  0.00     0.052 C 
ATOM      5  C   UNL d   1      29.044 -15.270  -0.678  0.00  0.00     0.112 C 
ENDROOT
BRANCH   3   6
ATOM      6  N   UNL d   1      26.362 -17.702  -0.422  0.00  0.00    -0.385 N 
ATOM      7  H   UNL d   1      26.667 -18.032  -1.346  0.00  0.00     0.160 HD
BRANCH   6   8
ATOM      8  C   UNL d   1      24.981 -17.553  -0.411  0.00  0.00     0.028 A 
ATOM      9  C   UNL d   1      24.212 -18.688  -0.142  0.00  0.00     0.029 A 
ATOM     10  C   UNL d   1      22.815 -18.647  -0.184  0.00  0.00     0.002 A 
ATOM     11  C   UNL d   1      22.157 -17.469  -0.527  0.00  0.00     0.000 A 
ATOM     12  C   UNL d   1      22.897 -16.355  -0.882  0.00  0.00     0.002 A 
ATOM     13  C   UNL d   1      24.289 -16.407  -0.818  0.00  0.00     0.029 A 
ENDBRANCH   6   8
ENDBRANCH   3   6
BRANCH   1  14
ATOM     14  O   UNL d   1      28.972 -14.826   1.753  0.00  0.00    -0.393 OA
ATOM     15  H   UNL d   1      29.294 -15.749   1.732  0.00  0.00     0.210 HD
ENDBRANCH   1  14
BRANCH   5  16
ATOM     16  N   UNL d   1      28.771 -14.660  -2.032  0.00  0.00    -0.383 N 
ATOM     17  H   UNL d   1      29.601 -14.301  -2.497  0.00  0.00     0.160 HD
BRANCH  16  18
ATOM     18  C   UNL d   1      27.622 -14.698  -2.801  0.00  0.00     0.028 A 
ATOM     19  C   UNL d   1      26.439 -14.168  -2.371  0.00  0.00     0.029 A 
ATOM     20  C   UNL d   1      25.242 -13.975  -3.031  0.00  0.00     0.002 A 
ATOM     21  C   UNL d   1      25.168 -14.416  -4.318  0.00  0.00     0.000 A 
ATOM     22  C   UNL d   1      26.286 -15.075  -4.821  0.00  0.00     0.002 A 
ATOM     23  C   UNL d   1      27.508 -15.202  -4.091  0.00  0.00     0.029 A 
ENDBRANCH  16  18
ENDBRANCH   5  16
TORSDOF 5
ENDMDL
MODEL 6
REMARK VINA RESULT:    -6.148      2.809      7.596
REMARK INTER + INTRA:          -8.596
REMARK INTER:                  -7.640
REMARK INTRA:                  -0.956
REMARK CONF_INDEPENDENT:        1.492
REMARK UNBOUND:                -0.956
REMARK  5 active torsions:
REMARK  status: ('A' for Active; 'I' for Inactive)
REMARK    1  A    between atoms: O_1  and  C_2 
REMARK    2  A    between atoms: C_4  and  N_5 
REMARK    3  A    between atoms: N_5  and  C_6 
REMARK    4  A    between atoms: C_13  and  N_14 
REMARK    5  A    between atoms: N_14  and  C_15 
ROOT
ATOM      1  C   UNL d   1      24.779 -14.429  -3.247  0.00  0.00     0.142 C 
ATOM      2  C   UNL d   1      25.512 -13.190  -2.762  0.00  0.00     0.059 C 
ATOM      3  C   UNL d   1      27.012 -13.611  -2.748  0.00  0.00     0.086 C 
ATOM      4  C   UNL d   1      27.004 -15.173  -2.650  0.00  0.00     0.052 C 
ATOM      5  C   UNL d   1      25.529 -15.613  -2.588  0.00  0.00     0.112 C 
ENDROOT
BRANCH   3   6
ATOM      6  N   UNL d   1      27.940 -13.038  -1.736  0.00  0.00    -0.385 N 
ATOM      7  H   UNL d   1      28.897 -12.881  -2.076  0.00  0.00     0.160 HD
BRANCH   6   8
ATOM      8  C   UNL d   1      27.969 -13.353  -0.384  0.00  0.00     0.028 A 
ATOM      9  C   UNL d   1      26.818 -13.089   0.364  0.00  0.00     0.029 A 
ATOM     10  C   UNL d   1      26.784 -13.305   1.745  0.00  0.00     0.002 A 
ATOM     11  C   UNL d   1      27.916 -13.763   2.413  0.00  0.00     0.000 A 
ATOM     12  C   UNL d   1      29.093 -13.949   1.709  0.00  0.00     0.002 A 
ATOM     13  C   UNL d   1      29.106 -13.746   0.329  0.00  0.00     0.029 A 
ENDBRANCH   6   8
ENDBRANCH   3   6
BRANCH   1  14
ATOM     14  O   UNL d   1      24.900 -14.438  -4.672  0.00  0.00    -0.393 OA
ATOM     15  H   UNL d   1      24.064 -14.069  -5.018  0.00  0.00     0.210 HD
ENDBRANCH   1  14
BRANCH   5  16
ATOM     16  N   UNL d   1      25.024 -16.019  -1.224  0.00  0.00    -0.383 N 
ATOM     17  H   UNL d   1      25.244 -15.354  -0.488  0.00  0.00     0.160 HD
BRANCH  16  18
ATOM     18  C   UNL d   1      24.154 -17.036  -0.873  0.00  0.00     0.028 A 
ATOM     19  C   UNL d   1      22.798 -16.875  -0.895  0.00  0.00     0.029 A 
ATOM     20  C   UNL d   1      21.777 -17.790  -0.728  0.00  0.00     0.002 A 
ATOM     21  C   UNL d   1      22.137 -19.074  -0.445  0.00  0.00     0.000 A 
ATOM     22  C   UNL d   1      23.497 -19.324  -0.289  0.00  0.00     0.002 A 
ATOM     23  C   UNL d   1      24.502 -18.334  -0.518  0.00  0.00     0.029 A 
ENDBRANCH  16  18
ENDBRANCH   5  16
TORSDOF 5
ENDMDL
MODEL 7
REMARK VINA RESULT:    -6.061      3.245      5.054
REMARK INTER + INTRA:          -8.440
REMARK INTER:                  -7.553
REMARK INTRA:                  -0.888
REMARK CONF_INDEPENDENT:        1.492
REMARK UNBOUND:                -0.888
REMARK  5 active torsions:
REMARK  status: ('A' for Active; 'I' for Inactive)
REMARK    1  A    between atoms: O_1  and  C_2 
REMARK    2  A    between atoms: C_4  and  N_5 
REMARK    3  A    between atoms: N_5  and  C_6 
REMARK    4  A    between atoms: C_13  and  N_14 
REMARK    5  A    between atoms: N_14  and  C_15 
ROOT
ATOM      1  C   UNL d   1      27.200 -14.165  -4.889  0.00  0.00     0.142 C 
ATOM      2  C   UNL d   1      27.631 -14.791  -3.574  0.00  0.00     0.059 C 
ATOM      3  C   UNL d   1      26.359 -15.531  -3.064  0.00  0.00     0.086 C 
ATOM      4  C   UNL d   1      25.155 -14.825  -3.774  0.00  0.00     0.052 C 
ATOM      5  C   UNL d   1      25.745 -13.699  -4.645  0.00  0.00     0.112 C 
ENDROOT
BRANCH   3   6
ATOM      6  N   UNL d   1      26.096 -15.649  -1.605  0.00  0.00    -0.385 N 
ATOM      7  H   UNL d   1      26.937 -15.604  -1.015  0.00  0.00     0.160 HD
BRANCH   6   8
ATOM      8  C   UNL d   1      25.151 -16.475  -1.010  0.00  0.00     0.028 A 
ATOM      9  C   UNL d   1      25.610 -17.648  -0.404  0.00  0.00     0.029 A 
ATOM     10  C   UNL d   1      24.722 -18.574   0.153  0.00  0.00     0.002 A 
ATOM     11  C   UNL d   1      23.348 -18.358   0.087  0.00  0.00     0.000 A 
ATOM     12  C   UNL d   1      22.866 -17.248  -0.585  0.00  0.00     0.002 A 
ATOM     13  C   UNL d   1      23.765 -16.325  -1.119  0.00  0.00     0.029 A 
ENDBRANCH   6   8
ENDBRANCH   3   6
BRANCH   1  14
ATOM     14  O   UNL d   1      27.278 -15.200  -5.873  0.00  0.00    -0.393 OA
ATOM     15  H   UNL d   1      27.592 -14.773  -6.694  0.00  0.00     0.210 HD
ENDBRANCH   1  14
BRANCH   5  16
ATOM     16  N   UNL d   1      25.598 -12.301  -4.093  0.00  0.00    -0.383 N 
ATOM     17  H   UNL d   1      24.799 -11.793  -4.464  0.00  0.00     0.160 HD
BRANCH  16  18
ATOM     18  C   UNL d   1      26.254 -11.697  -3.035  0.00  0.00     0.028 A 
ATOM     19  C   UNL d   1      26.647 -12.394  -1.929  0.00  0.00     0.029 A 
ATOM     20  C   UNL d   1      27.428 -12.017  -0.854  0.00  0.00     0.002 A 
ATOM     21  C   UNL d   1      27.863 -10.726  -0.828  0.00  0.00     0.000 A 
ATOM     22  C   UNL d   1      27.426  -9.896  -1.855  0.00  0.00     0.002 A 
ATOM     23  C   UNL d   1      26.650 -10.367  -2.959  0.00  0.00     0.029 A 
ENDBRANCH  16  18
ENDBRANCH   5  16
TORSDOF 5
ENDMDL
MODEL 8
REMARK VINA RESULT:    -5.898      3.091      7.191
REMARK INTER + INTRA:          -8.704
REMARK INTER:                  -7.390
REMARK INTRA:                  -1.315
REMARK CONF_INDEPENDENT:        1.492
REMARK UNBOUND:                -1.315
REMARK  5 active torsions:
REMARK  status: ('A' for Active; 'I' for Inactive)
REMARK    1  A    between atoms: O_1  and  C_2 
REMARK    2  A    between atoms: C_4  and  N_5 
REMARK    3  A    between atoms: N_5  and  C_6 
REMARK    4  A    between atoms: C_13  and  N_14 
REMARK    5  A    between atoms: N_14  and  C_15 
ROOT
ATOM      1  C   UNL d   1      28.964 -15.544   0.478  0.00  0.00     0.142 C 
ATOM      2  C   UNL d   1      29.064 -14.544  -0.661  0.00  0.00     0.059 C 
ATOM      3  C   UNL d   1      27.885 -13.557  -0.411  0.00  0.00     0.086 C 
ATOM      4  C   UNL d   1      26.859 -14.348   0.467  0.00  0.00     0.052 C 
ATOM      5  C   UNL d   1      27.445 -15.757   0.683  0.00  0.00     0.112 C 
ENDROOT
BRANCH   3   6
ATOM      6  N   UNL d   1      27.190 -12.915  -1.559  0.00  0.00    -0.385 N 
ATOM      7  H   UNL d   1      26.549 -12.155  -1.299  0.00  0.00     0.160 HD
BRANCH   6   8
ATOM      8  C   UNL d   1      26.713 -13.564  -2.691  0.00  0.00     0.028 A 
ATOM      9  C   UNL d   1      25.362 -13.400  -3.006  0.00  0.00     0.029 A 
ATOM     10  C   UNL d   1      24.780 -14.075  -4.083  0.00  0.00     0.002 A 
ATOM     11  C   UNL d   1      25.536 -14.956  -4.852  0.00  0.00     0.000 A 
ATOM     12  C   UNL d   1      26.853 -15.201  -4.507  0.00  0.00     0.002 A 
ATOM     13  C   UNL d   1      27.424 -14.506  -3.441  0.00  0.00     0.029 A 
ENDBRANCH   6   8
ENDBRANCH   3   6
BRANCH   1  14
ATOM     14  O   UNL d   1      29.582 -14.928   1.611  0.00  0.00    -0.393 OA
ATOM     15  H   UNL d   1      30.025 -15.646   2.104  0.00  0.00     0.210 HD
ENDBRANCH   1  14
BRANCH   5  16
ATOM     16  N   UNL d   1      26.828 -16.856  -0.148  0.00  0.00    -0.383 N 
ATOM     17  H   UNL d   1      27.491 -17.562  -0.456  0.00  0.00     0.160 HD
BRANCH  16  18
ATOM     18  C   UNL d   1      25.494 -17.145  -0.378  0.00  0.00     0.028 A 
ATOM     19  C   UNL d   1      24.966 -18.381  -0.141  0.00  0.00     0.029 A 
ATOM     20  C   UNL d   1      23.657 -18.824  -0.162  0.00  0.00     0.002 A 
ATOM     21  C   UNL d   1      22.705 -17.919  -0.523  0.00  0.00     0.000 A 
ATOM     22  C   UNL d   1      23.149 -16.654  -0.895  0.00  0.00     0.002 A 
ATOM     23  C   UNL d   1      24.518 -16.253  -0.808  0.00  0.00     0.029 A 
ENDBRANCH  16  18
ENDBRANCH   5  16
TORSDOF 5
ENDMDL
MODEL 9
REMARK VINA RESULT:    -5.733      3.363      7.207
REMARK INTER + INTRA:          -8.495
REMARK INTER:                  -7.224
REMARK INTRA:                  -1.271
REMARK CONF_INDEPENDENT:        1.492
REMARK UNBOUND:                -1.271
REMARK  5 active torsions:
REMARK  status: ('A' for Active; 'I' for Inactive)
REMARK    1  A    between atoms: O_1  and  C_2 
REMARK    2  A    between atoms: C_4  and  N_5 
REMARK    3  A    between atoms: N_5  and  C_6 
REMARK    4  A    between atoms: C_13  and  N_14 
REMARK    5  A    between atoms: N_14  and  C_15 
ROOT
ATOM      1  C   UNL d   1      29.842 -17.068  -0.206  0.00  0.00     0.142 C 
ATOM      2  C   UNL d   1      30.140 -16.648  -1.635  0.00  0.00     0.059 C 
ATOM      3  C   UNL d   1      29.415 -15.278  -1.793  0.00  0.00     0.086 C 
ATOM      4  C   UNL d   1      28.296 -15.272  -0.698  0.00  0.00     0.052 C 
ATOM      5  C   UNL d   1      28.380 -16.622   0.039  0.00  0.00     0.112 C 
ENDROOT
BRANCH   3   6
ATOM      6  N   UNL d   1      28.849 -14.878  -3.109  0.00  0.00    -0.385 N 
ATOM      7  H   UNL d   1      29.484 -14.323  -3.695  0.00  0.00     0.160 HD
BRANCH   6   8
ATOM      8  C   UNL d   1      27.535 -14.495  -3.349  0.00  0.00     0.028 A 
ATOM      9  C   UNL d   1      26.831 -15.193  -4.335  0.00  0.00     0.029 A 
ATOM     10  C   UNL d   1      25.531 -14.828  -4.695  0.00  0.00     0.002 A 
ATOM     11  C   UNL d   1      24.916 -13.732  -4.095  0.00  0.00     0.000 A 
ATOM     12  C   UNL d   1      25.624 -12.974  -3.179  0.00  0.00     0.002 A 
ATOM     13  C   UNL d   1      26.914 -13.361  -2.817  0.00  0.00     0.029 A 
ENDBRANCH   6   8
ENDBRANCH   3   6
BRANCH   1  14
ATOM     14  O   UNL d   1      30.769 -16.363   0.623  0.00  0.00    -0.393 OA
ATOM     15  H   UNL d   1      30.555 -16.611   1.544  0.00  0.00     0.210 HD
ENDBRANCH   1  14
BRANCH   5  16
ATOM     16  N   UNL d   1      27.324 -17.637  -0.330  0.00  0.00    -0.383 N 
ATOM     17  H   UNL d   1      27.672 -18.589  -0.395  0.00  0.00     0.160 HD
BRANCH  16  18
ATOM     18  C   UNL d   1      25.949 -17.495  -0.392  0.00  0.00     0.028 A 
ATOM     19  C   UNL d   1      25.350 -16.532  -1.153  0.00  0.00     0.029 A 
ATOM     20  C   UNL d   1      24.020 -16.322  -1.461  0.00  0.00     0.002 A 
ATOM     21  C   UNL d   1      23.114 -17.166  -0.895  0.00  0.00     0.000 A 
ATOM     22  C   UNL d   1      23.610 -18.119  -0.011  0.00  0.00     0.002 A 
ATOM     23  C   UNL d   1      25.007 -18.305   0.230  0.00  0.00     0.029 A 
ENDBRANCH  16  18
ENDBRANCH   5  16
TORSDOF 5
ENDMDL
