MODEL 1
REMARK VINA RESULT:   -10.496      0.000      0.000
REMARK INTER + INTRA:         -12.606
REMARK INTER:                 -11.987
REMARK INTRA:                  -0.618
REMARK CONF_INDEPENDENT:        1.492
REMARK UNBOUND:                -0.618
REMARK  5 active torsions:
REMARK  status: ('A' for Active; 'I' for Inactive)
REMARK    1  A    between atoms: C_10  and  O_11 
REMARK    2  A    between atoms: C_13  and  C_14 
REMARK    3  A    between atoms: C_17  and  O_18 
REMARK    4  A    between atoms: O_18  and  C_19 
REMARK    5  A    between atoms: C_19  and  C_21 
ROOT
ATOM      1  C   UNL d   1      26.281 -10.494  -7.563  0.00  0.00     0.270 C 
ATOM      2  N   UNL d   1      27.560 -10.276  -6.790  0.00  0.00    -0.070 N 
ATOM      3  C   UNL d   1      28.542 -11.434  -6.925  0.00  0.00     0.239 C 
ATOM      4  C   UNL d   1      27.890 -12.730  -6.443  0.00  0.00     0.068 C 
ATOM      5  C   UNL d   1      27.222 -12.550  -5.114  0.00  0.00    -0.024 A 
ATOM      6  C   UNL d   1      26.947 -11.286  -4.605  0.00  0.00     0.018 A 
ATOM      7  S   UNL d   1      26.169 -11.367  -3.088  0.00  0.00    -0.074 SA
ATOM      8  C   UNL d   1      26.228 -13.070  -3.085  0.00  0.00     0.087 A 
ATOM      9  C   UNL d   1      26.780 -13.586  -4.236  0.00  0.00     0.057 A 
ATOM     10  C   UNL d   1      26.844 -15.031  -4.349  0.00  0.00     0.173 C 
ATOM     11  N   UNL d   1      26.667 -15.827  -3.368  0.00  0.00    -0.235 NA
ATOM     12  C   UNL d   1      26.336 -15.240  -2.063  0.00  0.00     0.243 C 
ATOM     13  N   UNL d   1      25.787 -13.884  -2.107  0.00  0.00    -0.357 N 
ATOM     14  C   UNL d   1      27.280  -9.998  -5.305  0.00  0.00     0.281 C 
ATOM     15  H   UNL d   1      28.014  -9.441  -7.183  0.00  0.00     0.279 HD
ATOM     16  H   UNL d   1      25.202 -13.596  -1.328  0.00  0.00     0.162 HD
ENDROOT
BRANCH  12  17
ATOM     17  C   UNL d   1      25.350 -16.174  -1.383  0.00  0.00    -0.014 A 
ATOM     18  C   UNL d   1      25.711 -17.317  -0.647  0.00  0.00     0.014 A 
ATOM     19  C   UNL d   1      24.723 -18.224  -0.195  0.00  0.00     0.038 A 
ATOM     20  C   UNL d   1      23.368 -17.953  -0.426  0.00  0.00     0.079 A 
ATOM     21  C   UNL d   1      23.029 -16.825  -1.166  0.00  0.00     0.038 A 
ATOM     22  C   UNL d   1      23.996 -15.949  -1.630  0.00  0.00     0.014 A 
BRANCH  20  23
ATOM     23  O   UNL d   1      22.383 -18.821   0.132  0.00  0.00    -0.275 OA
BRANCH  23  24
ATOM     24  C   UNL d   1      21.293 -19.254  -0.620  0.00  0.00     0.298 C 
ATOM     25  O   UNL d   1      21.189 -19.325  -1.847  0.00  0.00    -0.259 OA
BRANCH  24  26
ATOM     26  C   UNL d   1      20.130 -19.664   0.173  0.00  0.00     0.039 A 
ATOM     27  C   UNL d   1      20.281 -19.708   1.570  0.00  0.00     0.017 A 
ATOM     28  C   UNL d   1      19.321 -20.337   2.359  0.00  0.00     0.001 A 
ATOM     29  C   UNL d   1      18.183 -20.871   1.760  0.00  0.00     0.000 A 
ATOM     30  C   UNL d   1      18.030 -20.825   0.370  0.00  0.00     0.001 A 
ATOM     31  C   UNL d   1      19.010 -20.233  -0.431  0.00  0.00     0.017 A 
ENDBRANCH  24  26
ENDBRANCH  23  24
ENDBRANCH  20  23
ENDBRANCH  12  17
BRANCH  10  32
ATOM     32  O   UNL d   1      27.107 -15.575  -5.557  0.00  0.00    -0.344 OA
ATOM     33  H   UNL d   1      26.413 -15.457  -6.210  0.00  0.00     0.219 HD
ENDBRANCH  10  32
TORSDOF 5
ENDMDL
MODEL 2
REMARK VINA RESULT:    -9.385      4.254      5.544
REMARK INTER + INTRA:         -11.486
REMARK INTER:                 -10.877
REMARK INTRA:                  -0.609
REMARK CONF_INDEPENDENT:        1.492
REMARK UNBOUND:                -0.609
REMARK  5 active torsions:
REMARK  status: ('A' for Active; 'I' for Inactive)
REMARK    1  A    between atoms: C_10  and  O_11 
REMARK    2  A    between atoms: C_13  and  C_14 
REMARK    3  A    between atoms: C_17  and  O_18 
REMARK    4  A    between atoms: O_18  and  C_19 
REMARK    5  A    between atoms: C_19  and  C_21 
ROOT
ATOM      1  C   UNL d   1      32.701 -16.267   2.494  0.00  0.00     0.270 C 
ATOM      2  N   UNL d   1      33.033 -15.934   1.059  0.00  0.00    -0.070 N 
ATOM      3  C   UNL d   1      32.502 -14.573   0.625  0.00  0.00     0.239 C 
ATOM      4  C   UNL d   1      30.984 -14.524   0.803  0.00  0.00     0.068 C 
ATOM      5  C   UNL d   1      30.322 -15.735   0.220  0.00  0.00    -0.024 A 
ATOM      6  C   UNL d   1      31.047 -16.878  -0.098  0.00  0.00     0.018 A 
ATOM      7  S   UNL d   1      30.049 -18.111  -0.727  0.00  0.00    -0.074 SA
ATOM      8  C   UNL d   1      28.664 -17.125  -0.615  0.00  0.00     0.087 A 
ATOM      9  C   UNL d   1      28.930 -15.893  -0.061  0.00  0.00     0.057 A 
ATOM     10  C   UNL d   1      27.809 -14.989   0.113  0.00  0.00     0.173 C 
ATOM     11  N   UNL d   1      26.671 -15.157  -0.440  0.00  0.00    -0.235 NA
ATOM     12  C   UNL d   1      26.482 -16.361  -1.260  0.00  0.00     0.243 C 
ATOM     13  N   UNL d   1      27.414 -17.456  -0.992  0.00  0.00    -0.357 N 
ATOM     14  C   UNL d   1      32.531 -17.023   0.097  0.00  0.00     0.281 C 
ATOM     15  H   UNL d   1      34.059 -15.901   0.984  0.00  0.00     0.279 HD
ATOM     16  H   UNL d   1      27.104 -18.395  -1.223  0.00  0.00     0.162 HD
ENDROOT
BRANCH  12  17
ATOM     17  C   UNL d   1      25.054 -16.834  -1.046  0.00  0.00    -0.014 A 
ATOM     18  C   UNL d   1      24.659 -18.184  -1.007  0.00  0.00     0.014 A 
ATOM     19  C   UNL d   1      23.288 -18.532  -0.977  0.00  0.00     0.038 A 
ATOM     20  C   UNL d   1      22.313 -17.526  -0.923  0.00  0.00     0.079 A 
ATOM     21  C   UNL d   1      22.721 -16.197  -0.975  0.00  0.00     0.038 A 
ATOM     22  C   UNL d   1      24.061 -15.856  -1.029  0.00  0.00     0.014 A 
BRANCH  20  23
ATOM     23  O   UNL d   1      20.943 -17.897  -0.783  0.00  0.00    -0.275 OA
BRANCH  23  24
ATOM     24  C   UNL d   1      20.516 -19.198  -1.043  0.00  0.00     0.298 C 
ATOM     25  O   UNL d   1      20.577 -19.826  -2.103  0.00  0.00    -0.259 OA
BRANCH  24  26
ATOM     26  C   UNL d   1      19.914 -19.883   0.104  0.00  0.00     0.039 A 
ATOM     27  C   UNL d   1      18.730 -20.607  -0.121  0.00  0.00     0.017 A 
ATOM     28  C   UNL d   1      17.965 -21.053   0.953  0.00  0.00     0.001 A 
ATOM     29  C   UNL d   1      18.412 -20.827   2.254  0.00  0.00     0.000 A 
ATOM     30  C   UNL d   1      19.592 -20.110   2.479  0.00  0.00     0.001 A 
ATOM     31  C   UNL d   1      20.341 -19.623   1.406  0.00  0.00     0.017 A 
ENDBRANCH  24  26
ENDBRANCH  23  24
ENDBRANCH  20  23
ENDBRANCH  12  17
BRANCH  10  32
ATOM     32  O   UNL d   1      27.968 -13.904   0.901  0.00  0.00    -0.344 OA
ATOM     33  H   UNL d   1      28.699 -13.960   1.520  0.00  0.00     0.219 HD
ENDBRANCH  10  32
TORSDOF 5
ENDMDL
MODEL 3
REMARK VINA RESULT:    -8.389      7.091      9.569
REMARK INTER + INTRA:         -10.679
REMARK INTER:                  -9.881
REMARK INTRA:                  -0.798
REMARK CONF_INDEPENDENT:        1.492
REMARK UNBOUND:                -0.798
REMARK  5 active torsions:
REMARK  status: ('A' for Active; 'I' for Inactive)
REMARK    1  A    between atoms: C_10  and  O_11 
REMARK    2  A    between atoms: C_13  and  C_14 
REMARK    3  A    between atoms: C_17  and  O_18 
REMARK    4  A    between atoms: O_18  and  C_19 
REMARK    5  A    between atoms: C_19  and  C_21 
ROOT
ATOM      1  C   UNL d   1      32.473 -13.395   8.888  0.00  0.00     0.270 C 
ATOM      2  N   UNL d   1      31.376 -12.460   9.338  0.00  0.00    -0.070 N 
ATOM      3  C   UNL d   1      30.066 -13.179   9.638  0.00  0.00     0.239 C 
ATOM      4  C   UNL d   1      29.590 -13.936   8.398  0.00  0.00     0.068 C 
ATOM      5  C   UNL d   1      29.632 -13.072   7.175  0.00  0.00    -0.024 A 
ATOM      6  C   UNL d   1      30.348 -11.881   7.151  0.00  0.00     0.018 A 
ATOM      7  S   UNL d   1      30.242 -11.105   5.635  0.00  0.00    -0.074 SA
ATOM      8  C   UNL d   1      29.220 -12.322   5.020  0.00  0.00     0.087 A 
ATOM      9  C   UNL d   1      28.996 -13.336   5.924  0.00  0.00     0.057 A 
ATOM     10  C   UNL d   1      28.166 -14.442   5.485  0.00  0.00     0.173 C 
ATOM     11  N   UNL d   1      27.438 -14.409   4.438  0.00  0.00    -0.235 NA
ATOM     12  C   UNL d   1      27.484 -13.196   3.612  0.00  0.00     0.243 C 
ATOM     13  N   UNL d   1      28.671 -12.359   3.791  0.00  0.00    -0.357 N 
ATOM     14  C   UNL d   1      31.135 -11.340   8.313  0.00  0.00     0.281 C 
ATOM     15  H   UNL d   1      31.691 -12.019  10.212  0.00  0.00     0.279 HD
ATOM     16  H   UNL d   1      28.938 -11.762   3.014  0.00  0.00     0.162 HD
ENDROOT
BRANCH  12  17
ATOM     17  C   UNL d   1      27.374 -13.631   2.161  0.00  0.00    -0.014 A 
ATOM     18  C   UNL d   1      26.754 -12.878   1.146  0.00  0.00     0.014 A 
ATOM     19  C   UNL d   1      26.545 -13.434  -0.138  0.00  0.00     0.038 A 
ATOM     20  C   UNL d   1      27.012 -14.724  -0.425  0.00  0.00     0.079 A 
ATOM     21  C   UNL d   1      27.611 -15.460   0.593  0.00  0.00     0.038 A 
ATOM     22  C   UNL d   1      27.795 -14.925   1.857  0.00  0.00     0.014 A 
BRANCH  20  23
ATOM     23  O   UNL d   1      26.889 -15.225  -1.755  0.00  0.00    -0.275 OA
BRANCH  23  24
ATOM     24  C   UNL d   1      25.655 -15.624  -2.264  0.00  0.00     0.298 C 
ATOM     25  O   UNL d   1      25.155 -15.354  -3.359  0.00  0.00    -0.259 OA
BRANCH  24  26
ATOM     26  C   UNL d   1      24.865 -16.465  -1.360  0.00  0.00     0.039 A 
ATOM     27  C   UNL d   1      25.503 -17.581  -0.789  0.00  0.00     0.017 A 
ATOM     28  C   UNL d   1      24.755 -18.563  -0.145  0.00  0.00     0.001 A 
ATOM     29  C   UNL d   1      23.376 -18.403  -0.021  0.00  0.00     0.000 A 
ATOM     30  C   UNL d   1      22.741 -17.293  -0.585  0.00  0.00     0.001 A 
ATOM     31  C   UNL d   1      23.481 -16.325  -1.270  0.00  0.00     0.017 A 
ENDBRANCH  24  26
ENDBRANCH  23  24
ENDBRANCH  20  23
ENDBRANCH  12  17
BRANCH  10  32
ATOM     32  O   UNL d   1      28.155 -15.575   6.220  0.00  0.00    -0.344 OA
ATOM     33  H   UNL d   1      29.016 -15.854   6.540  0.00  0.00     0.219 HD
ENDBRANCH  10  32
TORSDOF 5
ENDMDL
MODEL 4
REMARK VINA RESULT:    -8.280      1.941      2.148
REMARK INTER + INTRA:         -10.396
REMARK INTER:                  -9.772
REMARK INTRA:                  -0.624
REMARK CONF_INDEPENDENT:        1.492
REMARK UNBOUND:                -0.624
REMARK  5 active torsions:
REMARK  status: ('A' for Active; 'I' for Inactive)
REMARK    1  A    between atoms: C_10  and  O_11 
REMARK    2  A    between atoms: C_13  and  C_14 
REMARK    3  A    between atoms: C_17  and  O_18 
REMARK    4  A    between atoms: O_18  and  C_19 
REMARK    5  A    between atoms: C_19  and  C_21 
ROOT
ATOM      1  C   UNL d   1      29.381  -8.793  -3.374  0.00  0.00     0.270 C 
ATOM      2  N   UNL d   1      30.431  -9.760  -3.868  0.00  0.00    -0.070 N 
ATOM      3  C   UNL d   1      30.018 -10.490  -5.140  0.00  0.00     0.239 C 
ATOM      4  C   UNL d   1      28.715 -11.255  -4.904  0.00  0.00     0.068 C 
ATOM      5  C   UNL d   1      28.770 -12.059  -3.641  0.00  0.00    -0.024 A 
ATOM      6  C   UNL d   1      29.741 -11.827  -2.674  0.00  0.00     0.018 A 
ATOM      7  S   UNL d   1      29.565 -12.868  -1.333  0.00  0.00    -0.074 SA
ATOM      8  C   UNL d   1      28.230 -13.652  -2.045  0.00  0.00     0.087 A 
ATOM      9  C   UNL d   1      27.878 -13.108  -3.260  0.00  0.00     0.057 A 
ATOM     10  C   UNL d   1      26.728 -13.680  -3.934  0.00  0.00     0.173 C 
ATOM     11  N   UNL d   1      26.198 -14.793  -3.607  0.00  0.00    -0.235 NA
ATOM     12  C   UNL d   1      26.762 -15.507  -2.454  0.00  0.00     0.243 C 
ATOM     13  N   UNL d   1      27.538 -14.684  -1.525  0.00  0.00    -0.357 N 
ATOM     14  C   UNL d   1      30.813 -10.779  -2.782  0.00  0.00     0.281 C 
ATOM     15  H   UNL d   1      31.271  -9.210  -4.088  0.00  0.00     0.279 HD
ATOM     16  H   UNL d   1      27.609 -15.009  -0.566  0.00  0.00     0.162 HD
ENDROOT
BRANCH  12  17
ATOM     17  C   UNL d   1      25.607 -16.165  -1.719  0.00  0.00    -0.014 A 
ATOM     18  C   UNL d   1      25.672 -17.426  -1.097  0.00  0.00     0.014 A 
ATOM     19  C   UNL d   1      24.502 -18.037  -0.586  0.00  0.00     0.038 A 
ATOM     20  C   UNL d   1      23.278 -17.357  -0.641  0.00  0.00     0.079 A 
ATOM     21  C   UNL d   1      23.230 -16.118  -1.270  0.00  0.00     0.038 A 
ATOM     22  C   UNL d   1      24.369 -15.529  -1.792  0.00  0.00     0.014 A 
BRANCH  20  23
ATOM     23  O   UNL d   1      22.133 -17.943  -0.023  0.00  0.00    -0.275 OA
BRANCH  23  24
ATOM     24  C   UNL d   1      21.363 -18.896  -0.687  0.00  0.00     0.298 C 
ATOM     25  O   UNL d   1      21.497 -19.325  -1.835  0.00  0.00    -0.259 OA
BRANCH  24  26
ATOM     26  C   UNL d   1      20.250 -19.435   0.101  0.00  0.00     0.039 A 
ATOM     27  C   UNL d   1      20.426 -19.531   1.492  0.00  0.00     0.017 A 
ATOM     28  C   UNL d   1      19.534 -20.271   2.263  0.00  0.00     0.001 A 
ATOM     29  C   UNL d   1      18.433 -20.869   1.653  0.00  0.00     0.000 A 
ATOM     30  C   UNL d   1      18.255 -20.772   0.270  0.00  0.00     0.001 A 
ATOM     31  C   UNL d   1      19.170 -20.066  -0.515  0.00  0.00     0.017 A 
ENDBRANCH  24  26
ENDBRANCH  23  24
ENDBRANCH  20  23
ENDBRANCH  12  17
BRANCH  10  32
ATOM     32  O   UNL d   1      26.180 -13.005  -4.968  0.00  0.00    -0.344 OA
ATOM     33  H   UNL d   1      25.223 -13.057  -5.019  0.00  0.00     0.219 HD
ENDBRANCH  10  32
TORSDOF 5
ENDMDL
MODEL 5
REMARK VINA RESULT:    -7.965      3.379      3.933
REMARK INTER + INTRA:          -9.932
REMARK INTER:                  -9.457
REMARK INTRA:                  -0.475
REMARK CONF_INDEPENDENT:        1.492
REMARK UNBOUND:                -0.475
REMARK  5 active torsions:
REMARK  status: ('A' for Active; 'I' for Inactive)
REMARK    1  A    between atoms: C_10  and  O_11 
REMARK    2  A    between atoms: C_13  and  C_14 
REMARK    3  A    between atoms: C_17  and  O_18 
REMARK    4  A    between atoms: O_18  and  C_19 
REMARK    5  A    between atoms: C_19  and  C_21 
ROOT
ATOM      1  C   UNL d   1      33.024 -12.108  -0.874  0.00  0.00     0.270 C 
ATOM      2  N   UNL d   1      33.080 -12.541  -2.319  0.00  0.00    -0.070 N 
ATOM      3  C   UNL d   1      32.028 -11.860  -3.187  0.00  0.00     0.239 C 
ATOM      4  C   UNL d   1      30.631 -12.152  -2.639  0.00  0.00     0.068 C 
ATOM      5  C   UNL d   1      30.444 -13.611  -2.356  0.00  0.00    -0.024 A 
ATOM      6  C   UNL d   1      31.526 -14.479  -2.273  0.00  0.00     0.018 A 
ATOM      7  S   UNL d   1      31.036 -16.077  -1.924  0.00  0.00    -0.074 SA
ATOM      8  C   UNL d   1      29.391 -15.631  -1.919  0.00  0.00     0.087 A 
ATOM      9  C   UNL d   1      29.204 -14.282  -2.126  0.00  0.00     0.057 A 
ATOM     10  C   UNL d   1      27.839 -13.792  -2.104  0.00  0.00     0.173 C 
ATOM     11  N   UNL d   1      26.814 -14.549  -2.165  0.00  0.00    -0.235 NA
ATOM     12  C   UNL d   1      27.038 -16.000  -2.214  0.00  0.00     0.243 C 
ATOM     13  N   UNL d   1      28.341 -16.451  -1.724  0.00  0.00    -0.357 N 
ATOM     14  C   UNL d   1      32.961 -14.068  -2.455  0.00  0.00     0.281 C 
ATOM     15  H   UNL d   1      34.002 -12.267  -2.683  0.00  0.00     0.279 HD
ATOM     16  H   UNL d   1      28.401 -17.403  -1.379  0.00  0.00     0.162 HD
ENDROOT
BRANCH  12  17
ATOM     17  C   UNL d   1      25.929 -16.657  -1.411  0.00  0.00    -0.014 A 
ATOM     18  C   UNL d   1      26.138 -17.511  -0.312  0.00  0.00     0.014 A 
ATOM     19  C   UNL d   1      25.057 -18.216   0.268  0.00  0.00     0.038 A 
ATOM     20  C   UNL d   1      23.756 -18.017  -0.212  0.00  0.00     0.079 A 
ATOM     21  C   UNL d   1      23.568 -17.180  -1.307  0.00  0.00     0.038 A 
ATOM     22  C   UNL d   1      24.629 -16.508  -1.892  0.00  0.00     0.014 A 
BRANCH  20  23
ATOM     23  O   UNL d   1      22.667 -18.652   0.456  0.00  0.00    -0.275 OA
BRANCH  23  24
ATOM     24  C   UNL d   1      21.368 -18.572  -0.044  0.00  0.00     0.298 C 
ATOM     25  O   UNL d   1      20.924 -17.808  -0.905  0.00  0.00    -0.259 OA
BRANCH  24  26
ATOM     26  C   UNL d   1      20.426 -19.524   0.553  0.00  0.00     0.039 A 
ATOM     27  C   UNL d   1      19.488 -20.130  -0.301  0.00  0.00     0.017 A 
ATOM     28  C   UNL d   1      18.405 -20.826   0.229  0.00  0.00     0.001 A 
ATOM     29  C   UNL d   1      18.289 -20.968   1.610  0.00  0.00     0.000 A 
ATOM     30  C   UNL d   1      19.224 -20.368   2.461  0.00  0.00     0.001 A 
ATOM     31  C   UNL d   1      20.289 -19.632   1.936  0.00  0.00     0.017 A 
ENDBRANCH  24  26
ENDBRANCH  23  24
ENDBRANCH  20  23
ENDBRANCH  12  17
BRANCH  10  32
ATOM     32  O   UNL d   1      27.630 -12.461  -2.014  0.00  0.00    -0.344 OA
ATOM     33  H   UNL d   1      27.805 -12.084  -1.149  0.00  0.00     0.219 HD
ENDBRANCH  10  32
TORSDOF 5
ENDMDL
MODEL 6
REMARK VINA RESULT:    -7.791      6.660     10.192
REMARK INTER + INTRA:          -9.950
REMARK INTER:                  -9.283
REMARK INTRA:                  -0.667
REMARK CONF_INDEPENDENT:        1.492
REMARK UNBOUND:                -0.667
REMARK  5 active torsions:
REMARK  status: ('A' for Active; 'I' for Inactive)
REMARK    1  A    between atoms: C_10  and  O_11 
REMARK    2  A    between atoms: C_13  and  C_14 
REMARK    3  A    between atoms: C_17  and  O_18 
REMARK    4  A    between atoms: O_18  and  C_19 
REMARK    5  A    between atoms: C_19  and  C_21 
ROOT
ATOM      1  C   UNL d   1      28.184 -12.699   9.452  0.00  0.00     0.270 C 
ATOM      2  N   UNL d   1      29.588 -12.340   9.027  0.00  0.00    -0.070 N 
ATOM      3  C   UNL d   1      29.657 -11.040   8.235  0.00  0.00     0.239 C 
ATOM      4  C   UNL d   1      28.776 -11.141   6.989  0.00  0.00     0.068 C 
ATOM      5  C   UNL d   1      29.026 -12.414   6.239  0.00  0.00    -0.024 A 
ATOM      6  C   UNL d   1      29.700 -13.480   6.822  0.00  0.00     0.018 A 
ATOM      7  S   UNL d   1      29.832 -14.808   5.758  0.00  0.00    -0.074 SA
ATOM      8  C   UNL d   1      29.032 -13.963   4.514  0.00  0.00     0.087 A 
ATOM      9  C   UNL d   1      28.618 -12.709   4.902  0.00  0.00     0.057 A 
ATOM     10  C   UNL d   1      27.892 -11.919   3.925  0.00  0.00     0.173 C 
ATOM     11  N   UNL d   1      27.843 -12.201   2.682  0.00  0.00    -0.235 NA
ATOM     12  C   UNL d   1      28.526 -13.420   2.231  0.00  0.00     0.243 C 
ATOM     13  N   UNL d   1      28.782 -14.417   3.271  0.00  0.00    -0.357 N 
ATOM     14  C   UNL d   1      30.241 -13.477   8.225  0.00  0.00     0.281 C 
ATOM     15  H   UNL d   1      30.140 -12.207   9.885  0.00  0.00     0.279 HD
ATOM     16  H   UNL d   1      28.879 -15.383   2.973  0.00  0.00     0.162 HD
ENDROOT
BRANCH  12  17
ATOM     17  C   UNL d   1      27.680 -14.031   1.127  0.00  0.00    -0.014 A 
ATOM     18  C   UNL d   1      27.318 -15.390   1.059  0.00  0.00     0.014 A 
ATOM     19  C   UNL d   1      26.676 -15.906  -0.092  0.00  0.00     0.038 A 
ATOM     20  C   UNL d   1      26.339 -15.048  -1.148  0.00  0.00     0.079 A 
ATOM     21  C   UNL d   1      26.716 -13.711  -1.069  0.00  0.00     0.038 A 
ATOM     22  C   UNL d   1      27.366 -13.210   0.046  0.00  0.00     0.014 A 
BRANCH  20  23
ATOM     23  O   UNL d   1      25.596 -15.566  -2.250  0.00  0.00    -0.275 OA
BRANCH  23  24
ATOM     24  C   UNL d   1      25.171 -14.738  -3.287  0.00  0.00     0.298 C 
ATOM     25  O   UNL d   1      24.022 -14.389  -3.567  0.00  0.00    -0.259 OA
BRANCH  24  26
ATOM     26  C   UNL d   1      26.248 -14.238  -4.147  0.00  0.00     0.039 A 
ATOM     27  C   UNL d   1      26.200 -12.884  -4.524  0.00  0.00     0.017 A 
ATOM     28  C   UNL d   1      27.024 -12.410  -5.541  0.00  0.00     0.001 A 
ATOM     29  C   UNL d   1      27.937 -13.274  -6.143  0.00  0.00     0.000 A 
ATOM     30  C   UNL d   1      27.988 -14.620  -5.767  0.00  0.00     0.001 A 
ATOM     31  C   UNL d   1      27.134 -15.111  -4.776  0.00  0.00     0.017 A 
ENDBRANCH  24  26
ENDBRANCH  23  24
ENDBRANCH  20  23
ENDBRANCH  12  17
BRANCH  10  32
ATOM     32  O   UNL d   1      27.228 -10.820   4.345  0.00  0.00    -0.344 OA
ATOM     33  H   UNL d   1      26.955 -10.843   5.265  0.00  0.00     0.219 HD
ENDBRANCH  10  32
TORSDOF 5
ENDMDL
MODEL 7
REMARK VINA RESULT:    -7.782      3.786      5.594
REMARK INTER + INTRA:          -9.980
REMARK INTER:                  -9.274
REMARK INTRA:                  -0.706
REMARK CONF_INDEPENDENT:        1.492
REMARK UNBOUND:                -0.706
REMARK  5 active torsions:
REMARK  status: ('A' for Active; 'I' for Inactive)
REMARK    1  A    between atoms: C_10  and  O_11 
REMARK    2  A    between atoms: C_13  and  C_14 
REMARK    3  A    between atoms: C_17  and  O_18 
REMARK    4  A    between atoms: O_18  and  C_19 
REMARK    5  A    between atoms: C_19  and  C_21 
ROOT
ATOM      1  C   UNL d   1      34.715 -12.925  -8.091  0.00  0.00     0.270 C 
ATOM      2  N   UNL d   1      34.055 -13.550  -9.296  0.00  0.00    -0.070 N 
ATOM      3  C   UNL d   1      32.934 -12.694  -9.873  0.00  0.00     0.239 C 
ATOM      4  C   UNL d   1      31.870 -12.439  -8.805  0.00  0.00     0.068 C 
ATOM      5  C   UNL d   1      31.474 -13.704  -8.108  0.00  0.00    -0.024 A 
ATOM      6  C   UNL d   1      32.248 -14.855  -8.197  0.00  0.00     0.018 A 
ATOM      7  S   UNL d   1      31.581 -16.143  -7.297  0.00  0.00    -0.074 SA
ATOM      8  C   UNL d   1      30.250 -15.193  -6.818  0.00  0.00     0.087 A 
ATOM      9  C   UNL d   1      30.324 -13.899  -7.284  0.00  0.00     0.057 A 
ATOM     10  C   UNL d   1      29.255 -12.996  -6.901  0.00  0.00     0.173 C 
ATOM     11  N   UNL d   1      28.150 -13.381  -6.393  0.00  0.00    -0.235 NA
ATOM     12  C   UNL d   1      27.977 -14.818  -6.144  0.00  0.00     0.243 C 
ATOM     13  N   UNL d   1      29.215 -15.593  -6.055  0.00  0.00    -0.357 N 
ATOM     14  C   UNL d   1      33.527 -14.960  -8.981  0.00  0.00     0.281 C 
ATOM     15  H   UNL d   1      34.776 -13.643 -10.024  0.00  0.00     0.279 HD
ATOM     16  H   UNL d   1      29.184 -16.456  -5.521  0.00  0.00     0.162 HD
ENDROOT
BRANCH  12  17
ATOM     17  C   UNL d   1      27.185 -14.963  -4.856  0.00  0.00    -0.014 A 
ATOM     18  C   UNL d   1      25.896 -14.437  -4.649  0.00  0.00     0.014 A 
ATOM     19  C   UNL d   1      25.304 -14.470  -3.364  0.00  0.00     0.038 A 
ATOM     20  C   UNL d   1      25.977 -15.084  -2.300  0.00  0.00     0.079 A 
ATOM     21  C   UNL d   1      27.255 -15.587  -2.519  0.00  0.00     0.038 A 
ATOM     22  C   UNL d   1      27.846 -15.535  -3.770  0.00  0.00     0.014 A 
BRANCH  20  23
ATOM     23  O   UNL d   1      25.318 -15.203  -1.040  0.00  0.00    -0.275 OA
BRANCH  23  24
ATOM     24  C   UNL d   1      25.365 -16.389  -0.310  0.00  0.00     0.298 C 
ATOM     25  O   UNL d   1      26.306 -16.852   0.340  0.00  0.00    -0.259 OA
BRANCH  24  26
ATOM     26  C   UNL d   1      24.127 -17.174  -0.342  0.00  0.00     0.039 A 
ATOM     27  C   UNL d   1      24.247 -18.575  -0.322  0.00  0.00     0.017 A 
ATOM     28  C   UNL d   1      23.148 -19.377  -0.617  0.00  0.00     0.001 A 
ATOM     29  C   UNL d   1      21.915 -18.783  -0.878  0.00  0.00     0.000 A 
ATOM     30  C   UNL d   1      21.794 -17.390  -0.895  0.00  0.00     0.001 A 
ATOM     31  C   UNL d   1      22.903 -16.578  -0.641  0.00  0.00     0.017 A 
ENDBRANCH  24  26
ENDBRANCH  23  24
ENDBRANCH  20  23
ENDBRANCH  12  17
BRANCH  10  32
ATOM     32  O   UNL d   1      29.429 -11.670  -7.090  0.00  0.00    -0.344 OA
ATOM     33  H   UNL d   1      30.178 -11.292  -6.623  0.00  0.00     0.219 HD
ENDBRANCH  10  32
TORSDOF 5
ENDMDL
MODEL 8
REMARK VINA RESULT:    -7.678      7.250      9.345
REMARK INTER + INTRA:          -9.980
REMARK INTER:                  -9.169
REMARK INTRA:                  -0.811
REMARK CONF_INDEPENDENT:        1.492
REMARK UNBOUND:                -0.811
REMARK  5 active torsions:
REMARK  status: ('A' for Active; 'I' for Inactive)
REMARK    1  A    between atoms: C_10  and  O_11 
REMARK    2  A    between atoms: C_13  and  C_14 
REMARK    3  A    between atoms: C_17  and  O_18 
REMARK    4  A    between atoms: O_18  and  C_19 
REMARK    5  A    between atoms: C_19  and  C_21 
ROOT
ATOM      1  C   UNL d   1      30.703  -9.482   8.313  0.00  0.00     0.270 C 
ATOM      2  N   UNL d   1      30.760 -10.833   8.985  0.00  0.00    -0.070 N 
ATOM      3  C   UNL d   1      31.882 -11.716   8.453  0.00  0.00     0.239 C 
ATOM      4  C   UNL d   1      31.715 -11.922   6.947  0.00  0.00     0.068 C 
ATOM      5  C   UNL d   1      30.312 -12.312   6.596  0.00  0.00    -0.024 A 
ATOM      6  C   UNL d   1      29.265 -12.144   7.495  0.00  0.00     0.018 A 
ATOM      7  S   UNL d   1      27.774 -12.652   6.839  0.00  0.00    -0.074 SA
ATOM      8  C   UNL d   1      28.515 -13.130   5.380  0.00  0.00     0.087 A 
ATOM      9  C   UNL d   1      29.866 -12.865   5.357  0.00  0.00     0.057 A 
ATOM     10  C   UNL d   1      30.586 -13.201   4.143  0.00  0.00     0.173 C 
ATOM     11  N   UNL d   1      30.111 -13.945   3.222  0.00  0.00    -0.235 NA
ATOM     12  C   UNL d   1      28.741 -14.448   3.387  0.00  0.00     0.243 C 
ATOM     13  N   UNL d   1      27.904 -13.694   4.321  0.00  0.00    -0.357 N 
ATOM     14  C   UNL d   1      29.417 -11.572   8.878  0.00  0.00     0.281 C 
ATOM     15  H   UNL d   1      30.946 -10.668   9.983  0.00  0.00     0.279 HD
ATOM     16  H   UNL d   1      26.899 -13.742   4.184  0.00  0.00     0.162 HD
ENDROOT
BRANCH  12  17
ATOM     17  C   UNL d   1      28.096 -14.465   2.013  0.00  0.00    -0.014 A 
ATOM     18  C   UNL d   1      28.653 -15.080   0.876  0.00  0.00     0.014 A 
ATOM     19  C   UNL d   1      28.068 -14.898  -0.400  0.00  0.00     0.038 A 
ATOM     20  C   UNL d   1      26.889 -14.152  -0.528  0.00  0.00     0.079 A 
ATOM     21  C   UNL d   1      26.359 -13.540   0.603  0.00  0.00     0.038 A 
ATOM     22  C   UNL d   1      26.943 -13.697   1.849  0.00  0.00     0.014 A 
BRANCH  20  23
ATOM     23  O   UNL d   1      26.256 -14.072  -1.804  0.00  0.00    -0.275 OA
BRANCH  23  24
ATOM     24  C   UNL d   1      25.638 -15.182  -2.374  0.00  0.00     0.298 C 
ATOM     25  O   UNL d   1      25.538 -15.475  -3.569  0.00  0.00    -0.259 OA
BRANCH  24  26
ATOM     26  C   UNL d   1      25.026 -16.102  -1.410  0.00  0.00     0.039 A 
ATOM     27  C   UNL d   1      25.852 -17.086  -0.838  0.00  0.00     0.017 A 
ATOM     28  C   UNL d   1      25.293 -18.147  -0.132  0.00  0.00     0.001 A 
ATOM     29  C   UNL d   1      23.913 -18.196   0.054  0.00  0.00     0.000 A 
ATOM     30  C   UNL d   1      23.090 -17.216  -0.511  0.00  0.00     0.001 A 
ATOM     31  C   UNL d   1      23.642 -16.171  -1.257  0.00  0.00     0.017 A 
ENDBRANCH  24  26
ENDBRANCH  23  24
ENDBRANCH  20  23
ENDBRANCH  12  17
BRANCH  10  32
ATOM     32  O   UNL d   1      31.829 -12.705   3.969  0.00  0.00    -0.344 OA
ATOM     33  H   UNL d   1      32.538 -13.331   4.133  0.00  0.00     0.219 HD
ENDBRANCH  10  32
TORSDOF 5
ENDMDL
