MODEL 1
REMARK VINA RESULT:   -29.753      0.000      0.000
REMARK INTER + INTRA:         -34.581
REMARK INTER:                 -32.140
REMARK INTRA:                  -2.441
REMARK CONF_INDEPENDENT:        2.386
REMARK UNBOUND:                -2.441
REMARK  8 active torsions:
REMARK  status: ('A' for Active; 'I' for Inactive)
REMARK    1  A    between atoms: N_1  and  N_2 
REMARK       I    between atoms: N_2  and  C_3 
REMARK    2  A    between atoms: C_3  and  C_5 
REMARK    3  A    between atoms: C_5  and  N_6 
REMARK    4  A    between atoms: C_7  and  N_6 
REMARK    5  A    between atoms: C_7  and  C_14 
REMARK    6  A    between atoms: C_7  and  C_8 
REMARK    7  A    between atoms: C_20  and  N_21 
REMARK       I    between atoms: N_21  and  C_22 
REMARK    8  A    between atoms: C_22  and  C_24 
ROOT
ATOM      1  C   UNL d   1      26.578 -15.583  -0.645  0.00  0.00     0.007 A 
ATOM      2  C   UNL d   1      26.371 -14.893   0.595  0.00  0.00     0.031 A 
ATOM      3  C   UNL d   1      27.438 -14.492   1.386  0.00  0.00     0.011 A 
ATOM      4 BR   UNL d   1      27.156 -13.326   2.849  0.00  0.00    -0.051 Br
ATOM      5  C   UNL d   1      28.724 -14.870   1.039  0.00  0.00     0.021 A 
ATOM      6  C   UNL d   1      28.946 -15.596  -0.143  0.00  0.00     0.031 A 
ATOM      7  C   UNL d   1      27.903 -15.944  -1.025  0.00  0.00     0.043 A 
ENDROOT
BRANCH   1   8
ATOM      8  C   UNL d   1      25.320 -15.655  -1.528  0.00  0.00     0.289 C 
BRANCH   8   9
ATOM      9  C   UNL d   1      25.638 -14.978  -2.885  0.00  0.00    -0.021 A 
ATOM     10  C   UNL d   1      25.687 -13.570  -3.100  0.00  0.00     0.009 A 
ATOM     11  C   UNL d   1      26.068 -12.992  -4.300  0.00  0.00     0.001 A 
ATOM     12  C   UNL d   1      26.287 -13.822  -5.377  0.00  0.00     0.000 A 
ATOM     13  C   UNL d   1      26.145 -15.205  -5.232  0.00  0.00     0.001 A 
ATOM     14  C   UNL d   1      25.852 -15.784  -3.996  0.00  0.00     0.009 A 
ENDBRANCH   8   9
BRANCH   8  15
ATOM     15  N   UNL d   1      24.589 -16.957  -1.461  0.00  0.00     0.105 N 
ATOM     16  H   UNL d   1      24.353 -17.196  -2.418  0.00  0.00     0.317 HD
BRANCH  15  17
ATOM     17  C   UNL d   1      23.342 -16.944  -0.652  0.00  0.00     0.374 C 
BRANCH  17  18
ATOM     18  C   UNL d   1      22.338 -18.097  -0.984  0.00  0.00     0.259 C 
ATOM     19  N   UNL d   1      20.994 -17.654  -1.019  0.00  0.00    -0.292 N 
ATOM     20  H   UNL d   1      20.791 -16.661  -0.924  0.00  0.00     0.183 HD
ATOM     21  O   UNL d   1      22.659 -19.258  -1.234  0.00  0.00    -0.270 OA
BRANCH  19  22
ATOM     22  N   UNL d   1      19.905 -18.575  -1.061  0.00  0.00    -0.247 NA
ATOM     23  H   UNL d   1      19.126 -18.207  -1.615  0.00  0.00     0.143 HD
ATOM     24  H   UNL d   1      20.221 -19.440  -1.520  0.00  0.00     0.143 HD
ENDBRANCH  19  22
ENDBRANCH  17  18
ENDBRANCH  15  17
ENDBRANCH   8  15
ENDBRANCH   1   8
BRANCH   7  25
ATOM     25  N   UNL d   1      28.330 -16.638  -2.217  0.00  0.00    -0.322 N 
ATOM     26  C   UNL d   1      29.457 -16.404  -2.965  0.00  0.00     0.257 C 
ATOM     27  O   UNL d   1      30.406 -15.737  -2.572  0.00  0.00    -0.267 OA
ATOM     28  H   UNL d   1      27.834 -17.495  -2.436  0.00  0.00     0.169 HD
BRANCH  26  29
ATOM     29  C   UNL d   1      29.742 -16.824  -4.330  0.00  0.00     0.054 A 
ATOM     30  C   UNL d   1      30.190 -18.182  -4.446  0.00  0.00     0.019 A 
ATOM     31  C   UNL d   1      30.720 -18.685  -5.616  0.00  0.00     0.001 A 
ATOM     32  C   UNL d   1      30.779 -17.845  -6.708  0.00  0.00     0.002 A 
ATOM     33  C   UNL d   1      30.373 -16.503  -6.602  0.00  0.00     0.025 A 
ATOM     34  C   UNL d   1      29.876 -15.974  -5.407  0.00  0.00     0.049 A 
ATOM     35 CL   UNL d   1      29.574 -14.281  -5.320  0.00  0.00    -0.083 Cl
ENDBRANCH  26  29
ENDBRANCH   7  25
TORSDOF 8
ENDMDL
MODEL 2
REMARK VINA RESULT:   -29.504      3.442      6.184
REMARK INTER + INTRA:         -34.080
REMARK INTER:                 -31.890
REMARK INTRA:                  -2.190
REMARK CONF_INDEPENDENT:        2.386
REMARK UNBOUND:                -2.190
REMARK  8 active torsions:
REMARK  status: ('A' for Active; 'I' for Inactive)
REMARK    1  A    between atoms: N_1  and  N_2 
REMARK       I    between atoms: N_2  and  C_3 
REMARK    2  A    between atoms: C_3  and  C_5 
REMARK    3  A    between atoms: C_5  and  N_6 
REMARK    4  A    between atoms: C_7  and  N_6 
REMARK    5  A    between atoms: C_7  and  C_14 
REMARK    6  A    between atoms: C_7  and  C_8 
REMARK    7  A    between atoms: C_20  and  N_21 
REMARK       I    between atoms: N_21  and  C_22 
REMARK    8  A    between atoms: C_22  and  C_24 
ROOT
ATOM      1  C   UNL d   1      25.665 -14.480  -1.931  0.00  0.00     0.007 A 
ATOM      2  C   UNL d   1      25.441 -13.838  -3.194  0.00  0.00     0.031 A 
ATOM      3  C   UNL d   1      25.966 -12.584  -3.471  0.00  0.00     0.011 A 
ATOM      4 BR   UNL d   1      25.917 -11.896  -5.233  0.00  0.00    -0.051 Br
ATOM      5  C   UNL d   1      26.616 -11.881  -2.471  0.00  0.00     0.021 A 
ATOM      6  C   UNL d   1      26.799 -12.467  -1.207  0.00  0.00     0.031 A 
ATOM      7  C   UNL d   1      26.365 -13.774  -0.910  0.00  0.00     0.043 A 
ENDROOT
BRANCH   1   8
ATOM      8  C   UNL d   1      25.293 -15.972  -1.923  0.00  0.00     0.289 C 
BRANCH   8   9
ATOM      9  C   UNL d   1      26.452 -16.761  -1.264  0.00  0.00    -0.021 A 
ATOM     10  C   UNL d   1      26.292 -17.745  -0.247  0.00  0.00     0.009 A 
ATOM     11  C   UNL d   1      27.337 -18.503   0.255  0.00  0.00     0.001 A 
ATOM     12  C   UNL d   1      28.615 -18.200  -0.161  0.00  0.00     0.000 A 
ATOM     13  C   UNL d   1      28.822 -17.168  -1.081  0.00  0.00     0.001 A 
ATOM     14  C   UNL d   1      27.755 -16.472  -1.651  0.00  0.00     0.009 A 
ENDBRANCH   8   9
BRANCH   8  15
ATOM     15  N   UNL d   1      23.866 -16.253  -1.578  0.00  0.00     0.105 N 
ATOM     16  H   UNL d   1      23.714 -15.851  -0.660  0.00  0.00     0.317 HD
BRANCH  15  17
ATOM     17  C   UNL d   1      23.494 -17.692  -1.533  0.00  0.00     0.374 C 
BRANCH  17  18
ATOM     18  C   UNL d   1      22.230 -18.012  -0.669  0.00  0.00     0.259 C 
ATOM     19  N   UNL d   1      21.195 -18.616  -1.423  0.00  0.00    -0.292 N 
ATOM     20  H   UNL d   1      21.366 -18.871  -2.393  0.00  0.00     0.183 HD
ATOM     21  O   UNL d   1      22.138 -17.812   0.541  0.00  0.00    -0.270 OA
BRANCH  19  22
ATOM     22  N   UNL d   1      19.878 -18.767  -0.895  0.00  0.00    -0.247 NA
ATOM     23  H   UNL d   1      19.812 -18.393   0.056  0.00  0.00     0.143 HD
ATOM     24  H   UNL d   1      19.223 -18.230  -1.479  0.00  0.00     0.143 HD
ENDBRANCH  19  22
ENDBRANCH  17  18
ENDBRANCH  15  17
ENDBRANCH   8  15
ENDBRANCH   1   8
BRANCH   7  25
ATOM     25  N   UNL d   1      26.692 -14.228   0.422  0.00  0.00    -0.322 N 
ATOM     26  C   UNL d   1      27.116 -13.469   1.485  0.00  0.00     0.257 C 
ATOM     27  O   UNL d   1      27.024 -12.250   1.527  0.00  0.00    -0.267 OA
ATOM     28  H   UNL d   1      26.426 -15.180   0.647  0.00  0.00     0.169 HD
BRANCH  26  29
ATOM     29  C   UNL d   1      27.779 -13.910   2.704  0.00  0.00     0.054 A 
ATOM     30  C   UNL d   1      27.035 -13.652   3.904  0.00  0.00     0.019 A 
ATOM     31  C   UNL d   1      27.591 -13.788   5.159  0.00  0.00     0.001 A 
ATOM     32  C   UNL d   1      28.898 -14.222   5.239  0.00  0.00     0.002 A 
ATOM     33  C   UNL d   1      29.650 -14.450   4.073  0.00  0.00     0.025 A 
ATOM     34  C   UNL d   1      29.107 -14.270   2.797  0.00  0.00     0.049 A 
ATOM     35 CL   UNL d   1      30.150 -14.396   1.433  0.00  0.00    -0.083 Cl
ENDBRANCH  26  29
ENDBRANCH   7  25
TORSDOF 8
ENDMDL
