MODEL 1
REMARK VINA RESULT:    -7.721      0.000      0.000
REMARK INTER + INTRA:         -12.489
REMARK INTER:                 -10.704
REMARK INTRA:                  -1.785
REMARK CONF_INDEPENDENT:        2.983
REMARK UNBOUND:                -1.785
REMARK  10 active torsions:
REMARK  status: ('A' for Active; 'I' for Inactive)
REMARK    1  A    between atoms: C_2  and  C_3 
REMARK    2  A    between atoms: C_3  and  C_4 
REMARK    3  A    between atoms: C_4  and  C_5 
REMARK    4  A    between atoms: C_5  and  C_6 
REMARK       I    between atoms: C_6  and  N_8 
REMARK    5  A    between atoms: N_8  and  N_9 
REMARK    6  A    between atoms: N_9  and  C_10 
REMARK    7  A    between atoms: C_10  and  N_12 
REMARK       I    between atoms: N_12  and  C_13 
REMARK    8  A    between atoms: C_13  and  C_15 
REMARK    9  A    between atoms: C_19  and  C_20 
REMARK   10  A    between atoms: C_20  and  O_22 
ROOT
ATOM      1  N   UNL d   1      25.599 -16.239  -1.601  0.00  0.00    -0.298 N 
ATOM      2  C   UNL d   1      24.968 -15.245  -2.385  0.00  0.00     0.257 C 
ATOM      3  O   UNL d   1      23.762 -15.012  -2.392  0.00  0.00    -0.267 OA
ATOM      4  H   UNL d   1      26.606 -16.291  -1.663  0.00  0.00     0.171 HD
ENDROOT
BRANCH   1   5
ATOM      5  C   UNL d   1      24.956 -17.116  -0.691  0.00  0.00     0.193 C 
ATOM      6  S   UNL d   1      25.746 -18.165   0.370  0.00  0.00    -0.039 SA
BRANCH   5   7
ATOM      7  N   UNL d   1      23.551 -17.076  -0.698  0.00  0.00    -0.273 N 
ATOM      8  H   UNL d   1      22.969 -16.255  -0.854  0.00  0.00     0.189 HD
BRANCH   7   9
ATOM      9  N   UNL d   1      22.807 -18.309  -0.489  0.00  0.00    -0.268 N 
ATOM     10  C   UNL d   1      21.460 -18.396  -0.800  0.00  0.00     0.236 C 
ATOM     11  O   UNL d   1      20.846 -17.437  -1.266  0.00  0.00    -0.272 OA
ATOM     12  H   UNL d   1      23.340 -19.088  -0.102  0.00  0.00     0.190 HD
BRANCH  10  13
ATOM     13  C   UNL d   1      20.802 -19.761  -0.520  0.00  0.00     0.104 C 
BRANCH  13  14
ATOM     14  C   UNL d   1      19.278 -19.702  -0.723  0.00  0.00     0.009 C 
BRANCH  14  15
ATOM     15  C   UNL d   1      18.487 -20.394   0.391  0.00  0.00     0.000 C 
BRANCH  15  16
ATOM     16  C   UNL d   1      18.695 -19.689   1.736  0.00  0.00    -0.005 C 
ATOM     17  C   UNL d   1      19.936 -20.208   2.441  0.00  0.00     0.005 C 
ENDBRANCH  15  16
ENDBRANCH  14  15
ENDBRANCH  13  14
ENDBRANCH  10  13
ENDBRANCH   7   9
ENDBRANCH   5   7
ENDBRANCH   1   5
BRANCH   2  18
ATOM     18  C   UNL d   1      25.756 -14.379  -3.316  0.00  0.00     0.033 A 
ATOM     19  C   UNL d   1      25.346 -13.036  -3.470  0.00  0.00     0.017 A 
ATOM     20  C   UNL d   1      25.857 -12.238  -4.498  0.00  0.00     0.002 A 
ATOM     21  C   UNL d   1      26.827 -12.757  -5.352  0.00  0.00     0.017 A 
ATOM     22  C   UNL d   1      27.242 -14.094  -5.222  0.00  0.00     0.040 A 
ATOM     23  C   UNL d   1      26.698 -14.906  -4.203  0.00  0.00     0.034 A 
BRANCH  22  24
ATOM     24  C   UNL d   1      28.215 -14.615  -6.227  0.00  0.00     0.292 C 
ATOM     25  O   UNL d   1      28.564 -13.982  -7.217  0.00  0.00    -0.259 OA
BRANCH  24  26
ATOM     26  O   UNL d   1      28.643 -15.857  -5.895  0.00  0.00    -0.323 OA
ATOM     27  C   UNL d   1      30.059 -16.041  -6.007  0.00  0.00     0.213 C 
ENDBRANCH  24  26
ENDBRANCH  22  24
ENDBRANCH   2  18
TORSDOF 10
ENDMDL
MODEL 2
REMARK VINA RESULT:    -7.580      1.738      2.724
REMARK INTER + INTRA:         -12.340
REMARK INTER:                 -10.563
REMARK INTRA:                  -1.776
REMARK CONF_INDEPENDENT:        2.983
REMARK UNBOUND:                -1.776
REMARK  10 active torsions:
REMARK  status: ('A' for Active; 'I' for Inactive)
REMARK    1  A    between atoms: C_2  and  C_3 
REMARK    2  A    between atoms: C_3  and  C_4 
REMARK    3  A    between atoms: C_4  and  C_5 
REMARK    4  A    between atoms: C_5  and  C_6 
REMARK       I    between atoms: C_6  and  N_8 
REMARK    5  A    between atoms: N_8  and  N_9 
REMARK    6  A    between atoms: N_9  and  C_10 
REMARK    7  A    between atoms: C_10  and  N_12 
REMARK       I    between atoms: N_12  and  C_13 
REMARK    8  A    between atoms: C_13  and  C_15 
REMARK    9  A    between atoms: C_19  and  C_20 
REMARK   10  A    between atoms: C_20  and  O_22 
ROOT
ATOM      1  N   UNL d   1      25.842 -16.474  -1.806  0.00  0.00    -0.298 N 
ATOM      2  C   UNL d   1      25.164 -15.492  -2.567  0.00  0.00     0.257 C 
ATOM      3  O   UNL d   1      23.997 -15.149  -2.396  0.00  0.00    -0.267 OA
ATOM      4  H   UNL d   1      26.815 -16.625  -2.029  0.00  0.00     0.171 HD
ENDROOT
BRANCH   1   5
ATOM      5  C   UNL d   1      25.300 -17.209  -0.722  0.00  0.00     0.193 C 
ATOM      6  S   UNL d   1      26.193 -18.165   0.346  0.00  0.00    -0.039 SA
BRANCH   5   7
ATOM      7  N   UNL d   1      23.909 -17.104  -0.550  0.00  0.00    -0.273 N 
ATOM      8  H   UNL d   1      23.352 -16.254  -0.618  0.00  0.00     0.189 HD
BRANCH   7   9
ATOM      9  N   UNL d   1      23.138 -18.306  -0.268  0.00  0.00    -0.268 N 
ATOM     10  C   UNL d   1      21.781 -18.366  -0.535  0.00  0.00     0.236 C 
ATOM     11  O   UNL d   1      21.179 -17.411  -1.024  0.00  0.00    -0.272 OA
ATOM     12  H   UNL d   1      23.661 -19.082   0.137  0.00  0.00     0.190 HD
BRANCH  10  13
ATOM     13  C   UNL d   1      21.094 -19.700  -0.179  0.00  0.00     0.104 C 
BRANCH  13  14
ATOM     14  C   UNL d   1      19.568 -19.534  -0.069  0.00  0.00     0.009 C 
BRANCH  14  15
ATOM     15  C   UNL d   1      19.068 -19.433   1.375  0.00  0.00     0.000 C 
BRANCH  15  16
ATOM     16  C   UNL d   1      18.782 -20.821   1.959  0.00  0.00    -0.005 C 
ATOM     17  C   UNL d   1      17.996 -21.676   0.980  0.00  0.00     0.005 C 
ENDBRANCH  15  16
ENDBRANCH  14  15
ENDBRANCH  13  14
ENDBRANCH  10  13
ENDBRANCH   7   9
ENDBRANCH   5   7
ENDBRANCH   1   5
BRANCH   2  18
ATOM     18  C   UNL d   1      25.843 -14.783  -3.695  0.00  0.00     0.033 A 
ATOM     19  C   UNL d   1      27.069 -15.309  -4.160  0.00  0.00     0.017 A 
ATOM     20  C   UNL d   1      27.889 -14.576  -5.022  0.00  0.00     0.002 A 
ATOM     21  C   UNL d   1      27.466 -13.329  -5.477  0.00  0.00     0.017 A 
ATOM     22  C   UNL d   1      26.253 -12.783  -5.020  0.00  0.00     0.040 A 
ATOM     23  C   UNL d   1      25.445 -13.513  -4.122  0.00  0.00     0.034 A 
BRANCH  22  24
ATOM     24  C   UNL d   1      25.904 -11.405  -5.472  0.00  0.00     0.292 C 
ATOM     25  O   UNL d   1      25.227 -11.174  -6.468  0.00  0.00    -0.259 OA
BRANCH  24  26
ATOM     26  O   UNL d   1      26.432 -10.470  -4.646  0.00  0.00    -0.323 OA
ATOM     27  C   UNL d   1      25.516  -9.435  -4.266  0.00  0.00     0.213 C 
ENDBRANCH  24  26
ENDBRANCH  22  24
ENDBRANCH   2  18
TORSDOF 10
ENDMDL
MODEL 3
REMARK VINA RESULT:    -7.305      1.563      2.009
REMARK INTER + INTRA:         -11.987
REMARK INTER:                 -10.288
REMARK INTRA:                  -1.699
REMARK CONF_INDEPENDENT:        2.983
REMARK UNBOUND:                -1.699
REMARK  10 active torsions:
REMARK  status: ('A' for Active; 'I' for Inactive)
REMARK    1  A    between atoms: C_2  and  C_3 
REMARK    2  A    between atoms: C_3  and  C_4 
REMARK    3  A    between atoms: C_4  and  C_5 
REMARK    4  A    between atoms: C_5  and  C_6 
REMARK       I    between atoms: C_6  and  N_8 
REMARK    5  A    between atoms: N_8  and  N_9 
REMARK    6  A    between atoms: N_9  and  C_10 
REMARK    7  A    between atoms: C_10  and  N_12 
REMARK       I    between atoms: N_12  and  C_13 
REMARK    8  A    between atoms: C_13  and  C_15 
REMARK    9  A    between atoms: C_19  and  C_20 
REMARK   10  A    between atoms: C_20  and  O_22 
ROOT
ATOM      1  N   UNL d   1      25.498 -17.016  -0.861  0.00  0.00    -0.298 N 
ATOM      2  C   UNL d   1      26.584 -16.364  -1.493  0.00  0.00     0.257 C 
ATOM      3  O   UNL d   1      27.770 -16.575  -1.252  0.00  0.00    -0.267 OA
ATOM      4  H   UNL d   1      24.574 -16.775  -1.189  0.00  0.00     0.171 HD
ENDROOT
BRANCH   1   5
ATOM      5  C   UNL d   1      25.594 -18.020   0.135  0.00  0.00     0.193 C 
ATOM      6  S   UNL d   1      26.978 -18.929   0.470  0.00  0.00    -0.039 SA
BRANCH   5   7
ATOM      7  N   UNL d   1      24.427 -18.245   0.887  0.00  0.00    -0.273 N 
ATOM      8  H   UNL d   1      24.301 -18.055   1.880  0.00  0.00     0.189 HD
BRANCH   7   9
ATOM      9  N   UNL d   1      23.248 -18.778   0.222  0.00  0.00    -0.268 N 
ATOM     10  C   UNL d   1      22.367 -17.949  -0.450  0.00  0.00     0.236 C 
ATOM     11  O   UNL d   1      22.549 -16.734  -0.514  0.00  0.00    -0.272 OA
ATOM     12  H   UNL d   1      23.121 -19.788   0.290  0.00  0.00     0.190 HD
BRANCH  10  13
ATOM     13  C   UNL d   1      21.160 -18.653  -1.101  0.00  0.00     0.104 C 
BRANCH  13  14
ATOM     14  C   UNL d   1      20.651 -19.815  -0.230  0.00  0.00     0.009 C 
BRANCH  14  15
ATOM     15  C   UNL d   1      20.257 -19.388   1.188  0.00  0.00     0.000 C 
BRANCH  15  16
ATOM     16  C   UNL d   1      19.013 -20.144   1.667  0.00  0.00    -0.005 C 
ATOM     17  C   UNL d   1      18.517 -21.111   0.605  0.00  0.00     0.005 C 
ENDBRANCH  15  16
ENDBRANCH  14  15
ENDBRANCH  13  14
ENDBRANCH  10  13
ENDBRANCH   7   9
ENDBRANCH   5   7
ENDBRANCH   1   5
BRANCH   2  18
ATOM     18  C   UNL d   1      26.356 -15.313  -2.532  0.00  0.00     0.033 A 
ATOM     19  C   UNL d   1      25.150 -14.580  -2.472  0.00  0.00     0.017 A 
ATOM     20  C   UNL d   1      24.743 -13.771  -3.537  0.00  0.00     0.002 A 
ATOM     21  C   UNL d   1      25.565 -13.640  -4.653  0.00  0.00     0.017 A 
ATOM     22  C   UNL d   1      26.766 -14.368  -4.737  0.00  0.00     0.040 A 
ATOM     23  C   UNL d   1      27.155 -15.211  -3.674  0.00  0.00     0.034 A 
BRANCH  22  24
ATOM     24  C   UNL d   1      27.554 -14.255  -5.999  0.00  0.00     0.292 C 
ATOM     25  O   UNL d   1      28.145 -15.200  -6.511  0.00  0.00    -0.259 OA
BRANCH  24  26
ATOM     26  O   UNL d   1      27.525 -12.990  -6.482  0.00  0.00    -0.323 OA
ATOM     27  C   UNL d   1      28.690 -12.619  -7.229  0.00  0.00     0.213 C 
ENDBRANCH  24  26
ENDBRANCH  22  24
ENDBRANCH   2  18
TORSDOF 10
ENDMDL
MODEL 4
REMARK VINA RESULT:    -7.129      2.575      8.778
REMARK INTER + INTRA:         -11.607
REMARK INTER:                 -10.112
REMARK INTRA:                  -1.495
REMARK CONF_INDEPENDENT:        2.983
REMARK UNBOUND:                -1.495
REMARK  10 active torsions:
REMARK  status: ('A' for Active; 'I' for Inactive)
REMARK    1  A    between atoms: C_2  and  C_3 
REMARK    2  A    between atoms: C_3  and  C_4 
REMARK    3  A    between atoms: C_4  and  C_5 
REMARK    4  A    between atoms: C_5  and  C_6 
REMARK       I    between atoms: C_6  and  N_8 
REMARK    5  A    between atoms: N_8  and  N_9 
REMARK    6  A    between atoms: N_9  and  C_10 
REMARK    7  A    between atoms: C_10  and  N_12 
REMARK       I    between atoms: N_12  and  C_13 
REMARK    8  A    between atoms: C_13  and  C_15 
REMARK    9  A    between atoms: C_19  and  C_20 
REMARK   10  A    between atoms: C_20  and  O_22 
ROOT
ATOM      1  N   UNL d   1      25.641 -14.031  -2.343  0.00  0.00    -0.298 N 
ATOM      2  C   UNL d   1      25.285 -15.364  -2.662  0.00  0.00     0.257 C 
ATOM      3  O   UNL d   1      25.235 -15.828  -3.798  0.00  0.00    -0.267 OA
ATOM      4  H   UNL d   1      25.683 -13.798  -1.361  0.00  0.00     0.171 HD
ENDROOT
BRANCH   1   5
ATOM      5  C   UNL d   1      26.007 -13.022  -3.269  0.00  0.00     0.193 C 
ATOM      6  S   UNL d   1      26.531 -11.470  -2.858  0.00  0.00    -0.039 SA
BRANCH   5   7
ATOM      7  N   UNL d   1      25.921 -13.381  -4.625  0.00  0.00    -0.273 N 
ATOM      8  H   UNL d   1      25.084 -13.682  -5.120  0.00  0.00     0.189 HD
BRANCH   7   9
ATOM      9  N   UNL d   1      27.116 -13.310  -5.454  0.00  0.00    -0.268 N 
ATOM     10  C   UNL d   1      27.695 -14.454  -5.976  0.00  0.00     0.236 C 
ATOM     11  O   UNL d   1      27.221 -15.569  -5.762  0.00  0.00    -0.272 OA
ATOM     12  H   UNL d   1      27.488 -12.374  -5.614  0.00  0.00     0.190 HD
BRANCH  10  13
ATOM     13  C   UNL d   1      28.959 -14.227  -6.829  0.00  0.00     0.104 C 
BRANCH  13  14
ATOM     14  C   UNL d   1      30.177 -14.953  -6.232  0.00  0.00     0.009 C 
BRANCH  14  15
ATOM     15  C   UNL d   1      30.177 -16.462  -6.495  0.00  0.00     0.000 C 
BRANCH  15  16
ATOM     16  C   UNL d   1      30.040 -17.250  -5.188  0.00  0.00    -0.005 C 
ATOM     17  C   UNL d   1      29.729 -16.327  -4.022  0.00  0.00     0.005 C 
ENDBRANCH  15  16
ENDBRANCH  14  15
ENDBRANCH  13  14
ENDBRANCH  10  13
ENDBRANCH   7   9
ENDBRANCH   5   7
ENDBRANCH   1   5
BRANCH   2  18
ATOM     18  C   UNL d   1      24.912 -16.341  -1.593  0.00  0.00     0.033 A 
ATOM     19  C   UNL d   1      25.940 -16.816  -0.748  0.00  0.00     0.017 A 
ATOM     20  C   UNL d   1      25.733 -17.910   0.097  0.00  0.00     0.002 A 
ATOM     21  C   UNL d   1      24.476 -18.508   0.150  0.00  0.00     0.017 A 
ATOM     22  C   UNL d   1      23.441 -18.057  -0.689  0.00  0.00     0.040 A 
ATOM     23  C   UNL d   1      23.666 -16.973  -1.566  0.00  0.00     0.034 A 
BRANCH  22  24
ATOM     24  C   UNL d   1      22.148 -18.800  -0.651  0.00  0.00     0.292 C 
ATOM     25  O   UNL d   1      21.642 -19.322  -1.638  0.00  0.00    -0.259 OA
BRANCH  24  26
ATOM     26  O   UNL d   1      21.628 -18.812   0.600  0.00  0.00    -0.323 OA
ATOM     27  C   UNL d   1      20.507 -19.690   0.762  0.00  0.00     0.213 C 
ENDBRANCH  24  26
ENDBRANCH  22  24
ENDBRANCH   2  18
TORSDOF 10
ENDMDL
MODEL 5
REMARK VINA RESULT:    -7.040      4.257      8.310
REMARK INTER + INTRA:         -11.442
REMARK INTER:                 -10.023
REMARK INTRA:                  -1.420
REMARK CONF_INDEPENDENT:        2.983
REMARK UNBOUND:                -1.420
REMARK  10 active torsions:
REMARK  status: ('A' for Active; 'I' for Inactive)
REMARK    1  A    between atoms: C_2  and  C_3 
REMARK    2  A    between atoms: C_3  and  C_4 
REMARK    3  A    between atoms: C_4  and  C_5 
REMARK    4  A    between atoms: C_5  and  C_6 
REMARK       I    between atoms: C_6  and  N_8 
REMARK    5  A    between atoms: N_8  and  N_9 
REMARK    6  A    between atoms: N_9  and  C_10 
REMARK    7  A    between atoms: C_10  and  N_12 
REMARK       I    between atoms: N_12  and  C_13 
REMARK    8  A    between atoms: C_13  and  C_15 
REMARK    9  A    between atoms: C_19  and  C_20 
REMARK   10  A    between atoms: C_20  and  O_22 
ROOT
ATOM      1  N   UNL d   1      26.217 -14.460  -1.110  0.00  0.00    -0.298 N 
ATOM      2  C   UNL d   1      25.188 -15.204  -1.734  0.00  0.00     0.257 C 
ATOM      3  O   UNL d   1      24.702 -14.951  -2.833  0.00  0.00    -0.267 OA
ATOM      4  H   UNL d   1      26.551 -14.809  -0.223  0.00  0.00     0.171 HD
ENDROOT
BRANCH   1   5
ATOM      5  C   UNL d   1      26.863 -13.319  -1.646  0.00  0.00     0.193 C 
ATOM      6  S   UNL d   1      26.448 -12.558  -3.095  0.00  0.00    -0.039 SA
BRANCH   5   7
ATOM      7  N   UNL d   1      27.924 -12.804  -0.880  0.00  0.00    -0.273 N 
ATOM      8  H   UNL d   1      28.466 -11.966  -1.083  0.00  0.00     0.189 HD
BRANCH   7   9
ATOM      9  N   UNL d   1      28.309 -13.487   0.346  0.00  0.00    -0.268 N 
ATOM     10  C   UNL d   1      27.401 -13.685   1.372  0.00  0.00     0.236 C 
ATOM     11  O   UNL d   1      26.238 -13.294   1.286  0.00  0.00    -0.272 OA
ATOM     12  H   UNL d   1      29.279 -13.799   0.392  0.00  0.00     0.190 HD
BRANCH  10  13
ATOM     13  C   UNL d   1      27.953 -14.417   2.612  0.00  0.00     0.104 C 
BRANCH  13  14
ATOM     14  C   UNL d   1      28.259 -13.434   3.755  0.00  0.00     0.009 C 
BRANCH  14  15
ATOM     15  C   UNL d   1      27.756 -13.911   5.121  0.00  0.00     0.000 C 
BRANCH  15  16
ATOM     16  C   UNL d   1      28.873 -14.603   5.910  0.00  0.00    -0.005 C 
ATOM     17  C   UNL d   1      29.046 -13.974   7.282  0.00  0.00     0.005 C 
ENDBRANCH  15  16
ENDBRANCH  14  15
ENDBRANCH  13  14
ENDBRANCH  10  13
ENDBRANCH   7   9
ENDBRANCH   5   7
ENDBRANCH   1   5
BRANCH   2  18
ATOM     18  C   UNL d   1      24.579 -16.395  -1.063  0.00  0.00     0.033 A 
ATOM     19  C   UNL d   1      25.453 -17.347  -0.493  0.00  0.00     0.017 A 
ATOM     20  C   UNL d   1      24.987 -18.599  -0.081  0.00  0.00     0.002 A 
ATOM     21  C   UNL d   1      23.629 -18.894  -0.182  0.00  0.00     0.017 A 
ATOM     22  C   UNL d   1      22.743 -17.963  -0.755  0.00  0.00     0.040 A 
ATOM     23  C   UNL d   1      23.225 -16.714  -1.202  0.00  0.00     0.034 A 
BRANCH  22  24
ATOM     24  C   UNL d   1      21.319 -18.378  -0.919  0.00  0.00     0.292 C 
ATOM     25  O   UNL d   1      20.430 -17.608  -1.268  0.00  0.00    -0.259 OA
BRANCH  24  26
ATOM     26  O   UNL d   1      21.156 -19.691  -0.632  0.00  0.00    -0.323 OA
ATOM     27  C   UNL d   1      19.847 -20.032  -0.159  0.00  0.00     0.213 C 
ENDBRANCH  24  26
ENDBRANCH  22  24
ENDBRANCH   2  18
TORSDOF 10
ENDMDL
MODEL 6
REMARK VINA RESULT:    -6.897      2.608      8.977
REMARK INTER + INTRA:         -11.763
REMARK INTER:                  -9.880
REMARK INTRA:                  -1.884
REMARK CONF_INDEPENDENT:        2.983
REMARK UNBOUND:                -1.884
REMARK  10 active torsions:
REMARK  status: ('A' for Active; 'I' for Inactive)
REMARK    1  A    between atoms: C_2  and  C_3 
REMARK    2  A    between atoms: C_3  and  C_4 
REMARK    3  A    between atoms: C_4  and  C_5 
REMARK    4  A    between atoms: C_5  and  C_6 
REMARK       I    between atoms: C_6  and  N_8 
REMARK    5  A    between atoms: N_8  and  N_9 
REMARK    6  A    between atoms: N_9  and  C_10 
REMARK    7  A    between atoms: C_10  and  N_12 
REMARK       I    between atoms: N_12  and  C_13 
REMARK    8  A    between atoms: C_13  and  C_15 
REMARK    9  A    between atoms: C_19  and  C_20 
REMARK   10  A    between atoms: C_20  and  O_22 
ROOT
ATOM      1  N   UNL d   1      25.148 -14.824  -3.135  0.00  0.00    -0.298 N 
ATOM      2  C   UNL d   1      25.780 -15.785  -2.312  0.00  0.00     0.257 C 
ATOM      3  O   UNL d   1      26.981 -16.042  -2.322  0.00  0.00    -0.267 OA
ATOM      4  H   UNL d   1      24.158 -14.686  -2.989  0.00  0.00     0.171 HD
ENDROOT
BRANCH   1   5
ATOM      5  C   UNL d   1      25.787 -13.995  -4.091  0.00  0.00     0.193 C 
ATOM      6  S   UNL d   1      25.691 -12.309  -4.134  0.00  0.00    -0.039 SA
BRANCH   5   7
ATOM      7  N   UNL d   1      26.557 -14.664  -5.058  0.00  0.00    -0.273 N 
ATOM      8  H   UNL d   1      26.279 -14.872  -6.016  0.00  0.00     0.189 HD
BRANCH   7   9
ATOM      9  N   UNL d   1      27.901 -15.103  -4.714  0.00  0.00    -0.268 N 
ATOM     10  C   UNL d   1      28.845 -15.361  -5.694  0.00  0.00     0.236 C 
ATOM     11  O   UNL d   1      28.584 -15.224  -6.888  0.00  0.00    -0.272 OA
ATOM     12  H   UNL d   1      28.090 -15.208  -3.717  0.00  0.00     0.190 HD
BRANCH  10  13
ATOM     13  C   UNL d   1      30.223 -15.824  -5.181  0.00  0.00     0.104 C 
BRANCH  13  14
ATOM     14  C   UNL d   1      30.689 -17.101  -5.902  0.00  0.00     0.009 C 
BRANCH  14  15
ATOM     15  C   UNL d   1      30.115 -18.387  -5.299  0.00  0.00     0.000 C 
BRANCH  15  16
ATOM     16  C   UNL d   1      30.880 -19.619  -5.795  0.00  0.00    -0.005 C 
ATOM     17  C   UNL d   1      31.135 -19.540  -7.290  0.00  0.00     0.005 C 
ENDBRANCH  15  16
ENDBRANCH  14  15
ENDBRANCH  13  14
ENDBRANCH  10  13
ENDBRANCH   7   9
ENDBRANCH   5   7
ENDBRANCH   1   5
BRANCH   2  18
ATOM     18  C   UNL d   1      24.995 -16.607  -1.339  0.00  0.00     0.033 A 
ATOM     19  C   UNL d   1      25.709 -17.299  -0.336  0.00  0.00     0.017 A 
ATOM     20  C   UNL d   1      25.090 -18.281   0.443  0.00  0.00     0.002 A 
ATOM     21  C   UNL d   1      23.734 -18.544   0.267  0.00  0.00     0.017 A 
ATOM     22  C   UNL d   1      23.007 -17.872  -0.732  0.00  0.00     0.040 A 
ATOM     23  C   UNL d   1      23.644 -16.906  -1.540  0.00  0.00     0.034 A 
BRANCH  22  24
ATOM     24  C   UNL d   1      21.581 -18.267  -0.930  0.00  0.00     0.292 C 
ATOM     25  O   UNL d   1      20.694 -17.468  -1.211  0.00  0.00    -0.259 OA
BRANCH  24  26
ATOM     26  O   UNL d   1      21.414 -19.600  -0.757  0.00  0.00    -0.323 OA
ATOM     27  C   UNL d   1      20.465 -19.947   0.259  0.00  0.00     0.213 C 
ENDBRANCH  24  26
ENDBRANCH  22  24
ENDBRANCH   2  18
TORSDOF 10
ENDMDL
MODEL 7
REMARK VINA RESULT:    -6.785      3.082      9.195
REMARK INTER + INTRA:         -11.498
REMARK INTER:                  -9.768
REMARK INTRA:                  -1.730
REMARK CONF_INDEPENDENT:        2.983
REMARK UNBOUND:                -1.730
REMARK  10 active torsions:
REMARK  status: ('A' for Active; 'I' for Inactive)
REMARK    1  A    between atoms: C_2  and  C_3 
REMARK    2  A    between atoms: C_3  and  C_4 
REMARK    3  A    between atoms: C_4  and  C_5 
REMARK    4  A    between atoms: C_5  and  C_6 
REMARK       I    between atoms: C_6  and  N_8 
REMARK    5  A    between atoms: N_8  and  N_9 
REMARK    6  A    between atoms: N_9  and  C_10 
REMARK    7  A    between atoms: C_10  and  N_12 
REMARK       I    between atoms: N_12  and  C_13 
REMARK    8  A    between atoms: C_13  and  C_15 
REMARK    9  A    between atoms: C_19  and  C_20 
REMARK   10  A    between atoms: C_20  and  O_22 
ROOT
ATOM      1  N   UNL d   1      25.567 -15.601  -3.598  0.00  0.00    -0.298 N 
ATOM      2  C   UNL d   1      25.440 -15.311  -2.219  0.00  0.00     0.257 C 
ATOM      3  O   UNL d   1      25.775 -14.256  -1.687  0.00  0.00    -0.267 OA
ATOM      4  H   UNL d   1      25.209 -16.494  -3.906  0.00  0.00     0.171 HD
ENDROOT
BRANCH   1   5
ATOM      5  C   UNL d   1      26.085 -14.730  -4.589  0.00  0.00     0.193 C 
ATOM      6  S   UNL d   1      27.423 -15.057  -5.567  0.00  0.00    -0.039 SA
BRANCH   5   7
ATOM      7  N   UNL d   1      25.402 -13.512  -4.746  0.00  0.00    -0.273 N 
ATOM      8  H   UNL d   1      24.624 -13.331  -5.379  0.00  0.00     0.189 HD
BRANCH   7   9
ATOM      9  N   UNL d   1      25.791 -12.371  -3.931  0.00  0.00    -0.268 N 
ATOM     10  C   UNL d   1      25.892 -11.102  -4.475  0.00  0.00     0.236 C 
ATOM     11  O   UNL d   1      25.653 -10.891  -5.663  0.00  0.00    -0.272 OA
ATOM     12  H   UNL d   1      25.984 -12.574  -2.950  0.00  0.00     0.190 HD
BRANCH  10  13
ATOM     13  C   UNL d   1      26.320  -9.993  -3.494  0.00  0.00     0.104 C 
BRANCH  13  14
ATOM     14  C   UNL d   1      25.159  -9.028  -3.195  0.00  0.00     0.009 C 
BRANCH  14  15
ATOM     15  C   UNL d   1      25.121  -7.813  -4.127  0.00  0.00     0.000 C 
BRANCH  15  16
ATOM     16  C   UNL d   1      24.513  -8.179  -5.486  0.00  0.00    -0.005 C 
ATOM     17  C   UNL d   1      24.902  -7.167  -6.550  0.00  0.00     0.005 C 
ENDBRANCH  15  16
ENDBRANCH  14  15
ENDBRANCH  13  14
ENDBRANCH  10  13
ENDBRANCH   7   9
ENDBRANCH   5   7
ENDBRANCH   1   5
BRANCH   2  18
ATOM     18  C   UNL d   1      24.878 -16.317  -1.266  0.00  0.00     0.033 A 
ATOM     19  C   UNL d   1      25.787 -17.031  -0.453  0.00  0.00     0.017 A 
ATOM     20  C   UNL d   1      25.379 -18.156   0.270  0.00  0.00     0.002 A 
ATOM     21  C   UNL d   1      24.043 -18.549   0.233  0.00  0.00     0.017 A 
ATOM     22  C   UNL d   1      23.124 -17.857  -0.577  0.00  0.00     0.040 A 
ATOM     23  C   UNL d   1      23.548 -16.742  -1.332  0.00  0.00     0.034 A 
BRANCH  22  24
ATOM     24  C   UNL d   1      21.730 -18.385  -0.644  0.00  0.00     0.292 C 
ATOM     25  O   UNL d   1      20.772 -17.713  -1.010  0.00  0.00    -0.259 OA
BRANCH  24  26
ATOM     26  O   UNL d   1      21.678 -19.680  -0.249  0.00  0.00    -0.323 OA
ATOM     27  C   UNL d   1      20.419 -20.074   0.310  0.00  0.00     0.213 C 
ENDBRANCH  24  26
ENDBRANCH  22  24
ENDBRANCH   2  18
TORSDOF 10
ENDMDL
MODEL 8
REMARK VINA RESULT:    -6.381      2.932      8.533
REMARK INTER + INTRA:         -11.484
REMARK INTER:                  -9.364
REMARK INTRA:                  -2.120
REMARK CONF_INDEPENDENT:        2.983
REMARK UNBOUND:                -2.120
REMARK  10 active torsions:
REMARK  status: ('A' for Active; 'I' for Inactive)
REMARK    1  A    between atoms: C_2  and  C_3 
REMARK    2  A    between atoms: C_3  and  C_4 
REMARK    3  A    between atoms: C_4  and  C_5 
REMARK    4  A    between atoms: C_5  and  C_6 
REMARK       I    between atoms: C_6  and  N_8 
REMARK    5  A    between atoms: N_8  and  N_9 
REMARK    6  A    between atoms: N_9  and  C_10 
REMARK    7  A    between atoms: C_10  and  N_12 
REMARK       I    between atoms: N_12  and  C_13 
REMARK    8  A    between atoms: C_13  and  C_15 
REMARK    9  A    between atoms: C_19  and  C_20 
REMARK   10  A    between atoms: C_20  and  O_22 
ROOT
ATOM      1  N   UNL d   1      25.594 -15.599  -3.522  0.00  0.00    -0.298 N 
ATOM      2  C   UNL d   1      25.431 -15.322  -2.144  0.00  0.00     0.257 C 
ATOM      3  O   UNL d   1      25.759 -14.275  -1.592  0.00  0.00    -0.267 OA
ATOM      4  H   UNL d   1      25.238 -16.486  -3.849  0.00  0.00     0.171 HD
ENDROOT
BRANCH   1   5
ATOM      5  C   UNL d   1      26.144 -14.721  -4.490  0.00  0.00     0.193 C 
ATOM      6  S   UNL d   1      27.517 -15.038  -5.420  0.00  0.00    -0.039 SA
BRANCH   5   7
ATOM      7  N   UNL d   1      25.462 -13.504  -4.665  0.00  0.00    -0.273 N 
ATOM      8  H   UNL d   1      24.753 -13.304  -5.369  0.00  0.00     0.189 HD
BRANCH   7   9
ATOM      9  N   UNL d   1      25.745 -12.397  -3.764  0.00  0.00    -0.268 N 
ATOM     10  C   UNL d   1      25.760 -11.089  -4.218  0.00  0.00     0.236 C 
ATOM     11  O   UNL d   1      25.532 -10.815  -5.395  0.00  0.00    -0.272 OA
ATOM     12  H   UNL d   1      25.931 -12.653  -2.794  0.00  0.00     0.190 HD
BRANCH  10  13
ATOM     13  C   UNL d   1      26.081 -10.023  -3.153  0.00  0.00     0.104 C 
BRANCH  13  14
ATOM     14  C   UNL d   1      27.497 -10.209  -2.579  0.00  0.00     0.009 C 
BRANCH  14  15
ATOM     15  C   UNL d   1      27.511 -10.536  -1.083  0.00  0.00     0.000 C 
BRANCH  15  16
ATOM     16  C   UNL d   1      27.447 -12.049  -0.848  0.00  0.00    -0.005 C 
ATOM     17  C   UNL d   1      27.031 -12.366   0.579  0.00  0.00     0.005 C 
ENDBRANCH  15  16
ENDBRANCH  14  15
ENDBRANCH  13  14
ENDBRANCH  10  13
ENDBRANCH   7   9
ENDBRANCH   5   7
ENDBRANCH   1   5
BRANCH   2  18
ATOM     18  C   UNL d   1      24.838 -16.334  -1.217  0.00  0.00     0.033 A 
ATOM     19  C   UNL d   1      25.721 -17.075  -0.400  0.00  0.00     0.017 A 
ATOM     20  C   UNL d   1      25.283 -18.205   0.297  0.00  0.00     0.002 A 
ATOM     21  C   UNL d   1      23.942 -18.576   0.231  0.00  0.00     0.017 A 
ATOM     22  C   UNL d   1      23.048 -17.857  -0.583  0.00  0.00     0.040 A 
ATOM     23  C   UNL d   1      23.503 -16.737  -1.312  0.00  0.00     0.034 A 
BRANCH  22  24
ATOM     24  C   UNL d   1      21.647 -18.362  -0.682  0.00  0.00     0.292 C 
ATOM     25  O   UNL d   1      20.696 -17.652  -0.990  0.00  0.00    -0.259 OA
BRANCH  24  26
ATOM     26  O   UNL d   1      21.581 -19.682  -0.386  0.00  0.00    -0.323 OA
ATOM     27  C   UNL d   1      20.318 -20.105   0.141  0.00  0.00     0.213 C 
ENDBRANCH  24  26
ENDBRANCH  22  24
ENDBRANCH   2  18
TORSDOF 10
ENDMDL
MODEL 9
REMARK VINA RESULT:    -6.326      2.741      8.517
REMARK INTER + INTRA:         -11.546
REMARK INTER:                  -9.309
REMARK INTRA:                  -2.237
REMARK CONF_INDEPENDENT:        2.983
REMARK UNBOUND:                -2.237
REMARK  10 active torsions:
REMARK  status: ('A' for Active; 'I' for Inactive)
REMARK    1  A    between atoms: C_2  and  C_3 
REMARK    2  A    between atoms: C_3  and  C_4 
REMARK    3  A    between atoms: C_4  and  C_5 
REMARK    4  A    between atoms: C_5  and  C_6 
REMARK       I    between atoms: C_6  and  N_8 
REMARK    5  A    between atoms: N_8  and  N_9 
REMARK    6  A    between atoms: N_9  and  C_10 
REMARK    7  A    between atoms: C_10  and  N_12 
REMARK       I    between atoms: N_12  and  C_13 
REMARK    8  A    between atoms: C_13  and  C_15 
REMARK    9  A    between atoms: C_19  and  C_20 
REMARK   10  A    between atoms: C_20  and  O_22 
ROOT
ATOM      1  N   UNL d   1      25.043 -14.604  -2.892  0.00  0.00    -0.298 N 
ATOM      2  C   UNL d   1      25.664 -15.698  -2.243  0.00  0.00     0.257 C 
ATOM      3  O   UNL d   1      26.831 -16.045  -2.406  0.00  0.00    -0.267 OA
ATOM      4  H   UNL d   1      24.088 -14.407  -2.629  0.00  0.00     0.171 HD
ENDROOT
BRANCH   1   5
ATOM      5  C   UNL d   1      25.658 -13.726  -3.819  0.00  0.00     0.193 C 
ATOM      6  S   UNL d   1      25.600 -12.040  -3.746  0.00  0.00    -0.039 SA
BRANCH   5   7
ATOM      7  N   UNL d   1      26.369 -14.344  -4.863  0.00  0.00    -0.273 N 
ATOM      8  H   UNL d   1      26.033 -14.506  -5.811  0.00  0.00     0.189 HD
BRANCH   7   9
ATOM      9  N   UNL d   1      27.731 -14.796  -4.623  0.00  0.00    -0.268 N 
ATOM     10  C   UNL d   1      28.545 -15.205  -5.665  0.00  0.00     0.236 C 
ATOM     11  O   UNL d   1      28.150 -15.199  -6.830  0.00  0.00    -0.272 OA
ATOM     12  H   UNL d   1      28.033 -14.792  -3.648  0.00  0.00     0.190 HD
BRANCH  10  13
ATOM     13  C   UNL d   1      29.960 -15.663  -5.259  0.00  0.00     0.104 C 
BRANCH  13  14
ATOM     14  C   UNL d   1      30.251 -15.345  -3.782  0.00  0.00     0.009 C 
BRANCH  14  15
ATOM     15  C   UNL d   1      30.637 -16.577  -2.957  0.00  0.00     0.000 C 
BRANCH  15  16
ATOM     16  C   UNL d   1      29.454 -17.072  -2.118  0.00  0.00    -0.005 C 
ATOM     17  C   UNL d   1      29.780 -17.033  -0.635  0.00  0.00     0.005 C 
ENDBRANCH  15  16
ENDBRANCH  14  15
ENDBRANCH  13  14
ENDBRANCH  10  13
ENDBRANCH   7   9
ENDBRANCH   5   7
ENDBRANCH   1   5
BRANCH   2  18
ATOM     18  C   UNL d   1      24.906 -16.559  -1.283  0.00  0.00     0.033 A 
ATOM     19  C   UNL d   1      25.643 -17.247  -0.294  0.00  0.00     0.017 A 
ATOM     20  C   UNL d   1      25.057 -18.261   0.470  0.00  0.00     0.002 A 
ATOM     21  C   UNL d   1      23.708 -18.560   0.293  0.00  0.00     0.017 A 
ATOM     22  C   UNL d   1      22.958 -17.894  -0.693  0.00  0.00     0.040 A 
ATOM     23  C   UNL d   1      23.564 -16.895  -1.485  0.00  0.00     0.034 A 
BRANCH  22  24
ATOM     24  C   UNL d   1      21.545 -18.327  -0.895  0.00  0.00     0.292 C 
ATOM     25  O   UNL d   1      20.655 -17.570  -1.268  0.00  0.00    -0.259 OA
BRANCH  24  26
ATOM     26  O   UNL d   1      21.391 -19.643  -0.611  0.00  0.00    -0.323 OA
ATOM     27  C   UNL d   1      20.458 -19.912   0.442  0.00  0.00     0.213 C 
ENDBRANCH  24  26
ENDBRANCH  22  24
ENDBRANCH   2  18
TORSDOF 10
ENDMDL
