MODEL 1
REMARK VINA RESULT:    -9.453      0.000      0.000
REMARK INTER + INTRA:         -15.755
REMARK INTER:                 -13.033
REMARK INTRA:                  -2.722
REMARK CONF_INDEPENDENT:        3.580
REMARK UNBOUND:                -2.722
REMARK  12 active torsions:
REMARK  status: ('A' for Active; 'I' for Inactive)
REMARK    1  A    between atoms: C_2  and  O_3 
REMARK    2  A    between atoms: O_3  and  C_4 
REMARK    3  A    between atoms: C_8  and  C_7 
REMARK    4  A    between atoms: C_8  and  C_10 
REMARK    5  A    between atoms: C_8  and  O_9 
REMARK    6  A    between atoms: C_10  and  C_11 
REMARK    7  A    between atoms: C_11  and  C_12 
REMARK       I    between atoms: C_12  and  N_14 
REMARK    8  A    between atoms: N_14  and  N_15 
REMARK    9  A    between atoms: C_16  and  C_17 
REMARK   10  A    between atoms: C_20  and  C_21 
REMARK   11  A    between atoms: C_23  and  N_24 
REMARK   12  A    between atoms: C_29  and  O_30 
ROOT
ATOM      1  C   UNL d   1      26.437 -14.852  -1.783  0.00  0.00     0.237 C 
ATOM      2  O   UNL d   1      26.144 -13.730  -1.360  0.00  0.00    -0.272 OA
ATOM      3  N   UNL d   1      25.950 -15.399  -2.955  0.00  0.00    -0.247 N 
ATOM      4  H   UNL d   1      26.280 -16.311  -3.253  0.00  0.00     0.192 HD
ENDROOT
BRANCH   3   5
ATOM      5  N   UNL d   1      25.154 -14.650  -3.794  0.00  0.00    -0.182 NA
ATOM      6  C   UNL d   1      25.679 -14.119  -4.865  0.00  0.00     0.175 C 
BRANCH   6   7
ATOM      7  C   UNL d   1      27.023 -14.364  -5.322  0.00  0.00     0.095 A 
ATOM      8  C   UNL d   1      27.835 -13.527  -6.058  0.00  0.00     0.041 A 
ATOM      9  C   UNL d   1      28.957 -14.274  -6.427  0.00  0.00     0.041 A 
ATOM     10  C   UNL d   1      28.833 -15.506  -5.821  0.00  0.00     0.089 A 
ATOM     11  O   UNL d   1      27.649 -15.574  -5.126  0.00  0.00    -0.308 OA
BRANCH  10  12
ATOM     12  C   UNL d   1      29.768 -16.622  -5.771  0.00  0.00     0.033 A 
ATOM     13  C   UNL d   1      30.461 -17.062  -6.906  0.00  0.00     0.053 A 
ATOM     14  C   UNL d   1      31.347 -18.150  -6.796  0.00  0.00     0.103 A 
ATOM     15  C   UNL d   1      31.641 -18.721  -5.548  0.00  0.00     0.039 A 
ATOM     16  C   UNL d   1      30.987 -18.257  -4.410  0.00  0.00     0.040 A 
ATOM     17  C   UNL d   1      30.056 -17.224  -4.527  0.00  0.00     0.078 A 
BRANCH  14  18
ATOM     18  N   UNL d   1      31.891 -18.774  -8.009  0.00  0.00    -0.116 N 
ATOM     19  O   UNL d   1      31.093 -19.134  -8.882  0.00  0.00    -0.532 OA
ATOM     20  O   UNL d   1      33.121 -18.941  -8.065  0.00  0.00    -0.532 OA
ENDBRANCH  14  18
BRANCH  17  21
ATOM     21  O   UNL d   1      29.416 -16.768  -3.404  0.00  0.00    -0.360 OA
ATOM     22  H   UNL d   1      28.570 -16.359  -3.643  0.00  0.00     0.217 HD
ENDBRANCH  17  21
ENDBRANCH  10  12
ENDBRANCH   6   7
ENDBRANCH   3   5
BRANCH   1  23
ATOM     23  C   UNL d   1      27.359 -15.790  -1.024  0.00  0.00     0.107 C 
BRANCH  23  24
ATOM     24  C   UNL d   1      26.633 -16.387   0.198  0.00  0.00     0.046 C 
BRANCH  24  25
ATOM     25  C   UNL d   1      26.072 -17.798  -0.021  0.00  0.00     0.151 C 
BRANCH  25  26
ATOM     26  O   UNL d   1      26.306 -18.574   1.155  0.00  0.00    -0.391 OA
ATOM     27  H   UNL d   1      27.253 -18.791   1.176  0.00  0.00     0.210 HD
ENDBRANCH  25  26
BRANCH  25  28
ATOM     28  C   UNL d   1      24.598 -17.847  -0.371  0.00  0.00    -0.029 C 
ATOM     29  C   UNL d   1      23.871 -16.659  -0.494  0.00  0.00     0.012 C 
ATOM     30  C   UNL d   1      22.478 -16.695  -0.625  0.00  0.00     0.037 C 
ATOM     31  C   UNL d   1      21.797 -17.914  -0.666  0.00  0.00     0.068 C 
ATOM     32  C   UNL d   1      22.515 -19.097  -0.602  0.00  0.00     0.037 C 
ATOM     33  C   UNL d   1      23.900 -19.056  -0.512  0.00  0.00     0.012 C 
BRANCH  31  34
ATOM     34  O   UNL d   1      20.452 -17.859  -0.895  0.00  0.00    -0.352 OA
BRANCH  34  35
ATOM     35  C   UNL d   1      19.773 -19.115  -0.896  0.00  0.00     0.171 C 
ATOM     36  C   UNL d   1      19.530 -19.509   0.548  0.00  0.00     0.034 C 
ENDBRANCH  34  35
ENDBRANCH  31  34
ENDBRANCH  25  28
ENDBRANCH  24  25
ENDBRANCH  23  24
ENDBRANCH   1  23
TORSDOF 12
ENDMDL
MODEL 2
REMARK VINA RESULT:    -7.450      3.592      7.224
REMARK INTER + INTRA:         -16.382
REMARK INTER:                 -11.029
REMARK INTRA:                  -5.353
REMARK CONF_INDEPENDENT:        3.580
REMARK UNBOUND:                -5.353
REMARK  12 active torsions:
REMARK  status: ('A' for Active; 'I' for Inactive)
REMARK    1  A    between atoms: C_2  and  O_3 
REMARK    2  A    between atoms: O_3  and  C_4 
REMARK    3  A    between atoms: C_8  and  C_7 
REMARK    4  A    between atoms: C_8  and  C_10 
REMARK    5  A    between atoms: C_8  and  O_9 
REMARK    6  A    between atoms: C_10  and  C_11 
REMARK    7  A    between atoms: C_11  and  C_12 
REMARK       I    between atoms: C_12  and  N_14 
REMARK    8  A    between atoms: N_14  and  N_15 
REMARK    9  A    between atoms: C_16  and  C_17 
REMARK   10  A    between atoms: C_20  and  C_21 
REMARK   11  A    between atoms: C_23  and  N_24 
REMARK   12  A    between atoms: C_29  and  O_30 
ROOT
ATOM      1  C   UNL d   1      29.010 -16.588  -1.602  0.00  0.00     0.237 C 
ATOM      2  O   UNL d   1      29.611 -17.447  -2.254  0.00  0.00    -0.272 OA
ATOM      3  N   UNL d   1      28.630 -15.354  -2.093  0.00  0.00    -0.247 N 
ATOM      4  H   UNL d   1      28.098 -14.725  -1.502  0.00  0.00     0.192 HD
ENDROOT
BRANCH   3   5
ATOM      5  N   UNL d   1      28.827 -15.043  -3.421  0.00  0.00    -0.182 NA
ATOM      6  C   UNL d   1      28.393 -13.901  -3.879  0.00  0.00     0.175 C 
BRANCH   6   7
ATOM      7  C   UNL d   1      27.827 -12.857  -3.064  0.00  0.00     0.095 A 
ATOM      8  C   UNL d   1      27.273 -11.663  -3.477  0.00  0.00     0.041 A 
ATOM      9  C   UNL d   1      27.049 -10.902  -2.327  0.00  0.00     0.041 A 
ATOM     10  C   UNL d   1      27.383 -11.697  -1.251  0.00  0.00     0.089 A 
ATOM     11  O   UNL d   1      27.856 -12.911  -1.690  0.00  0.00    -0.308 OA
BRANCH  10  12
ATOM     12  C   UNL d   1      27.234 -11.449   0.177  0.00  0.00     0.033 A 
ATOM     13  C   UNL d   1      26.768 -10.225   0.674  0.00  0.00     0.053 A 
ATOM     14  C   UNL d   1      26.651 -10.045   2.064  0.00  0.00     0.103 A 
ATOM     15  C   UNL d   1      26.873 -11.106   2.954  0.00  0.00     0.039 A 
ATOM     16  C   UNL d   1      27.294 -12.338   2.460  0.00  0.00     0.040 A 
ATOM     17  C   UNL d   1      27.478 -12.500   1.087  0.00  0.00     0.078 A 
BRANCH  14  18
ATOM     18  N   UNL d   1      26.399  -8.702   2.608  0.00  0.00    -0.116 N 
ATOM     19  O   UNL d   1      27.036  -8.357   3.609  0.00  0.00    -0.532 OA
ATOM     20  O   UNL d   1      25.530  -8.013   2.050  0.00  0.00    -0.532 OA
ENDBRANCH  14  18
BRANCH  17  21
ATOM     21  O   UNL d   1      27.891 -13.715   0.604  0.00  0.00    -0.360 OA
ATOM     22  H   UNL d   1      27.608 -13.823  -0.317  0.00  0.00     0.217 HD
ENDBRANCH  17  21
ENDBRANCH  10  12
ENDBRANCH   6   7
ENDBRANCH   3   5
BRANCH   1  23
ATOM     23  C   UNL d   1      28.646 -16.788  -0.141  0.00  0.00     0.107 C 
BRANCH  23  24
ATOM     24  C   UNL d   1      27.302 -17.533  -0.018  0.00  0.00     0.046 C 
BRANCH  24  25
ATOM     25  C   UNL d   1      26.084 -16.621   0.182  0.00  0.00     0.151 C 
BRANCH  25  26
ATOM     26  O   UNL d   1      26.230 -15.470  -0.649  0.00  0.00    -0.391 OA
ATOM     27  H   UNL d   1      26.675 -14.785  -0.123  0.00  0.00     0.210 HD
ENDBRANCH  25  26
BRANCH  25  28
ATOM     28  C   UNL d   1      24.748 -17.279  -0.099  0.00  0.00    -0.029 C 
ATOM     29  C   UNL d   1      24.648 -18.674  -0.118  0.00  0.00     0.012 C 
ATOM     30  C   UNL d   1      23.473 -19.291  -0.564  0.00  0.00     0.037 C 
ATOM     31  C   UNL d   1      22.375 -18.527  -0.965  0.00  0.00     0.068 C 
ATOM     32  C   UNL d   1      22.445 -17.145  -0.895  0.00  0.00     0.037 C 
ATOM     33  C   UNL d   1      23.598 -16.540  -0.415  0.00  0.00     0.012 C 
BRANCH  31  34
ATOM     34  O   UNL d   1      21.237 -19.209  -1.290  0.00  0.00    -0.352 OA
BRANCH  34  35
ATOM     35  C   UNL d   1      20.104 -18.951  -0.461  0.00  0.00     0.171 C 
ATOM     36  C   UNL d   1      20.050 -20.036   0.597  0.00  0.00     0.034 C 
ENDBRANCH  34  35
ENDBRANCH  31  34
ENDBRANCH  25  28
ENDBRANCH  24  25
ENDBRANCH  23  24
ENDBRANCH   1  23
TORSDOF 12
ENDMDL
MODEL 3
REMARK VINA RESULT:    -7.301      4.514      8.358
REMARK INTER + INTRA:         -15.904
REMARK INTER:                 -10.881
REMARK INTRA:                  -5.023
REMARK CONF_INDEPENDENT:        3.580
REMARK UNBOUND:                -5.023
REMARK  12 active torsions:
REMARK  status: ('A' for Active; 'I' for Inactive)
REMARK    1  A    between atoms: C_2  and  O_3 
REMARK    2  A    between atoms: O_3  and  C_4 
REMARK    3  A    between atoms: C_8  and  C_7 
REMARK    4  A    between atoms: C_8  and  C_10 
REMARK    5  A    between atoms: C_8  and  O_9 
REMARK    6  A    between atoms: C_10  and  C_11 
REMARK    7  A    between atoms: C_11  and  C_12 
REMARK       I    between atoms: C_12  and  N_14 
REMARK    8  A    between atoms: N_14  and  N_15 
REMARK    9  A    between atoms: C_16  and  C_17 
REMARK   10  A    between atoms: C_20  and  C_21 
REMARK   11  A    between atoms: C_23  and  N_24 
REMARK   12  A    between atoms: C_29  and  O_30 
ROOT
ATOM      1  C   UNL d   1      31.102 -16.610  -0.442  0.00  0.00     0.237 C 
ATOM      2  O   UNL d   1      31.783 -17.628  -0.599  0.00  0.00    -0.272 OA
ATOM      3  N   UNL d   1      31.094 -15.843   0.706  0.00  0.00    -0.247 N 
ATOM      4  H   UNL d   1      30.539 -14.994   0.734  0.00  0.00     0.192 HD
ENDROOT
BRANCH   3   5
ATOM      5  N   UNL d   1      31.953 -16.133   1.743  0.00  0.00    -0.182 NA
ATOM      6  C   UNL d   1      31.838 -15.481   2.868  0.00  0.00     0.175 C 
BRANCH   6   7
ATOM      7  C   UNL d   1      30.779 -14.553   3.168  0.00  0.00     0.095 A 
ATOM      8  C   UNL d   1      30.104 -14.391   4.360  0.00  0.00     0.041 A 
ATOM      9  C   UNL d   1      29.040 -13.521   4.107  0.00  0.00     0.041 A 
ATOM     10  C   UNL d   1      29.163 -13.110   2.797  0.00  0.00     0.089 A 
ATOM     11  O   UNL d   1      30.238 -13.731   2.206  0.00  0.00    -0.308 OA
BRANCH  10  12
ATOM     12  C   UNL d   1      28.398 -12.119   2.052  0.00  0.00     0.033 A 
ATOM     13  C   UNL d   1      27.801 -11.017   2.678  0.00  0.00     0.053 A 
ATOM     14  C   UNL d   1      27.069 -10.097   1.905  0.00  0.00     0.103 A 
ATOM     15  C   UNL d   1      27.030 -10.196   0.506  0.00  0.00     0.039 A 
ATOM     16  C   UNL d   1      27.659 -11.267  -0.124  0.00  0.00     0.040 A 
ATOM     17  C   UNL d   1      28.327 -12.218   0.646  0.00  0.00     0.078 A 
BRANCH  14  18
ATOM     18  N   UNL d   1      26.241  -9.080   2.569  0.00  0.00    -0.116 N 
ATOM     19  O   UNL d   1      26.655  -8.603   3.631  0.00  0.00    -0.532 OA
ATOM     20  O   UNL d   1      25.155  -8.792   2.041  0.00  0.00    -0.532 OA
ENDBRANCH  14  18
BRANCH  17  21
ATOM     21  O   UNL d   1      28.948 -13.270   0.022  0.00  0.00    -0.360 OA
ATOM     22  H   UNL d   1      28.923 -14.057   0.587  0.00  0.00     0.217 HD
ENDBRANCH  17  21
ENDBRANCH  10  12
ENDBRANCH   6   7
ENDBRANCH   3   5
BRANCH   1  23
ATOM     23  C   UNL d   1      30.149 -16.100  -1.509  0.00  0.00     0.107 C 
BRANCH  23  24
ATOM     24  C   UNL d   1      28.818 -16.877  -1.460  0.00  0.00     0.046 C 
BRANCH  24  25
ATOM     25  C   UNL d   1      28.129 -16.875  -0.090  0.00  0.00     0.151 C 
BRANCH  25  26
ATOM     26  O   UNL d   1      28.499 -15.687   0.610  0.00  0.00    -0.391 OA
ATOM     27  H   UNL d   1      29.081 -15.950   1.343  0.00  0.00     0.210 HD
ENDBRANCH  25  26
BRANCH  25  28
ATOM     28  C   UNL d   1      26.617 -16.978  -0.141  0.00  0.00    -0.029 C 
ATOM     29  C   UNL d   1      25.972 -18.064   0.459  0.00  0.00     0.012 C 
ATOM     30  C   UNL d   1      24.603 -18.272   0.255  0.00  0.00     0.037 C 
ATOM     31  C   UNL d   1      23.856 -17.385  -0.524  0.00  0.00     0.068 C 
ATOM     32  C   UNL d   1      24.476 -16.275  -1.075  0.00  0.00     0.037 C 
ATOM     33  C   UNL d   1      25.824 -16.053  -0.836  0.00  0.00     0.012 C 
BRANCH  31  34
ATOM     34  O   UNL d   1      22.510 -17.608  -0.589  0.00  0.00    -0.352 OA
BRANCH  34  35
ATOM     35  C   UNL d   1      22.119 -18.947  -0.893  0.00  0.00     0.171 C 
ATOM     36  C   UNL d   1      20.604 -18.996  -0.895  0.00  0.00     0.034 C 
ENDBRANCH  34  35
ENDBRANCH  31  34
ENDBRANCH  25  28
ENDBRANCH  24  25
ENDBRANCH  23  24
ENDBRANCH   1  23
TORSDOF 12
ENDMDL
MODEL 4
REMARK VINA RESULT:    -7.111      2.452      5.386
REMARK INTER + INTRA:         -16.479
REMARK INTER:                 -10.691
REMARK INTRA:                  -5.788
REMARK CONF_INDEPENDENT:        3.580
REMARK UNBOUND:                -5.788
REMARK  12 active torsions:
REMARK  status: ('A' for Active; 'I' for Inactive)
REMARK    1  A    between atoms: C_2  and  O_3 
REMARK    2  A    between atoms: O_3  and  C_4 
REMARK    3  A    between atoms: C_8  and  C_7 
REMARK    4  A    between atoms: C_8  and  C_10 
REMARK    5  A    between atoms: C_8  and  O_9 
REMARK    6  A    between atoms: C_10  and  C_11 
REMARK    7  A    between atoms: C_11  and  C_12 
REMARK       I    between atoms: C_12  and  N_14 
REMARK    8  A    between atoms: N_14  and  N_15 
REMARK    9  A    between atoms: C_16  and  C_17 
REMARK   10  A    between atoms: C_20  and  C_21 
REMARK   11  A    between atoms: C_23  and  N_24 
REMARK   12  A    between atoms: C_29  and  O_30 
ROOT
ATOM      1  C   UNL d   1      30.428 -17.794  -1.912  0.00  0.00     0.237 C 
ATOM      2  O   UNL d   1      30.954 -18.872  -1.622  0.00  0.00    -0.272 OA
ATOM      3  N   UNL d   1      30.293 -17.310  -3.199  0.00  0.00    -0.247 N 
ATOM      4  H   UNL d   1      29.804 -16.434  -3.353  0.00  0.00     0.192 HD
ENDROOT
BRANCH   3   5
ATOM      5  N   UNL d   1      30.670 -18.081  -4.277  0.00  0.00    -0.182 NA
ATOM      6  C   UNL d   1      30.325 -17.709  -5.479  0.00  0.00     0.175 C 
BRANCH   6   7
ATOM      7  C   UNL d   1      29.679 -16.462  -5.793  0.00  0.00     0.095 A 
ATOM      8  C   UNL d   1      29.988 -15.576  -6.804  0.00  0.00     0.041 A 
ATOM      9  C   UNL d   1      29.222 -14.428  -6.584  0.00  0.00     0.041 A 
ATOM     10  C   UNL d   1      28.405 -14.694  -5.507  0.00  0.00     0.089 A 
ATOM     11  O   UNL d   1      28.668 -15.949  -5.012  0.00  0.00    -0.308 OA
BRANCH  10  12
ATOM     12  C   UNL d   1      27.332 -13.896  -4.927  0.00  0.00     0.033 A 
ATOM     13  C   UNL d   1      27.431 -12.506  -4.789  0.00  0.00     0.053 A 
ATOM     14  C   UNL d   1      26.363 -11.791  -4.216  0.00  0.00     0.103 A 
ATOM     15  C   UNL d   1      25.155 -12.428  -3.895  0.00  0.00     0.039 A 
ATOM     16  C   UNL d   1      25.037 -13.804  -4.072  0.00  0.00     0.040 A 
ATOM     17  C   UNL d   1      26.119 -14.526  -4.575  0.00  0.00     0.078 A 
BRANCH  14  18
ATOM     18  N   UNL d   1      26.544 -10.381  -3.843  0.00  0.00    -0.116 N 
ATOM     19  O   UNL d   1      26.128 -10.018  -2.737  0.00  0.00    -0.532 OA
ATOM     20  O   UNL d   1      27.069  -9.630  -4.681  0.00  0.00    -0.532 OA
ENDBRANCH  14  18
BRANCH  17  21
ATOM     21  O   UNL d   1      25.998 -15.880  -4.751  0.00  0.00    -0.360 OA
ATOM     22  H   UNL d   1      26.871 -16.302  -4.721  0.00  0.00     0.217 HD
ENDBRANCH  17  21
ENDBRANCH  10  12
ENDBRANCH   6   7
ENDBRANCH   3   5
BRANCH   1  23
ATOM     23  C   UNL d   1      29.889 -16.845  -0.857  0.00  0.00     0.107 C 
BRANCH  23  24
ATOM     24  C   UNL d   1      28.418 -17.177  -0.534  0.00  0.00     0.046 C 
BRANCH  24  25
ATOM     25  C   UNL d   1      27.391 -16.394  -1.363  0.00  0.00     0.151 C 
BRANCH  25  26
ATOM     26  O   UNL d   1      27.743 -16.491  -2.742  0.00  0.00    -0.391 OA
ATOM     27  H   UNL d   1      27.463 -15.665  -3.173  0.00  0.00     0.210 HD
ENDBRANCH  25  26
BRANCH  25  28
ATOM     28  C   UNL d   1      25.954 -16.840  -1.177  0.00  0.00    -0.029 C 
ATOM     29  C   UNL d   1      24.908 -16.015  -1.604  0.00  0.00     0.012 C 
ATOM     30  C   UNL d   1      23.585 -16.324  -1.266  0.00  0.00     0.037 C 
ATOM     31  C   UNL d   1      23.286 -17.471  -0.527  0.00  0.00     0.068 C 
ATOM     32  C   UNL d   1      24.312 -18.323  -0.149  0.00  0.00     0.037 C 
ATOM     33  C   UNL d   1      25.617 -18.033  -0.521  0.00  0.00     0.012 C 
BRANCH  31  34
ATOM     34  O   UNL d   1      21.964 -17.747  -0.328  0.00  0.00    -0.352 OA
BRANCH  34  35
ATOM     35  C   UNL d   1      21.640 -19.126  -0.155  0.00  0.00     0.171 C 
ATOM     36  C   UNL d   1      20.206 -19.324  -0.609  0.00  0.00     0.034 C 
ENDBRANCH  34  35
ENDBRANCH  31  34
ENDBRANCH  25  28
ENDBRANCH  24  25
ENDBRANCH  23  24
ENDBRANCH   1  23
TORSDOF 12
ENDMDL
MODEL 5
REMARK VINA RESULT:    -7.004      1.687      2.123
REMARK INTER + INTRA:         -16.213
REMARK INTER:                 -10.583
REMARK INTRA:                  -5.630
REMARK CONF_INDEPENDENT:        3.580
REMARK UNBOUND:                -5.630
REMARK  12 active torsions:
REMARK  status: ('A' for Active; 'I' for Inactive)
REMARK    1  A    between atoms: C_2  and  O_3 
REMARK    2  A    between atoms: O_3  and  C_4 
REMARK    3  A    between atoms: C_8  and  C_7 
REMARK    4  A    between atoms: C_8  and  C_10 
REMARK    5  A    between atoms: C_8  and  O_9 
REMARK    6  A    between atoms: C_10  and  C_11 
REMARK    7  A    between atoms: C_11  and  C_12 
REMARK       I    between atoms: C_12  and  N_14 
REMARK    8  A    between atoms: N_14  and  N_15 
REMARK    9  A    between atoms: C_16  and  C_17 
REMARK   10  A    between atoms: C_20  and  C_21 
REMARK   11  A    between atoms: C_23  and  N_24 
REMARK   12  A    between atoms: C_29  and  O_30 
ROOT
ATOM      1  C   UNL d   1      27.095 -14.039   0.585  0.00  0.00     0.237 C 
ATOM      2  O   UNL d   1      26.594 -13.336   1.467  0.00  0.00    -0.272 OA
ATOM      3  N   UNL d   1      27.137 -13.705  -0.754  0.00  0.00    -0.247 N 
ATOM      4  H   UNL d   1      27.610 -14.320  -1.407  0.00  0.00     0.192 HD
ENDROOT
BRANCH   3   5
ATOM      5  N   UNL d   1      26.688 -12.473  -1.178  0.00  0.00    -0.182 NA
ATOM      6  C   UNL d   1      26.754 -12.172  -2.446  0.00  0.00     0.175 C 
BRANCH   6   7
ATOM      7  C   UNL d   1      27.145 -13.092  -3.483  0.00  0.00     0.095 A 
ATOM      8  C   UNL d   1      26.626 -13.207  -4.756  0.00  0.00     0.041 A 
ATOM      9  C   UNL d   1      27.182 -14.361  -5.316  0.00  0.00     0.041 A 
ATOM     10  C   UNL d   1      28.091 -14.849  -4.402  0.00  0.00     0.089 A 
ATOM     11  O   UNL d   1      28.088 -14.071  -3.269  0.00  0.00    -0.308 OA
BRANCH  10  12
ATOM     12  C   UNL d   1      29.033 -15.956  -4.519  0.00  0.00     0.033 A 
ATOM     13  C   UNL d   1      29.601 -16.321  -5.747  0.00  0.00     0.053 A 
ATOM     14  C   UNL d   1      30.499 -17.403  -5.796  0.00  0.00     0.103 A 
ATOM     15  C   UNL d   1      30.929 -18.042  -4.624  0.00  0.00     0.039 A 
ATOM     16  C   UNL d   1      30.399 -17.652  -3.397  0.00  0.00     0.040 A 
ATOM     17  C   UNL d   1      29.456 -16.626  -3.352  0.00  0.00     0.078 A 
BRANCH  14  18
ATOM     18  N   UNL d   1      30.913 -17.949  -7.096  0.00  0.00    -0.116 N 
ATOM     19  O   UNL d   1      30.428 -19.030  -7.450  0.00  0.00    -0.532 OA
ATOM     20  O   UNL d   1      31.759 -17.310  -7.743  0.00  0.00    -0.532 OA
ENDBRANCH  14  18
BRANCH  17  21
ATOM     21  O   UNL d   1      28.938 -16.244  -2.141  0.00  0.00    -0.360 OA
ATOM     22  H   UNL d   1      28.209 -15.617  -2.271  0.00  0.00     0.217 HD
ENDBRANCH  17  21
ENDBRANCH  10  12
ENDBRANCH   6   7
ENDBRANCH   3   5
BRANCH   1  23
ATOM     23  C   UNL d   1      27.702 -15.399   0.881  0.00  0.00     0.107 C 
BRANCH  23  24
ATOM     24  C   UNL d   1      26.948 -16.505   0.115  0.00  0.00     0.046 C 
BRANCH  24  25
ATOM     25  C   UNL d   1      25.720 -16.016  -0.664  0.00  0.00     0.151 C 
BRANCH  25  26
ATOM     26  O   UNL d   1      26.084 -15.840  -2.033  0.00  0.00    -0.391 OA
ATOM     27  H   UNL d   1      26.938 -15.375  -2.050  0.00  0.00     0.210 HD
ENDBRANCH  25  26
BRANCH  25  28
ATOM     28  C   UNL d   1      24.511 -16.927  -0.577  0.00  0.00    -0.029 C 
ATOM     29  C   UNL d   1      24.686 -18.304  -0.409  0.00  0.00     0.012 C 
ATOM     30  C   UNL d   1      23.594 -19.172  -0.520  0.00  0.00     0.037 C 
ATOM     31  C   UNL d   1      22.312 -18.678  -0.771  0.00  0.00     0.068 C 
ATOM     32  C   UNL d   1      22.121 -17.310  -0.883  0.00  0.00     0.037 C 
ATOM     33  C   UNL d   1      23.200 -16.451  -0.731  0.00  0.00     0.012 C 
BRANCH  31  34
ATOM     34  O   UNL d   1      21.291 -19.584  -0.766  0.00  0.00    -0.352 OA
BRANCH  34  35
ATOM     35  C   UNL d   1      19.989 -19.048  -0.534  0.00  0.00     0.171 C 
ATOM     36  C   UNL d   1      19.125 -20.160   0.027  0.00  0.00     0.034 C 
ENDBRANCH  34  35
ENDBRANCH  31  34
ENDBRANCH  25  28
ENDBRANCH  24  25
ENDBRANCH  23  24
ENDBRANCH   1  23
TORSDOF 12
ENDMDL
MODEL 6
REMARK VINA RESULT:    -6.934      2.915      6.755
REMARK INTER + INTRA:         -16.145
REMARK INTER:                 -10.514
REMARK INTRA:                  -5.631
REMARK CONF_INDEPENDENT:        3.580
REMARK UNBOUND:                -5.631
REMARK  12 active torsions:
REMARK  status: ('A' for Active; 'I' for Inactive)
REMARK    1  A    between atoms: C_2  and  O_3 
REMARK    2  A    between atoms: O_3  and  C_4 
REMARK    3  A    between atoms: C_8  and  C_7 
REMARK    4  A    between atoms: C_8  and  C_10 
REMARK    5  A    between atoms: C_8  and  O_9 
REMARK    6  A    between atoms: C_10  and  C_11 
REMARK    7  A    between atoms: C_11  and  C_12 
REMARK       I    between atoms: C_12  and  N_14 
REMARK    8  A    between atoms: N_14  and  N_15 
REMARK    9  A    between atoms: C_16  and  C_17 
REMARK   10  A    between atoms: C_20  and  C_21 
REMARK   11  A    between atoms: C_23  and  N_24 
REMARK   12  A    between atoms: C_29  and  O_30 
ROOT
ATOM      1  C   UNL d   1      26.616 -15.085  -4.648  0.00  0.00     0.237 C 
ATOM      2  O   UNL d   1      26.459 -15.575  -5.770  0.00  0.00    -0.272 OA
ATOM      3  N   UNL d   1      27.735 -15.275  -3.860  0.00  0.00    -0.247 N 
ATOM      4  H   UNL d   1      27.803 -14.795  -2.969  0.00  0.00     0.192 HD
ENDROOT
BRANCH   3   5
ATOM      5  N   UNL d   1      28.819 -15.973  -4.346  0.00  0.00    -0.182 NA
ATOM      6  C   UNL d   1      29.747 -16.367  -3.518  0.00  0.00     0.175 C 
BRANCH   6   7
ATOM      7  C   UNL d   1      29.668 -16.243  -2.085  0.00  0.00     0.095 A 
ATOM      8  C   UNL d   1      30.258 -17.043  -1.130  0.00  0.00     0.041 A 
ATOM      9  C   UNL d   1      29.733 -16.653   0.105  0.00  0.00     0.041 A 
ATOM     10  C   UNL d   1      28.918 -15.567  -0.133  0.00  0.00     0.089 A 
ATOM     11  O   UNL d   1      28.875 -15.295  -1.480  0.00  0.00    -0.308 OA
BRANCH  10  12
ATOM     12  C   UNL d   1      28.217 -14.700   0.805  0.00  0.00     0.033 A 
ATOM     13  C   UNL d   1      28.424 -14.781   2.188  0.00  0.00     0.053 A 
ATOM     14  C   UNL d   1      27.713 -13.920   3.044  0.00  0.00     0.103 A 
ATOM     15  C   UNL d   1      26.895 -12.901   2.531  0.00  0.00     0.039 A 
ATOM     16  C   UNL d   1      26.721 -12.790   1.154  0.00  0.00     0.040 A 
ATOM     17  C   UNL d   1      27.371 -13.687   0.306  0.00  0.00     0.078 A 
BRANCH  14  18
ATOM     18  N   UNL d   1      27.733 -14.151   4.495  0.00  0.00    -0.116 N 
ATOM     19  O   UNL d   1      28.814 -14.446   5.017  0.00  0.00    -0.532 OA
ATOM     20  O   UNL d   1      26.653 -14.077   5.102  0.00  0.00    -0.532 OA
ENDBRANCH  14  18
BRANCH  17  21
ATOM     21  O   UNL d   1      27.199 -13.572  -1.050  0.00  0.00    -0.360 OA
ATOM     22  H   UNL d   1      27.403 -14.414  -1.486  0.00  0.00     0.217 HD
ENDBRANCH  17  21
ENDBRANCH  10  12
ENDBRANCH   6   7
ENDBRANCH   3   5
BRANCH   1  23
ATOM     23  C   UNL d   1      25.555 -14.227  -3.983  0.00  0.00     0.107 C 
BRANCH  23  24
ATOM     24  C   UNL d   1      25.299 -14.708  -2.540  0.00  0.00     0.046 C 
BRANCH  24  25
ATOM     25  C   UNL d   1      25.460 -16.220  -2.335  0.00  0.00     0.151 C 
BRANCH  25  26
ATOM     26  O   UNL d   1      26.763 -16.477  -1.812  0.00  0.00    -0.391 OA
ATOM     27  H   UNL d   1      27.273 -15.653  -1.883  0.00  0.00     0.210 HD
ENDBRANCH  25  26
BRANCH  25  28
ATOM     28  C   UNL d   1      24.420 -16.850  -1.429  0.00  0.00    -0.029 C 
ATOM     29  C   UNL d   1      24.643 -18.123  -0.893  0.00  0.00     0.012 C 
ATOM     30  C   UNL d   1      23.615 -18.792  -0.218  0.00  0.00     0.037 C 
ATOM     31  C   UNL d   1      22.367 -18.192  -0.043  0.00  0.00     0.068 C 
ATOM     32  C   UNL d   1      22.156 -16.908  -0.520  0.00  0.00     0.037 C 
ATOM     33  C   UNL d   1      23.191 -16.233  -1.154  0.00  0.00     0.012 C 
BRANCH  31  34
ATOM     34  O   UNL d   1      21.457 -18.874   0.713  0.00  0.00    -0.352 OA
BRANCH  34  35
ATOM     35  C   UNL d   1      20.764 -19.928   0.044  0.00  0.00     0.171 C 
ATOM     36  C   UNL d   1      20.055 -19.327  -1.154  0.00  0.00     0.034 C 
ENDBRANCH  34  35
ENDBRANCH  31  34
ENDBRANCH  25  28
ENDBRANCH  24  25
ENDBRANCH  23  24
ENDBRANCH   1  23
TORSDOF 12
ENDMDL
MODEL 7
REMARK VINA RESULT:    -6.873      3.315      5.385
REMARK INTER + INTRA:         -15.829
REMARK INTER:                 -10.452
REMARK INTRA:                  -5.377
REMARK CONF_INDEPENDENT:        3.580
REMARK UNBOUND:                -5.377
REMARK  12 active torsions:
REMARK  status: ('A' for Active; 'I' for Inactive)
REMARK    1  A    between atoms: C_2  and  O_3 
REMARK    2  A    between atoms: O_3  and  C_4 
REMARK    3  A    between atoms: C_8  and  C_7 
REMARK    4  A    between atoms: C_8  and  C_10 
REMARK    5  A    between atoms: C_8  and  O_9 
REMARK    6  A    between atoms: C_10  and  C_11 
REMARK    7  A    between atoms: C_11  and  C_12 
REMARK       I    between atoms: C_12  and  N_14 
REMARK    8  A    between atoms: N_14  and  N_15 
REMARK    9  A    between atoms: C_16  and  C_17 
REMARK   10  A    between atoms: C_20  and  C_21 
REMARK   11  A    between atoms: C_23  and  N_24 
REMARK   12  A    between atoms: C_29  and  O_30 
ROOT
ATOM      1  C   UNL d   1      28.726 -13.442   2.406  0.00  0.00     0.237 C 
ATOM      2  O   UNL d   1      29.157 -12.356   2.006  0.00  0.00    -0.272 OA
ATOM      3  N   UNL d   1      29.518 -14.506   2.791  0.00  0.00    -0.247 N 
ATOM      4  H   UNL d   1      29.081 -15.347   3.152  0.00  0.00     0.192 HD
ENDROOT
BRANCH   3   5
ATOM      5  N   UNL d   1      30.889 -14.371   2.840  0.00  0.00    -0.182 NA
ATOM      6  C   UNL d   1      31.592 -14.618   1.769  0.00  0.00     0.175 C 
BRANCH   6   7
ATOM      7  C   UNL d   1      31.033 -14.901   0.473  0.00  0.00     0.095 A 
ATOM      8  C   UNL d   1      31.535 -15.734  -0.505  0.00  0.00     0.041 A 
ATOM      9  C   UNL d   1      30.759 -15.528  -1.649  0.00  0.00     0.041 A 
ATOM     10  C   UNL d   1      29.755 -14.651  -1.297  0.00  0.00     0.089 A 
ATOM     11  O   UNL d   1      29.904 -14.262   0.012  0.00  0.00    -0.308 OA
BRANCH  10  12
ATOM     12  C   UNL d   1      28.606 -14.188  -2.065  0.00  0.00     0.033 A 
ATOM     13  C   UNL d   1      27.989 -14.989  -3.035  0.00  0.00     0.053 A 
ATOM     14  C   UNL d   1      26.887 -14.483  -3.748  0.00  0.00     0.103 A 
ATOM     15  C   UNL d   1      26.319 -13.243  -3.420  0.00  0.00     0.039 A 
ATOM     16  C   UNL d   1      26.904 -12.462  -2.426  0.00  0.00     0.040 A 
ATOM     17  C   UNL d   1      28.039 -12.931  -1.765  0.00  0.00     0.078 A 
BRANCH  14  18
ATOM     18  N   UNL d   1      26.384 -15.206  -4.924  0.00  0.00    -0.116 N 
ATOM     19  O   UNL d   1      27.206 -15.575  -5.771  0.00  0.00    -0.532 OA
ATOM     20  O   UNL d   1      25.156 -15.366  -5.016  0.00  0.00    -0.532 OA
ENDBRANCH  14  18
BRANCH  17  21
ATOM     21  O   UNL d   1      28.610 -12.161  -0.785  0.00  0.00    -0.360 OA
ATOM     22  H   UNL d   1      28.772 -12.694   0.009  0.00  0.00     0.217 HD
ENDBRANCH  17  21
ENDBRANCH  10  12
ENDBRANCH   6   7
ENDBRANCH   3   5
BRANCH   1  23
ATOM     23  C   UNL d   1      27.240 -13.743   2.486  0.00  0.00     0.107 C 
BRANCH  23  24
ATOM     24  C   UNL d   1      26.672 -14.033   1.082  0.00  0.00     0.046 C 
BRANCH  24  25
ATOM     25  C   UNL d   1      27.213 -15.310   0.427  0.00  0.00     0.151 C 
BRANCH  25  26
ATOM     26  O   UNL d   1      28.045 -15.992   1.365  0.00  0.00    -0.391 OA
ATOM     27  H   UNL d   1      28.956 -15.955   1.027  0.00  0.00     0.210 HD
ENDBRANCH  25  26
BRANCH  25  28
ATOM     28  C   UNL d   1      26.147 -16.260  -0.085  0.00  0.00    -0.029 C 
ATOM     29  C   UNL d   1      25.156 -15.793  -0.954  0.00  0.00     0.012 C 
ATOM     30  C   UNL d   1      24.063 -16.605  -1.278  0.00  0.00     0.037 C 
ATOM     31  C   UNL d   1      23.960 -17.900  -0.765  0.00  0.00     0.068 C 
ATOM     32  C   UNL d   1      24.967 -18.391   0.051  0.00  0.00     0.037 C 
ATOM     33  C   UNL d   1      26.068 -17.596   0.336  0.00  0.00     0.012 C 
BRANCH  31  34
ATOM     34  O   UNL d   1      22.914 -18.657  -1.212  0.00  0.00    -0.352 OA
BRANCH  34  35
ATOM     35  C   UNL d   1      21.614 -18.161  -0.896  0.00  0.00     0.171 C 
ATOM     36  C   UNL d   1      20.651 -19.332  -0.934  0.00  0.00     0.034 C 
ENDBRANCH  34  35
ENDBRANCH  31  34
ENDBRANCH  25  28
ENDBRANCH  24  25
ENDBRANCH  23  24
ENDBRANCH   1  23
TORSDOF 12
ENDMDL
MODEL 8
REMARK VINA RESULT:    -6.508      4.423      8.065
REMARK INTER + INTRA:         -15.695
REMARK INTER:                 -10.088
REMARK INTRA:                  -5.607
REMARK CONF_INDEPENDENT:        3.580
REMARK UNBOUND:                -5.607
REMARK  12 active torsions:
REMARK  status: ('A' for Active; 'I' for Inactive)
REMARK    1  A    between atoms: C_2  and  O_3 
REMARK    2  A    between atoms: O_3  and  C_4 
REMARK    3  A    between atoms: C_8  and  C_7 
REMARK    4  A    between atoms: C_8  and  C_10 
REMARK    5  A    between atoms: C_8  and  O_9 
REMARK    6  A    between atoms: C_10  and  C_11 
REMARK    7  A    between atoms: C_11  and  C_12 
REMARK       I    between atoms: C_12  and  N_14 
REMARK    8  A    between atoms: N_14  and  N_15 
REMARK    9  A    between atoms: C_16  and  C_17 
REMARK   10  A    between atoms: C_20  and  C_21 
REMARK   11  A    between atoms: C_23  and  N_24 
REMARK   12  A    between atoms: C_29  and  O_30 
ROOT
ATOM      1  C   UNL d   1      27.618 -12.397  -5.828  0.00  0.00     0.237 C 
ATOM      2  O   UNL d   1      28.132 -12.419  -6.950  0.00  0.00    -0.272 OA
ATOM      3  N   UNL d   1      26.459 -11.715  -5.511  0.00  0.00    -0.247 N 
ATOM      4  H   UNL d   1      26.079 -11.788  -4.573  0.00  0.00     0.192 HD
ENDROOT
BRANCH   3   5
ATOM      5  N   UNL d   1      25.736 -11.075  -6.495  0.00  0.00    -0.182 NA
ATOM      6  C   UNL d   1      25.156  -9.939  -6.222  0.00  0.00     0.175 C 
BRANCH   6   7
ATOM      7  C   UNL d   1      25.319  -9.215  -4.988  0.00  0.00     0.095 A 
ATOM      8  C   UNL d   1      25.145  -7.864  -4.766  0.00  0.00     0.041 A 
ATOM      9  C   UNL d   1      25.610  -7.604  -3.474  0.00  0.00     0.041 A 
ATOM     10  C   UNL d   1      25.958  -8.818  -2.923  0.00  0.00     0.089 A 
ATOM     11  O   UNL d   1      25.775  -9.824  -3.841  0.00  0.00    -0.308 OA
BRANCH  10  12
ATOM     12  C   UNL d   1      26.388  -9.142  -1.569  0.00  0.00     0.033 A 
ATOM     13  C   UNL d   1      25.904  -8.450  -0.450  0.00  0.00     0.053 A 
ATOM     14  C   UNL d   1      26.362  -8.805   0.832  0.00  0.00     0.103 A 
ATOM     15  C   UNL d   1      27.197  -9.917   1.021  0.00  0.00     0.039 A 
ATOM     16  C   UNL d   1      27.645 -10.634  -0.085  0.00  0.00     0.040 A 
ATOM     17  C   UNL d   1      27.248 -10.242  -1.364  0.00  0.00     0.078 A 
BRANCH  14  18
ATOM     18  N   UNL d   1      26.056  -7.942   1.981  0.00  0.00    -0.116 N 
ATOM     19  O   UNL d   1      25.479  -6.871   1.762  0.00  0.00    -0.532 OA
ATOM     20  O   UNL d   1      26.435  -8.323   3.100  0.00  0.00    -0.532 OA
ENDBRANCH  14  18
BRANCH  17  21
ATOM     21  O   UNL d   1      27.689 -10.952  -2.450  0.00  0.00    -0.360 OA
ATOM     22  H   UNL d   1      27.104 -10.802  -3.209  0.00  0.00     0.217 HD
ENDBRANCH  17  21
ENDBRANCH  10  12
ENDBRANCH   6   7
ENDBRANCH   3   5
BRANCH   1  23
ATOM     23  C   UNL d   1      28.239 -13.106  -4.638  0.00  0.00     0.107 C 
BRANCH  23  24
ATOM     24  C   UNL d   1      27.232 -14.094  -4.014  0.00  0.00     0.046 C 
BRANCH  24  25
ATOM     25  C   UNL d   1      26.657 -13.649  -2.663  0.00  0.00     0.151 C 
BRANCH  25  26
ATOM     26  O   UNL d   1      25.720 -12.595  -2.886  0.00  0.00    -0.391 OA
ATOM     27  H   UNL d   1      26.228 -11.777  -3.018  0.00  0.00     0.210 HD
ENDBRANCH  25  26
BRANCH  25  28
ATOM     28  C   UNL d   1      25.993 -14.752  -1.863  0.00  0.00    -0.029 C 
ATOM     29  C   UNL d   1      26.639 -15.286  -0.743  0.00  0.00     0.012 C 
ATOM     30  C   UNL d   1      26.129 -16.429  -0.114  0.00  0.00     0.037 C 
ATOM     31  C   UNL d   1      24.957 -17.033  -0.574  0.00  0.00     0.068 C 
ATOM     32  C   UNL d   1      24.280 -16.476  -1.647  0.00  0.00     0.037 C 
ATOM     33  C   UNL d   1      24.768 -15.321  -2.241  0.00  0.00     0.012 C 
BRANCH  31  34
ATOM     34  O   UNL d   1      24.478 -18.082   0.158  0.00  0.00    -0.352 OA
BRANCH  34  35
ATOM     35  C   UNL d   1      23.540 -18.925  -0.510  0.00  0.00     0.171 C 
ATOM     36  C   UNL d   1      22.157 -18.576   0.005  0.00  0.00     0.034 C 
ENDBRANCH  34  35
ENDBRANCH  31  34
ENDBRANCH  25  28
ENDBRANCH  24  25
ENDBRANCH  23  24
ENDBRANCH   1  23
TORSDOF 12
ENDMDL
