MODEL 1
REMARK VINA RESULT:    -9.338      0.000      0.000
REMARK INTER + INTRA:         -14.971
REMARK INTER:                 -12.918
REMARK INTRA:                  -2.053
REMARK CONF_INDEPENDENT:        3.580
REMARK UNBOUND:                -2.053
REMARK  12 active torsions:
REMARK  status: ('A' for Active; 'I' for Inactive)
REMARK    1  A    between atoms: C_2  and  C_3 
REMARK    2  A    between atoms: C_3  and  C_4 
REMARK    3  A    between atoms: C_4  and  O_5 
REMARK    4  A    between atoms: O_5  and  C_6 
REMARK    5  A    between atoms: C_11  and  C_12 
REMARK       I    between atoms: C_12  and  N_14 
REMARK    6  A    between atoms: N_14  and  C_15 
REMARK    7  A    between atoms: C_15  and  N_17 
REMARK    8  A    between atoms: N_17  and  N_18 
REMARK       I    between atoms: N_18  and  C_19 
REMARK    9  A    between atoms: C_19  and  C_21 
REMARK   10  A    between atoms: C_24  and  N_25 
REMARK       I    between atoms: N_25  and  C_26 
REMARK   11  A    between atoms: C_26  and  C_28 
REMARK   12  A    between atoms: C_28  and  C_29 
ROOT
ATOM      1  N   UNL d   1      28.172 -14.346  -0.101  0.00  0.00    -0.273 N 
ATOM      2  H   UNL d   1      28.112 -13.423  -0.525  0.00  0.00     0.189 HD
ENDROOT
BRANCH   1   3
ATOM      3  C   UNL d   1      29.247 -14.829   0.679  0.00  0.00     0.193 C 
ATOM      4  S   UNL d   1      30.643 -15.379  -0.094  0.00  0.00    -0.039 SA
BRANCH   3   5
ATOM      5  N   UNL d   1      29.061 -14.814   2.089  0.00  0.00    -0.298 N 
ATOM      6  C   UNL d   1      28.080 -14.064   2.802  0.00  0.00     0.260 C 
ATOM      7  O   UNL d   1      27.030 -13.682   2.286  0.00  0.00    -0.267 OA
ATOM      8  H   UNL d   1      29.786 -15.220   2.665  0.00  0.00     0.171 HD
BRANCH   6   9
ATOM      9  C   UNL d   1      28.230 -13.701   4.267  0.00  0.00     0.065 A 
ATOM     10  C   UNL d   1      28.782 -14.708   5.108  0.00  0.00     0.020 A 
ATOM     11  C   UNL d   1      29.041 -14.504   6.472  0.00  0.00     0.001 A 
ATOM     12  C   UNL d   1      28.752 -13.275   7.038  0.00  0.00     0.003 A 
ATOM     13  C   UNL d   1      28.123 -12.299   6.258  0.00  0.00     0.038 A 
ATOM     14  C   UNL d   1      27.847 -12.508   4.884  0.00  0.00     0.084 A 
BRANCH  14  15
ATOM     15  O   UNL d   1      27.332 -11.428   4.231  0.00  0.00    -0.350 OA
BRANCH  15  16
ATOM     16  C   UNL d   1      28.269 -10.556   3.593  0.00  0.00     0.175 C 
BRANCH  16  17
ATOM     17  C   UNL d   1      27.957 -10.680   2.107  0.00  0.00     0.026 C 
BRANCH  17  18
ATOM     18  C   UNL d   1      27.205  -9.465   1.593  0.00  0.00    -0.002 C 
ATOM     19  C   UNL d   1      25.924  -9.280   2.378  0.00  0.00     0.005 C 
ENDBRANCH  17  18
ENDBRANCH  16  17
ENDBRANCH  15  16
ENDBRANCH  14  15
ENDBRANCH   6   9
ENDBRANCH   3   5
ENDBRANCH   1   3
BRANCH   1  20
ATOM     20  N   UNL d   1      26.892 -15.052  -0.058  0.00  0.00    -0.264 N 
ATOM     21  C   UNL d   1      26.335 -15.687  -1.162  0.00  0.00     0.270 C 
ATOM     22  O   UNL d   1      26.728 -15.542  -2.325  0.00  0.00    -0.266 OA
ATOM     23  H   UNL d   1      26.572 -15.263   0.888  0.00  0.00     0.190 HD
BRANCH  21  24
ATOM     24  C   UNL d   1      25.193 -16.620  -0.938  0.00  0.00     0.033 A 
ATOM     25  C   UNL d   1      23.866 -16.243  -1.231  0.00  0.00     0.019 A 
ATOM     26  C   UNL d   1      22.773 -17.091  -0.920  0.00  0.00     0.030 A 
ATOM     27  C   UNL d   1      23.002 -18.355  -0.363  0.00  0.00     0.034 A 
ATOM     28  C   UNL d   1      24.329 -18.678  -0.048  0.00  0.00     0.030 A 
ATOM     29  C   UNL d   1      25.411 -17.842  -0.329  0.00  0.00     0.019 A 
BRANCH  27  30
ATOM     30  N   UNL d   1      21.931 -19.281  -0.154  0.00  0.00    -0.327 N 
ATOM     31  C   UNL d   1      20.632 -19.069  -0.610  0.00  0.00     0.222 C 
ATOM     32  O   UNL d   1      20.273 -18.097  -1.273  0.00  0.00    -0.273 OA
ATOM     33  H   UNL d   1      22.117 -20.090   0.429  0.00  0.00     0.169 HD
BRANCH  31  34
ATOM     34  C   UNL d   1      19.587 -20.109  -0.248  0.00  0.00     0.103 C 
BRANCH  34  35
ATOM     35  C   UNL d   1      19.042 -19.769   1.157  0.00  0.00     0.005 C 
ATOM     36  C   UNL d   1      20.121 -19.699   2.213  0.00  0.00     0.005 C 
ENDBRANCH  34  35
ENDBRANCH  31  34
ENDBRANCH  27  30
ENDBRANCH  21  24
ENDBRANCH   1  20
TORSDOF 12
ENDMDL
MODEL 2
REMARK VINA RESULT:    -9.153      4.320      6.391
REMARK INTER + INTRA:         -15.617
REMARK INTER:                 -12.732
REMARK INTRA:                  -2.885
REMARK CONF_INDEPENDENT:        3.580
REMARK UNBOUND:                -2.885
REMARK  12 active torsions:
REMARK  status: ('A' for Active; 'I' for Inactive)
REMARK    1  A    between atoms: C_2  and  C_3 
REMARK    2  A    between atoms: C_3  and  C_4 
REMARK    3  A    between atoms: C_4  and  O_5 
REMARK    4  A    between atoms: O_5  and  C_6 
REMARK    5  A    between atoms: C_11  and  C_12 
REMARK       I    between atoms: C_12  and  N_14 
REMARK    6  A    between atoms: N_14  and  C_15 
REMARK    7  A    between atoms: C_15  and  N_17 
REMARK    8  A    between atoms: N_17  and  N_18 
REMARK       I    between atoms: N_18  and  C_19 
REMARK    9  A    between atoms: C_19  and  C_21 
REMARK   10  A    between atoms: C_24  and  N_25 
REMARK       I    between atoms: N_25  and  C_26 
REMARK   11  A    between atoms: C_26  and  C_28 
REMARK   12  A    between atoms: C_28  and  C_29 
ROOT
ATOM      1  N   UNL d   1      28.856 -16.224   0.315  0.00  0.00    -0.273 N 
ATOM      2  H   UNL d   1      29.219 -15.831   1.181  0.00  0.00     0.189 HD
ENDROOT
BRANCH   1   3
ATOM      3  C   UNL d   1      29.630 -16.621  -0.800  0.00  0.00     0.193 C 
ATOM      4  S   UNL d   1      31.104 -17.402  -0.543  0.00  0.00    -0.039 SA
BRANCH   3   5
ATOM      5  N   UNL d   1      29.090 -16.321  -2.081  0.00  0.00    -0.298 N 
ATOM      6  C   UNL d   1      29.704 -16.591  -3.339  0.00  0.00     0.260 C 
ATOM      7  O   UNL d   1      30.550 -17.473  -3.491  0.00  0.00    -0.267 OA
ATOM      8  H   UNL d   1      28.290 -15.705  -2.123  0.00  0.00     0.171 HD
BRANCH   6   9
ATOM      9  C   UNL d   1      29.344 -15.838  -4.606  0.00  0.00     0.065 A 
ATOM     10  C   UNL d   1      30.366 -15.748  -5.593  0.00  0.00     0.020 A 
ATOM     11  C   UNL d   1      30.169 -15.139  -6.841  0.00  0.00     0.001 A 
ATOM     12  C   UNL d   1      28.931 -14.598  -7.141  0.00  0.00     0.003 A 
ATOM     13  C   UNL d   1      27.938 -14.590  -6.156  0.00  0.00     0.038 A 
ATOM     14  C   UNL d   1      28.140 -15.191  -4.889  0.00  0.00     0.084 A 
BRANCH  14  15
ATOM     15  O   UNL d   1      27.045 -15.200  -4.076  0.00  0.00    -0.350 OA
BRANCH  15  16
ATOM     16  C   UNL d   1      25.816 -14.744  -4.649  0.00  0.00     0.175 C 
BRANCH  16  17
ATOM     17  C   UNL d   1      25.063 -14.113  -3.484  0.00  0.00     0.026 C 
BRANCH  17  18
ATOM     18  C   UNL d   1      25.839 -12.955  -2.883  0.00  0.00    -0.002 C 
ATOM     19  C   UNL d   1      25.925 -11.818  -3.880  0.00  0.00     0.005 C 
ENDBRANCH  17  18
ENDBRANCH  16  17
ENDBRANCH  15  16
ENDBRANCH  14  15
ENDBRANCH   6   9
ENDBRANCH   3   5
ENDBRANCH   1   3
BRANCH   1  20
ATOM     20  N   UNL d   1      27.473 -16.687   0.419  0.00  0.00    -0.264 N 
ATOM     21  C   UNL d   1      26.501 -16.404  -0.533  0.00  0.00     0.270 C 
ATOM     22  O   UNL d   1      26.626 -15.565  -1.433  0.00  0.00    -0.266 OA
ATOM     23  H   UNL d   1      27.342 -17.439   1.097  0.00  0.00     0.190 HD
BRANCH  21  24
ATOM     24  C   UNL d   1      25.221 -17.166  -0.484  0.00  0.00     0.033 A 
ATOM     25  C   UNL d   1      23.972 -16.514  -0.537  0.00  0.00     0.019 A 
ATOM     26  C   UNL d   1      22.757 -17.229  -0.384  0.00  0.00     0.030 A 
ATOM     27  C   UNL d   1      22.779 -18.621  -0.233  0.00  0.00     0.034 A 
ATOM     28  C   UNL d   1      24.038 -19.231  -0.144  0.00  0.00     0.030 A 
ATOM     29  C   UNL d   1      25.240 -18.533  -0.271  0.00  0.00     0.019 A 
BRANCH  27  30
ATOM     30  N   UNL d   1      21.568 -19.385  -0.203  0.00  0.00    -0.327 N 
ATOM     31  C   UNL d   1      20.355 -18.920  -0.704  0.00  0.00     0.222 C 
ATOM     32  O   UNL d   1      20.197 -17.836  -1.262  0.00  0.00    -0.273 OA
ATOM     33  H   UNL d   1      21.586 -20.273   0.287  0.00  0.00     0.169 HD
BRANCH  31  34
ATOM     34  C   UNL d   1      19.141 -19.817  -0.533  0.00  0.00     0.103 C 
BRANCH  34  35
ATOM     35  C   UNL d   1      19.419 -20.777   0.644  0.00  0.00     0.005 C 
ATOM     36  C   UNL d   1      18.348 -20.738   1.710  0.00  0.00     0.005 C 
ENDBRANCH  34  35
ENDBRANCH  31  34
ENDBRANCH  27  30
ENDBRANCH  21  24
ENDBRANCH   1  20
TORSDOF 12
ENDMDL
MODEL 3
REMARK VINA RESULT:    -8.973      5.150      7.643
REMARK INTER + INTRA:         -15.106
REMARK INTER:                 -12.552
REMARK INTRA:                  -2.554
REMARK CONF_INDEPENDENT:        3.580
REMARK UNBOUND:                -2.554
REMARK  12 active torsions:
REMARK  status: ('A' for Active; 'I' for Inactive)
REMARK    1  A    between atoms: C_2  and  C_3 
REMARK    2  A    between atoms: C_3  and  C_4 
REMARK    3  A    between atoms: C_4  and  O_5 
REMARK    4  A    between atoms: O_5  and  C_6 
REMARK    5  A    between atoms: C_11  and  C_12 
REMARK       I    between atoms: C_12  and  N_14 
REMARK    6  A    between atoms: N_14  and  C_15 
REMARK    7  A    between atoms: C_15  and  N_17 
REMARK    8  A    between atoms: N_17  and  N_18 
REMARK       I    between atoms: N_18  and  C_19 
REMARK    9  A    between atoms: C_19  and  C_21 
REMARK   10  A    between atoms: C_24  and  N_25 
REMARK       I    between atoms: N_25  and  C_26 
REMARK   11  A    between atoms: C_26  and  C_28 
REMARK   12  A    between atoms: C_28  and  C_29 
ROOT
ATOM      1  N   UNL d   1      26.804 -15.237  -3.643  0.00  0.00    -0.273 N 
ATOM      2  H   UNL d   1      27.711 -15.616  -3.905  0.00  0.00     0.189 HD
ENDROOT
BRANCH   1   3
ATOM      3  C   UNL d   1      26.210 -14.070  -4.175  0.00  0.00     0.193 C 
ATOM      4  S   UNL d   1      24.752 -13.520  -3.526  0.00  0.00    -0.039 SA
BRANCH   3   5
ATOM      5  N   UNL d   1      26.905 -13.438  -5.242  0.00  0.00    -0.298 N 
ATOM      6  C   UNL d   1      27.981 -13.995  -5.994  0.00  0.00     0.260 C 
ATOM      7  O   UNL d   1      28.160 -15.208  -6.103  0.00  0.00    -0.267 OA
ATOM      8  H   UNL d   1      26.760 -12.447  -5.378  0.00  0.00     0.171 HD
BRANCH   6   9
ATOM      9  C   UNL d   1      28.980 -13.140  -6.752  0.00  0.00     0.065 A 
ATOM     10  C   UNL d   1      30.119 -13.819  -7.269  0.00  0.00     0.020 A 
ATOM     11  C   UNL d   1      31.100 -13.182  -8.043  0.00  0.00     0.001 A 
ATOM     12  C   UNL d   1      30.967 -11.833  -8.326  0.00  0.00     0.003 A 
ATOM     13  C   UNL d   1      29.908 -11.121  -7.754  0.00  0.00     0.038 A 
ATOM     14  C   UNL d   1      28.924 -11.760  -6.958  0.00  0.00     0.084 A 
BRANCH  14  15
ATOM     15  O   UNL d   1      27.896 -10.958  -6.561  0.00  0.00    -0.350 OA
BRANCH  15  16
ATOM     16  C   UNL d   1      26.735 -10.942  -7.397  0.00  0.00     0.175 C 
BRANCH  16  17
ATOM     17  C   UNL d   1      25.569 -10.794  -6.427  0.00  0.00     0.026 C 
BRANCH  17  18
ATOM     18  C   UNL d   1      25.260  -9.333  -6.147  0.00  0.00    -0.002 C 
ATOM     19  C   UNL d   1      25.277  -9.079  -4.654  0.00  0.00     0.005 C 
ENDBRANCH  17  18
ENDBRANCH  16  17
ENDBRANCH  15  16
ENDBRANCH  14  15
ENDBRANCH   6   9
ENDBRANCH   3   5
ENDBRANCH   1   3
BRANCH   1  20
ATOM     20  N   UNL d   1      25.969 -16.184  -2.903  0.00  0.00    -0.264 N 
ATOM     21  C   UNL d   1      25.552 -15.969  -1.595  0.00  0.00     0.270 C 
ATOM     22  O   UNL d   1      26.008 -15.096  -0.848  0.00  0.00    -0.266 OA
ATOM     23  H   UNL d   1      25.510 -16.875  -3.496  0.00  0.00     0.190 HD
BRANCH  21  24
ATOM     24  C   UNL d   1      24.472 -16.840  -1.047  0.00  0.00     0.033 A 
ATOM     25  C   UNL d   1      24.709 -18.191  -0.720  0.00  0.00     0.019 A 
ATOM     26  C   UNL d   1      23.658 -19.044  -0.299  0.00  0.00     0.030 A 
ATOM     27  C   UNL d   1      22.362 -18.536  -0.146  0.00  0.00     0.034 A 
ATOM     28  C   UNL d   1      22.155 -17.201  -0.519  0.00  0.00     0.030 A 
ATOM     29  C   UNL d   1      23.179 -16.359  -0.955  0.00  0.00     0.019 A 
BRANCH  27  30
ATOM     30  N   UNL d   1      21.308 -19.339   0.396  0.00  0.00    -0.327 N 
ATOM     31  C   UNL d   1      20.258 -19.844  -0.367  0.00  0.00     0.222 C 
ATOM     32  O   UNL d   1      20.143 -19.699  -1.583  0.00  0.00    -0.273 OA
ATOM     33  H   UNL d   1      21.286 -19.469   1.402  0.00  0.00     0.169 HD
BRANCH  31  34
ATOM     34  C   UNL d   1      19.174 -20.617   0.363  0.00  0.00     0.103 C 
BRANCH  34  35
ATOM     35  C   UNL d   1      18.889 -19.894   1.698  0.00  0.00     0.005 C 
ATOM     36  C   UNL d   1      19.682 -20.451   2.858  0.00  0.00     0.005 C 
ENDBRANCH  34  35
ENDBRANCH  31  34
ENDBRANCH  27  30
ENDBRANCH  21  24
ENDBRANCH   1  20
TORSDOF 12
ENDMDL
MODEL 4
REMARK VINA RESULT:    -8.920      3.944      6.460
REMARK INTER + INTRA:         -15.424
REMARK INTER:                 -12.499
REMARK INTRA:                  -2.924
REMARK CONF_INDEPENDENT:        3.580
REMARK UNBOUND:                -2.924
REMARK  12 active torsions:
REMARK  status: ('A' for Active; 'I' for Inactive)
REMARK    1  A    between atoms: C_2  and  C_3 
REMARK    2  A    between atoms: C_3  and  C_4 
REMARK    3  A    between atoms: C_4  and  O_5 
REMARK    4  A    between atoms: O_5  and  C_6 
REMARK    5  A    between atoms: C_11  and  C_12 
REMARK       I    between atoms: C_12  and  N_14 
REMARK    6  A    between atoms: N_14  and  C_15 
REMARK    7  A    between atoms: C_15  and  N_17 
REMARK    8  A    between atoms: N_17  and  N_18 
REMARK       I    between atoms: N_18  and  C_19 
REMARK    9  A    between atoms: C_19  and  C_21 
REMARK   10  A    between atoms: C_24  and  N_25 
REMARK       I    between atoms: N_25  and  C_26 
REMARK   11  A    between atoms: C_26  and  C_28 
REMARK   12  A    between atoms: C_28  and  C_29 
ROOT
ATOM      1  N   UNL d   1      28.763 -15.854   0.521  0.00  0.00    -0.273 N 
ATOM      2  H   UNL d   1      29.459 -16.408   1.015  0.00  0.00     0.189 HD
ENDROOT
BRANCH   1   3
ATOM      3  C   UNL d   1      29.032 -14.878  -0.465  0.00  0.00     0.193 C 
ATOM      4  S   UNL d   1      29.439 -13.312   0.016  0.00  0.00    -0.039 SA
BRANCH   3   5
ATOM      5  N   UNL d   1      28.934 -15.304  -1.818  0.00  0.00    -0.298 N 
ATOM      6  C   UNL d   1      29.867 -16.129  -2.513  0.00  0.00     0.260 C 
ATOM      7  O   UNL d   1      30.627 -16.905  -1.935  0.00  0.00    -0.267 OA
ATOM      8  H   UNL d   1      28.248 -14.850  -2.407  0.00  0.00     0.171 HD
BRANCH   6   9
ATOM      9  C   UNL d   1      29.980 -16.145  -4.026  0.00  0.00     0.065 A 
ATOM     10  C   UNL d   1      31.022 -16.949  -4.567  0.00  0.00     0.020 A 
ATOM     11  C   UNL d   1      31.218 -17.117  -5.946  0.00  0.00     0.001 A 
ATOM     12  C   UNL d   1      30.367 -16.479  -6.832  0.00  0.00     0.003 A 
ATOM     13  C   UNL d   1      29.393 -15.609  -6.330  0.00  0.00     0.038 A 
ATOM     14  C   UNL d   1      29.204 -15.426  -4.937  0.00  0.00     0.084 A 
BRANCH  14  15
ATOM     15  O   UNL d   1      28.147 -14.633  -4.600  0.00  0.00    -0.350 OA
BRANCH  15  16
ATOM     16  C   UNL d   1      26.938 -14.827  -5.339  0.00  0.00     0.175 C 
BRANCH  16  17
ATOM     17  C   UNL d   1      25.948 -15.368  -4.314  0.00  0.00     0.026 C 
BRANCH  17  18
ATOM     18  C   UNL d   1      25.143 -14.250  -3.675  0.00  0.00    -0.002 C 
ATOM     19  C   UNL d   1      25.482 -12.928  -4.332  0.00  0.00     0.005 C 
ENDBRANCH  17  18
ENDBRANCH  16  17
ENDBRANCH  15  16
ENDBRANCH  14  15
ENDBRANCH   6   9
ENDBRANCH   3   5
ENDBRANCH   1   3
BRANCH   1  20
ATOM     20  N   UNL d   1      27.404 -16.380   0.646  0.00  0.00    -0.264 N 
ATOM     21  C   UNL d   1      26.419 -16.181  -0.314  0.00  0.00     0.270 C 
ATOM     22  O   UNL d   1      26.503 -15.372  -1.246  0.00  0.00    -0.266 OA
ATOM     23  H   UNL d   1      27.310 -17.110   1.353  0.00  0.00     0.190 HD
BRANCH  21  24
ATOM     24  C   UNL d   1      25.177 -17.001  -0.232  0.00  0.00     0.033 A 
ATOM     25  C   UNL d   1      25.228 -18.406  -0.119  0.00  0.00     0.019 A 
ATOM     26  C   UNL d   1      24.048 -19.192  -0.146  0.00  0.00     0.030 A 
ATOM     27  C   UNL d   1      22.795 -18.573  -0.230  0.00  0.00     0.034 A 
ATOM     28  C   UNL d   1      22.785 -17.179  -0.382  0.00  0.00     0.030 A 
ATOM     29  C   UNL d   1      23.941 -16.398  -0.379  0.00  0.00     0.019 A 
BRANCH  27  30
ATOM     30  N   UNL d   1      21.583 -19.329  -0.134  0.00  0.00    -0.327 N 
ATOM     31  C   UNL d   1      20.364 -18.893  -0.646  0.00  0.00     0.222 C 
ATOM     32  O   UNL d   1      20.201 -17.846  -1.270  0.00  0.00    -0.273 OA
ATOM     33  H   UNL d   1      21.606 -20.184   0.411  0.00  0.00     0.169 HD
BRANCH  31  34
ATOM     34  C   UNL d   1      19.150 -19.773  -0.402  0.00  0.00     0.103 C 
BRANCH  34  35
ATOM     35  C   UNL d   1      19.504 -20.773   0.720  0.00  0.00     0.005 C 
ATOM     36  C   UNL d   1      18.794 -20.483   2.023  0.00  0.00     0.005 C 
ENDBRANCH  34  35
ENDBRANCH  31  34
ENDBRANCH  27  30
ENDBRANCH  21  24
ENDBRANCH   1  20
TORSDOF 12
ENDMDL
MODEL 5
REMARK VINA RESULT:    -8.888      4.319      7.263
REMARK INTER + INTRA:         -15.040
REMARK INTER:                 -12.468
REMARK INTRA:                  -2.572
REMARK CONF_INDEPENDENT:        3.580
REMARK UNBOUND:                -2.572
REMARK  12 active torsions:
REMARK  status: ('A' for Active; 'I' for Inactive)
REMARK    1  A    between atoms: C_2  and  C_3 
REMARK    2  A    between atoms: C_3  and  C_4 
REMARK    3  A    between atoms: C_4  and  O_5 
REMARK    4  A    between atoms: O_5  and  C_6 
REMARK    5  A    between atoms: C_11  and  C_12 
REMARK       I    between atoms: C_12  and  N_14 
REMARK    6  A    between atoms: N_14  and  C_15 
REMARK    7  A    between atoms: C_15  and  N_17 
REMARK    8  A    between atoms: N_17  and  N_18 
REMARK       I    between atoms: N_18  and  C_19 
REMARK    9  A    between atoms: C_19  and  C_21 
REMARK   10  A    between atoms: C_24  and  N_25 
REMARK       I    between atoms: N_25  and  C_26 
REMARK   11  A    between atoms: C_26  and  C_28 
REMARK   12  A    between atoms: C_28  and  C_29 
ROOT
ATOM      1  N   UNL d   1      28.297 -15.081  -2.247  0.00  0.00    -0.273 N 
ATOM      2  H   UNL d   1      28.768 -14.590  -1.490  0.00  0.00     0.189 HD
ENDROOT
BRANCH   1   3
ATOM      3  C   UNL d   1      28.728 -15.133  -3.593  0.00  0.00     0.193 C 
ATOM      4  S   UNL d   1      29.793 -16.353  -4.069  0.00  0.00    -0.039 SA
BRANCH   3   5
ATOM      5  N   UNL d   1      28.217 -14.128  -4.458  0.00  0.00    -0.298 N 
ATOM      6  C   UNL d   1      28.211 -14.164  -5.883  0.00  0.00     0.260 C 
ATOM      7  O   UNL d   1      28.251 -15.216  -6.522  0.00  0.00    -0.267 OA
ATOM      8  H   UNL d   1      27.999 -13.226  -4.056  0.00  0.00     0.171 HD
BRANCH   6   9
ATOM      9  C   UNL d   1      28.121 -12.913  -6.736  0.00  0.00     0.065 A 
ATOM     10  C   UNL d   1      28.531 -13.048  -8.092  0.00  0.00     0.020 A 
ATOM     11  C   UNL d   1      28.449 -12.001  -9.022  0.00  0.00     0.001 A 
ATOM     12  C   UNL d   1      27.950 -10.775  -8.616  0.00  0.00     0.003 A 
ATOM     13  C   UNL d   1      27.627 -10.586  -7.269  0.00  0.00     0.038 A 
ATOM     14  C   UNL d   1      27.724 -11.639  -6.324  0.00  0.00     0.084 A 
BRANCH  14  15
ATOM     15  O   UNL d   1      27.272 -11.333  -5.075  0.00  0.00    -0.350 OA
BRANCH  15  16
ATOM     16  C   UNL d   1      25.905 -11.646  -4.792  0.00  0.00     0.175 C 
BRANCH  16  17
ATOM     17  C   UNL d   1      25.861 -11.827  -3.280  0.00  0.00     0.026 C 
BRANCH  17  18
ATOM     18  C   UNL d   1      25.660 -13.283  -2.899  0.00  0.00    -0.002 C 
ATOM     19  C   UNL d   1      24.776 -13.967  -3.922  0.00  0.00     0.005 C 
ENDBRANCH  17  18
ENDBRANCH  16  17
ENDBRANCH  15  16
ENDBRANCH  14  15
ENDBRANCH   6   9
ENDBRANCH   3   5
ENDBRANCH   1   3
BRANCH   1  20
ATOM     20  N   UNL d   1      27.298 -16.044  -1.784  0.00  0.00    -0.264 N 
ATOM     21  C   UNL d   1      26.364 -15.756  -0.796  0.00  0.00     0.270 C 
ATOM     22  O   UNL d   1      26.411 -14.768  -0.055  0.00  0.00    -0.266 OA
ATOM     23  H   UNL d   1      27.172 -16.838  -2.413  0.00  0.00     0.190 HD
BRANCH  21  24
ATOM     24  C   UNL d   1      25.216 -16.691  -0.617  0.00  0.00     0.033 A 
ATOM     25  C   UNL d   1      25.410 -18.028  -0.214  0.00  0.00     0.019 A 
ATOM     26  C   UNL d   1      24.330 -18.943  -0.145  0.00  0.00     0.030 A 
ATOM     27  C   UNL d   1      23.027 -18.512  -0.424  0.00  0.00     0.034 A 
ATOM     28  C   UNL d   1      22.877 -17.188  -0.860  0.00  0.00     0.030 A 
ATOM     29  C   UNL d   1      23.938 -16.285  -0.953  0.00  0.00     0.019 A 
BRANCH  27  30
ATOM     30  N   UNL d   1      21.901 -19.377  -0.243  0.00  0.00    -0.327 N 
ATOM     31  C   UNL d   1      20.598 -19.022  -0.582  0.00  0.00     0.222 C 
ATOM     32  O   UNL d   1      20.277 -17.959  -1.111  0.00  0.00    -0.273 OA
ATOM     33  H   UNL d   1      22.058 -20.257   0.237  0.00  0.00     0.169 HD
BRANCH  31  34
ATOM     34  C   UNL d   1      19.498 -20.019  -0.262  0.00  0.00     0.103 C 
BRANCH  34  35
ATOM     35  C   UNL d   1      19.659 -20.449   1.213  0.00  0.00     0.005 C 
ATOM     36  C   UNL d   1      18.408 -20.237   2.035  0.00  0.00     0.005 C 
ENDBRANCH  34  35
ENDBRANCH  31  34
ENDBRANCH  27  30
ENDBRANCH  21  24
ENDBRANCH   1  20
TORSDOF 12
ENDMDL
MODEL 6
REMARK VINA RESULT:    -8.556      4.180      6.227
REMARK INTER + INTRA:         -15.596
REMARK INTER:                 -12.136
REMARK INTRA:                  -3.461
REMARK CONF_INDEPENDENT:        3.580
REMARK UNBOUND:                -3.461
REMARK  12 active torsions:
REMARK  status: ('A' for Active; 'I' for Inactive)
REMARK    1  A    between atoms: C_2  and  C_3 
REMARK    2  A    between atoms: C_3  and  C_4 
REMARK    3  A    between atoms: C_4  and  O_5 
REMARK    4  A    between atoms: O_5  and  C_6 
REMARK    5  A    between atoms: C_11  and  C_12 
REMARK       I    between atoms: C_12  and  N_14 
REMARK    6  A    between atoms: N_14  and  C_15 
REMARK    7  A    between atoms: C_15  and  N_17 
REMARK    8  A    between atoms: N_17  and  N_18 
REMARK       I    between atoms: N_18  and  C_19 
REMARK    9  A    between atoms: C_19  and  C_21 
REMARK   10  A    between atoms: C_24  and  N_25 
REMARK       I    between atoms: N_25  and  C_26 
REMARK   11  A    between atoms: C_26  and  C_28 
REMARK   12  A    between atoms: C_28  and  C_29 
ROOT
ATOM      1  N   UNL d   1      29.714 -16.640   0.183  0.00  0.00    -0.273 N 
ATOM      2  H   UNL d   1      30.148 -17.426   0.663  0.00  0.00     0.189 HD
ENDROOT
BRANCH   1   3
ATOM      3  C   UNL d   1      30.361 -15.758  -0.712  0.00  0.00     0.193 C 
ATOM      4  S   UNL d   1      31.956 -15.299  -0.405  0.00  0.00    -0.039 SA
BRANCH   3   5
ATOM      5  N   UNL d   1      29.597 -15.317  -1.826  0.00  0.00    -0.298 N 
ATOM      6  C   UNL d   1      28.664 -14.238  -1.835  0.00  0.00     0.260 C 
ATOM      7  O   UNL d   1      28.713 -13.309  -1.029  0.00  0.00    -0.267 OA
ATOM      8  H   UNL d   1      29.562 -15.915  -2.641  0.00  0.00     0.171 HD
BRANCH   6   9
ATOM      9  C   UNL d   1      27.551 -14.125  -2.859  0.00  0.00     0.065 A 
ATOM     10  C   UNL d   1      26.510 -13.204  -2.554  0.00  0.00     0.020 A 
ATOM     11  C   UNL d   1      25.443 -12.941  -3.426  0.00  0.00     0.001 A 
ATOM     12  C   UNL d   1      25.388 -13.599  -4.643  0.00  0.00     0.003 A 
ATOM     13  C   UNL d   1      26.346 -14.577  -4.930  0.00  0.00     0.038 A 
ATOM     14  C   UNL d   1      27.415 -14.856  -4.042  0.00  0.00     0.084 A 
BRANCH  14  15
ATOM     15  O   UNL d   1      28.328 -15.755  -4.507  0.00  0.00    -0.350 OA
BRANCH  15  16
ATOM     16  C   UNL d   1      29.355 -15.244  -5.362  0.00  0.00     0.175 C 
BRANCH  16  17
ATOM     17  C   UNL d   1      30.005 -16.486  -5.961  0.00  0.00     0.026 C 
BRANCH  17  18
ATOM     18  C   UNL d   1      31.134 -17.000  -5.086  0.00  0.00    -0.002 C 
ATOM     19  C   UNL d   1      30.568 -17.800  -3.931  0.00  0.00     0.005 C 
ENDBRANCH  17  18
ENDBRANCH  16  17
ENDBRANCH  15  16
ENDBRANCH  14  15
ENDBRANCH   6   9
ENDBRANCH   3   5
ENDBRANCH   1   3
BRANCH   1  20
ATOM     20  N   UNL d   1      28.252 -16.676   0.210  0.00  0.00    -0.264 N 
ATOM     21  C   UNL d   1      27.478 -17.005  -0.897  0.00  0.00     0.270 C 
ATOM     22  O   UNL d   1      27.907 -17.078  -2.054  0.00  0.00    -0.266 OA
ATOM     23  H   UNL d   1      27.860 -16.698   1.152  0.00  0.00     0.190 HD
BRANCH  21  24
ATOM     24  C   UNL d   1      26.033 -17.302  -0.684  0.00  0.00     0.033 A 
ATOM     25  C   UNL d   1      25.024 -16.473  -1.215  0.00  0.00     0.019 A 
ATOM     26  C   UNL d   1      23.654 -16.697  -0.925  0.00  0.00     0.030 A 
ATOM     27  C   UNL d   1      23.274 -17.794  -0.142  0.00  0.00     0.034 A 
ATOM     28  C   UNL d   1      24.306 -18.572   0.402  0.00  0.00     0.030 A 
ATOM     29  C   UNL d   1      25.658 -18.347   0.141  0.00  0.00     0.019 A 
BRANCH  27  30
ATOM     30  N   UNL d   1      21.896 -18.119   0.065  0.00  0.00    -0.327 N 
ATOM     31  C   UNL d   1      21.134 -18.846  -0.847  0.00  0.00     0.222 C 
ATOM     32  O   UNL d   1      21.563 -19.323  -1.896  0.00  0.00    -0.273 OA
ATOM     33  H   UNL d   1      21.437 -17.724   0.878  0.00  0.00     0.169 HD
BRANCH  31  34
ATOM     34  C   UNL d   1      19.664 -19.049  -0.522  0.00  0.00     0.103 C 
BRANCH  34  35
ATOM     35  C   UNL d   1      19.527 -20.373   0.262  0.00  0.00     0.005 C 
ATOM     36  C   UNL d   1      19.751 -20.212   1.748  0.00  0.00     0.005 C 
ENDBRANCH  34  35
ENDBRANCH  31  34
ENDBRANCH  27  30
ENDBRANCH  21  24
ENDBRANCH   1  20
TORSDOF 12
ENDMDL
MODEL 7
REMARK VINA RESULT:    -8.307      3.163      5.618
REMARK INTER + INTRA:         -15.264
REMARK INTER:                 -11.886
REMARK INTRA:                  -3.377
REMARK CONF_INDEPENDENT:        3.580
REMARK UNBOUND:                -3.377
REMARK  12 active torsions:
REMARK  status: ('A' for Active; 'I' for Inactive)
REMARK    1  A    between atoms: C_2  and  C_3 
REMARK    2  A    between atoms: C_3  and  C_4 
REMARK    3  A    between atoms: C_4  and  O_5 
REMARK    4  A    between atoms: O_5  and  C_6 
REMARK    5  A    between atoms: C_11  and  C_12 
REMARK       I    between atoms: C_12  and  N_14 
REMARK    6  A    between atoms: N_14  and  C_15 
REMARK    7  A    between atoms: C_15  and  N_17 
REMARK    8  A    between atoms: N_17  and  N_18 
REMARK       I    between atoms: N_18  and  C_19 
REMARK    9  A    between atoms: C_19  and  C_21 
REMARK   10  A    between atoms: C_24  and  N_25 
REMARK       I    between atoms: N_25  and  C_26 
REMARK   11  A    between atoms: C_26  and  C_28 
REMARK   12  A    between atoms: C_28  and  C_29 
ROOT
ATOM      1  N   UNL d   1      28.633 -15.037   1.066  0.00  0.00    -0.273 N 
ATOM      2  H   UNL d   1      29.302 -15.749   1.352  0.00  0.00     0.189 HD
ENDROOT
BRANCH   1   3
ATOM      3  C   UNL d   1      28.952 -13.740   0.604  0.00  0.00     0.193 C 
ATOM      4  S   UNL d   1      29.932 -12.746   1.552  0.00  0.00    -0.039 SA
BRANCH   3   5
ATOM      5  N   UNL d   1      28.406 -13.366  -0.655  0.00  0.00    -0.298 N 
ATOM      6  C   UNL d   1      28.269 -12.038  -1.154  0.00  0.00     0.260 C 
ATOM      7  O   UNL d   1      28.971 -11.105  -0.764  0.00  0.00    -0.267 OA
ATOM      8  H   UNL d   1      27.903 -14.071  -1.178  0.00  0.00     0.171 HD
BRANCH   6   9
ATOM      9  C   UNL d   1      27.270 -11.666  -2.233  0.00  0.00     0.065 A 
ATOM     10  C   UNL d   1      27.241 -10.295  -2.615  0.00  0.00     0.020 A 
ATOM     11  C   UNL d   1      26.417  -9.806  -3.639  0.00  0.00     0.001 A 
ATOM     12  C   UNL d   1      25.591 -10.683  -4.319  0.00  0.00     0.003 A 
ATOM     13  C   UNL d   1      25.530 -12.018  -3.904  0.00  0.00     0.038 A 
ATOM     14  C   UNL d   1      26.350 -12.511  -2.858  0.00  0.00     0.084 A 
BRANCH  14  15
ATOM     15  O   UNL d   1      26.258 -13.853  -2.640  0.00  0.00    -0.350 OA
BRANCH  15  16
ATOM     16  C   UNL d   1      25.213 -14.546  -3.330  0.00  0.00     0.175 C 
BRANCH  16  17
ATOM     17  C   UNL d   1      25.907 -15.189  -4.525  0.00  0.00     0.026 C 
BRANCH  17  18
ATOM     18  C   UNL d   1      27.415 -15.204  -4.350  0.00  0.00    -0.002 C 
ATOM     19  C   UNL d   1      28.063 -14.293  -5.373  0.00  0.00     0.005 C 
ENDBRANCH  17  18
ENDBRANCH  16  17
ENDBRANCH  15  16
ENDBRANCH  14  15
ENDBRANCH   6   9
ENDBRANCH   3   5
ENDBRANCH   1   3
BRANCH   1  20
ATOM     20  N   UNL d   1      27.288 -15.563   0.831  0.00  0.00    -0.264 N 
ATOM     21  C   UNL d   1      26.888 -16.115  -0.379  0.00  0.00     0.270 C 
ATOM     22  O   UNL d   1      27.524 -16.023  -1.436  0.00  0.00    -0.266 OA
ATOM     23  H   UNL d   1      26.758 -15.728   1.687  0.00  0.00     0.190 HD
BRANCH  21  24
ATOM     24  C   UNL d   1      25.610 -16.884  -0.416  0.00  0.00     0.033 A 
ATOM     25  C   UNL d   1      24.367 -16.240  -0.583  0.00  0.00     0.019 A 
ATOM     26  C   UNL d   1      23.147 -16.960  -0.512  0.00  0.00     0.030 A 
ATOM     27  C   UNL d   1      23.162 -18.348  -0.331  0.00  0.00     0.034 A 
ATOM     28  C   UNL d   1      24.413 -18.948  -0.128  0.00  0.00     0.030 A 
ATOM     29  C   UNL d   1      25.618 -18.246  -0.173  0.00  0.00     0.019 A 
BRANCH  27  30
ATOM     30  N   UNL d   1      21.957 -19.118  -0.381  0.00  0.00    -0.327 N 
ATOM     31  C   UNL d   1      20.740 -18.611  -0.829  0.00  0.00     0.222 C 
ATOM     32  O   UNL d   1      20.575 -17.474  -1.270  0.00  0.00    -0.273 OA
ATOM     33  H   UNL d   1      21.980 -20.053   0.013  0.00  0.00     0.169 HD
BRANCH  31  34
ATOM     34  C   UNL d   1      19.532 -19.528  -0.755  0.00  0.00     0.103 C 
BRANCH  34  35
ATOM     35  C   UNL d   1      19.706 -20.448   0.474  0.00  0.00     0.005 C 
ATOM     36  C   UNL d   1      18.400 -21.008   0.988  0.00  0.00     0.005 C 
ENDBRANCH  34  35
ENDBRANCH  31  34
ENDBRANCH  27  30
ENDBRANCH  21  24
ENDBRANCH   1  20
TORSDOF 12
ENDMDL
MODEL 8
REMARK VINA RESULT:    -8.117      4.222      6.863
REMARK INTER + INTRA:         -14.933
REMARK INTER:                 -11.696
REMARK INTRA:                  -3.237
REMARK CONF_INDEPENDENT:        3.580
REMARK UNBOUND:                -3.237
REMARK  12 active torsions:
REMARK  status: ('A' for Active; 'I' for Inactive)
REMARK    1  A    between atoms: C_2  and  C_3 
REMARK    2  A    between atoms: C_3  and  C_4 
REMARK    3  A    between atoms: C_4  and  O_5 
REMARK    4  A    between atoms: O_5  and  C_6 
REMARK    5  A    between atoms: C_11  and  C_12 
REMARK       I    between atoms: C_12  and  N_14 
REMARK    6  A    between atoms: N_14  and  C_15 
REMARK    7  A    between atoms: C_15  and  N_17 
REMARK    8  A    between atoms: N_17  and  N_18 
REMARK       I    between atoms: N_18  and  C_19 
REMARK    9  A    between atoms: C_19  and  C_21 
REMARK   10  A    between atoms: C_24  and  N_25 
REMARK       I    between atoms: N_25  and  C_26 
REMARK   11  A    between atoms: C_26  and  C_28 
REMARK   12  A    between atoms: C_28  and  C_29 
ROOT
ATOM      1  N   UNL d   1      26.044 -13.273  -2.725  0.00  0.00    -0.273 N 
ATOM      2  H   UNL d   1      26.285 -12.684  -1.931  0.00  0.00     0.189 HD
ENDROOT
BRANCH   1   3
ATOM      3  C   UNL d   1      26.727 -13.311  -3.962  0.00  0.00     0.193 C 
ATOM      4  S   UNL d   1      26.199 -12.322  -5.224  0.00  0.00    -0.039 SA
BRANCH   3   5
ATOM      5  N   UNL d   1      27.831 -14.203  -4.047  0.00  0.00    -0.298 N 
ATOM      6  C   UNL d   1      28.607 -14.476  -5.211  0.00  0.00     0.260 C 
ATOM      7  O   UNL d   1      28.696 -13.688  -6.152  0.00  0.00    -0.267 OA
ATOM      8  H   UNL d   1      27.983 -14.839  -3.276  0.00  0.00     0.171 HD
BRANCH   6   9
ATOM      9  C   UNL d   1      29.417 -15.748  -5.377  0.00  0.00     0.065 A 
ATOM     10  C   UNL d   1      30.031 -15.939  -6.647  0.00  0.00     0.020 A 
ATOM     11  C   UNL d   1      30.860 -17.033  -6.937  0.00  0.00     0.001 A 
ATOM     12  C   UNL d   1      31.103 -17.976  -5.953  0.00  0.00     0.003 A 
ATOM     13  C   UNL d   1      30.439 -17.864  -4.727  0.00  0.00     0.038 A 
ATOM     14  C   UNL d   1      29.588 -16.768  -4.438  0.00  0.00     0.084 A 
BRANCH  14  15
ATOM     15  O   UNL d   1      29.100 -16.739  -3.165  0.00  0.00    -0.350 OA
BRANCH  15  16
ATOM     16  C   UNL d   1      30.049 -16.518  -2.118  0.00  0.00     0.175 C 
BRANCH  16  17
ATOM     17  C   UNL d   1      29.338 -16.987  -0.854  0.00  0.00     0.026 C 
BRANCH  17  18
ATOM     18  C   UNL d   1      29.359 -15.918   0.225  0.00  0.00    -0.002 C 
ATOM     19  C   UNL d   1      28.693 -14.657  -0.285  0.00  0.00     0.005 C 
ENDBRANCH  17  18
ENDBRANCH  16  17
ENDBRANCH  15  16
ENDBRANCH  14  15
ENDBRANCH   6   9
ENDBRANCH   3   5
ENDBRANCH   1   3
BRANCH   1  20
ATOM     20  N   UNL d   1      25.127 -14.362  -2.388  0.00  0.00    -0.264 N 
ATOM     21  C   UNL d   1      25.556 -15.610  -1.952  0.00  0.00     0.270 C 
ATOM     22  O   UNL d   1      26.724 -16.011  -2.016  0.00  0.00    -0.266 OA
ATOM     23  H   UNL d   1      24.163 -14.057  -2.248  0.00  0.00     0.190 HD
BRANCH  21  24
ATOM     24  C   UNL d   1      24.548 -16.533  -1.355  0.00  0.00     0.033 A 
ATOM     25  C   UNL d   1      24.888 -17.847  -0.972  0.00  0.00     0.019 A 
ATOM     26  C   UNL d   1      23.906 -18.757  -0.503  0.00  0.00     0.030 A 
ATOM     27  C   UNL d   1      22.578 -18.340  -0.357  0.00  0.00     0.034 A 
ATOM     28  C   UNL d   1      22.269 -17.041  -0.786  0.00  0.00     0.030 A 
ATOM     29  C   UNL d   1      23.223 -16.145  -1.270  0.00  0.00     0.019 A 
BRANCH  27  30
ATOM     30  N   UNL d   1      21.590 -19.193   0.231  0.00  0.00    -0.327 N 
ATOM     31  C   UNL d   1      20.514 -19.723  -0.477  0.00  0.00     0.222 C 
ATOM     32  O   UNL d   1      20.317 -19.558  -1.680  0.00  0.00    -0.273 OA
ATOM     33  H   UNL d   1      21.637 -19.345   1.232  0.00  0.00     0.169 HD
BRANCH  31  34
ATOM     34  C   UNL d   1      19.508 -20.553   0.301  0.00  0.00     0.103 C 
BRANCH  34  35
ATOM     35  C   UNL d   1      19.116 -19.762   1.568  0.00  0.00     0.005 C 
ATOM     36  C   UNL d   1      19.527 -20.448   2.850  0.00  0.00     0.005 C 
ENDBRANCH  34  35
ENDBRANCH  31  34
ENDBRANCH  27  30
ENDBRANCH  21  24
ENDBRANCH   1  20
TORSDOF 12
ENDMDL
MODEL 9
REMARK VINA RESULT:    -7.942      2.243      3.661
REMARK INTER + INTRA:         -14.833
REMARK INTER:                 -11.521
REMARK INTRA:                  -3.312
REMARK CONF_INDEPENDENT:        3.580
REMARK UNBOUND:                -3.312
REMARK  12 active torsions:
REMARK  status: ('A' for Active; 'I' for Inactive)
REMARK    1  A    between atoms: C_2  and  C_3 
REMARK    2  A    between atoms: C_3  and  C_4 
REMARK    3  A    between atoms: C_4  and  O_5 
REMARK    4  A    between atoms: O_5  and  C_6 
REMARK    5  A    between atoms: C_11  and  C_12 
REMARK       I    between atoms: C_12  and  N_14 
REMARK    6  A    between atoms: N_14  and  C_15 
REMARK    7  A    between atoms: C_15  and  N_17 
REMARK    8  A    between atoms: N_17  and  N_18 
REMARK       I    between atoms: N_18  and  C_19 
REMARK    9  A    between atoms: C_19  and  C_21 
REMARK   10  A    between atoms: C_24  and  N_25 
REMARK       I    between atoms: N_25  and  C_26 
REMARK   11  A    between atoms: C_26  and  C_28 
REMARK   12  A    between atoms: C_28  and  C_29 
ROOT
ATOM      1  N   UNL d   1      29.756 -17.432  -0.282  0.00  0.00    -0.273 N 
ATOM      2  H   UNL d   1      30.227 -18.324  -0.146  0.00  0.00     0.189 HD
ENDROOT
BRANCH   1   3
ATOM      3  C   UNL d   1      30.283 -16.315  -0.970  0.00  0.00     0.193 C 
ATOM      4  S   UNL d   1      31.468 -16.557  -2.146  0.00  0.00    -0.039 SA
BRANCH   3   5
ATOM      5  N   UNL d   1      29.760 -15.045  -0.604  0.00  0.00    -0.298 N 
ATOM      6  C   UNL d   1      29.716 -14.498   0.712  0.00  0.00     0.260 C 
ATOM      7  O   UNL d   1      30.485 -14.853   1.606  0.00  0.00    -0.267 OA
ATOM      8  H   UNL d   1      29.206 -14.548  -1.288  0.00  0.00     0.171 HD
BRANCH   6   9
ATOM      9  C   UNL d   1      28.742 -13.407   1.116  0.00  0.00     0.065 A 
ATOM     10  C   UNL d   1      28.660 -13.124   2.508  0.00  0.00     0.020 A 
ATOM     11  C   UNL d   1      27.853 -12.104   3.033  0.00  0.00     0.001 A 
ATOM     12  C   UNL d   1      27.097 -11.330   2.170  0.00  0.00     0.003 A 
ATOM     13  C   UNL d   1      27.086 -11.645   0.808  0.00  0.00     0.038 A 
ATOM     14  C   UNL d   1      27.889 -12.686   0.277  0.00  0.00     0.084 A 
BRANCH  14  15
ATOM     15  O   UNL d   1      27.855 -12.804  -1.080  0.00  0.00    -0.350 OA
BRANCH  15  16
ATOM     16  C   UNL d   1      26.631 -13.274  -1.653  0.00  0.00     0.175 C 
BRANCH  16  17
ATOM     17  C   UNL d   1      26.838 -13.138  -3.157  0.00  0.00     0.026 C 
BRANCH  17  18
ATOM     18  C   UNL d   1      26.195 -14.288  -3.913  0.00  0.00    -0.002 C 
ATOM     19  C   UNL d   1      24.734 -13.983  -4.170  0.00  0.00     0.005 C 
ENDBRANCH  17  18
ENDBRANCH  16  17
ENDBRANCH  15  16
ENDBRANCH  14  15
ENDBRANCH   6   9
ENDBRANCH   3   5
ENDBRANCH   1   3
BRANCH   1  20
ATOM     20  N   UNL d   1      28.319 -17.485  -0.011  0.00  0.00    -0.264 N 
ATOM     21  C   UNL d   1      27.369 -16.877  -0.821  0.00  0.00     0.270 C 
ATOM     22  O   UNL d   1      27.627 -16.054  -1.708  0.00  0.00    -0.266 OA
ATOM     23  H   UNL d   1      28.056 -18.208   0.660  0.00  0.00     0.190 HD
BRANCH  21  24
ATOM     24  C   UNL d   1      25.936 -17.241  -0.624  0.00  0.00     0.033 A 
ATOM     25  C   UNL d   1      24.897 -16.494  -1.217  0.00  0.00     0.019 A 
ATOM     26  C   UNL d   1      23.535 -16.778  -0.944  0.00  0.00     0.030 A 
ATOM     27  C   UNL d   1      23.196 -17.855  -0.117  0.00  0.00     0.034 A 
ATOM     28  C   UNL d   1      24.254 -18.550   0.487  0.00  0.00     0.030 A 
ATOM     29  C   UNL d   1      25.598 -18.264   0.243  0.00  0.00     0.019 A 
BRANCH  27  30
ATOM     30  N   UNL d   1      21.832 -18.245   0.077  0.00  0.00    -0.327 N 
ATOM     31  C   UNL d   1      21.089 -18.936  -0.876  0.00  0.00     0.222 C 
ATOM     32  O   UNL d   1      21.526 -19.325  -1.958  0.00  0.00    -0.273 OA
ATOM     33  H   UNL d   1      21.367 -17.922   0.918  0.00  0.00     0.169 HD
BRANCH  31  34
ATOM     34  C   UNL d   1      19.631 -19.215  -0.556  0.00  0.00     0.103 C 
BRANCH  34  35
ATOM     35  C   UNL d   1      19.584 -20.221   0.615  0.00  0.00     0.005 C 
ATOM     36  C   UNL d   1      18.353 -21.098   0.597  0.00  0.00     0.005 C 
ENDBRANCH  34  35
ENDBRANCH  31  34
ENDBRANCH  27  30
ENDBRANCH  21  24
ENDBRANCH   1  20
TORSDOF 12
ENDMDL
