MODEL 1
REMARK VINA RESULT:   -10.502      0.000      0.000
REMARK INTER + INTRA:         -14.094
REMARK INTER:                 -12.590
REMARK INTRA:                  -1.505
REMARK CONF_INDEPENDENT:        2.088
REMARK UNBOUND:                -1.505
REMARK  7 active torsions:
REMARK  status: ('A' for Active; 'I' for Inactive)
REMARK    1  A    between atoms: C_2  and  C_3 
REMARK    2  A    between atoms: C_2  and  O_10 
REMARK    3  A    between atoms: C_4  and  C_5 
REMARK    4  A    between atoms: O_10  and  C_11 
REMARK    5  A    between atoms: C_14  and  C_15 
REMARK    6  A    between atoms: N_26  and  C_27 
REMARK    7  A    between atoms: C_27  and  C_28 
ROOT
ATOM      1  C   UNL d   1      25.587 -10.776  -3.668  0.00  0.00     0.219 C 
ATOM      2  N   UNL d   1      26.850 -10.752  -2.992  0.00  0.00    -0.332 N 
ATOM      3  C   UNL d   1      27.048 -11.668  -2.011  0.00  0.00     0.256 C 
ATOM      4  O   UNL d   1      27.602 -11.426  -0.936  0.00  0.00    -0.267 OA
ATOM      5  C   UNL d   1      26.660 -12.999  -2.424  0.00  0.00     0.073 C 
ATOM      6  C   UNL d   1      25.872 -13.155  -3.547  0.00  0.00     0.088 C 
ATOM      7  S   UNL d   1      25.511 -14.796  -3.826  0.00  0.00    -0.074 SA
ATOM      8  C   UNL d   1      26.464 -15.297  -2.489  0.00  0.00     0.018 C 
ATOM      9  C   UNL d   1      27.088 -14.238  -1.865  0.00  0.00    -0.023 C 
ATOM     10  C   UNL d   1      27.898 -14.365  -0.605  0.00  0.00     0.068 C 
ATOM     11  C   UNL d   1      27.967 -15.768   0.011  0.00  0.00     0.240 C 
ATOM     12  N   UNL d   1      27.097 -16.866  -0.605  0.00  0.00    -0.062 N 
ATOM     13  C   UNL d   1      26.493 -16.701  -2.005  0.00  0.00     0.282 C 
ATOM     14  N   UNL d   1      25.484 -12.089  -4.293  0.00  0.00    -0.358 N 
ATOM     15  H   UNL d   1      27.469  -9.958  -3.050  0.00  0.00     0.165 HD
ATOM     16  H   UNL d   1      27.752 -17.648  -0.717  0.00  0.00     0.280 HD
ATOM     17  H   UNL d   1      24.946 -12.163  -5.150  0.00  0.00     0.162 HD
ENDROOT
BRANCH   1  18
ATOM     18  C   UNL d   1      25.444  -9.635  -4.641  0.00  0.00    -0.016 C 
ATOM     19  C   UNL d   1      25.874  -9.770  -5.979  0.00  0.00     0.014 C 
ATOM     20  C   UNL d   1      25.883  -8.670  -6.842  0.00  0.00     0.038 C 
ATOM     21  C   UNL d   1      25.345  -7.469  -6.394  0.00  0.00     0.079 C 
ATOM     22  C   UNL d   1      24.756  -7.371  -5.136  0.00  0.00     0.038 C 
ATOM     23  C   UNL d   1      24.861  -8.427  -4.241  0.00  0.00     0.014 C 
BRANCH  21  24
ATOM     24  O   UNL d   1      25.379  -6.356  -7.271  0.00  0.00    -0.276 OA
BRANCH  24  25
ATOM     25  C   UNL d   1      24.423  -5.990  -8.233  0.00  0.00     0.288 C 
ATOM     26  O   UNL d   1      24.703  -5.229  -9.151  0.00  0.00    -0.260 OA
BRANCH  25  27
ATOM     27  C   UNL d   1      23.061  -6.533  -8.037  0.00  0.00     0.085 C 
ATOM     28  C   UNL d   1      21.971  -5.780  -8.240  0.00  0.00     0.043 C 
BRANCH  28  29
ATOM     29  C   UNL d   1      20.667  -6.331  -8.078  0.00  0.00     0.075 A 
ATOM     30  C   UNL d   1      19.830  -6.358  -6.964  0.00  0.00     0.039 A 
ATOM     31  C   UNL d   1      18.612  -6.968  -7.345  0.00  0.00     0.027 A 
ATOM     32  C   UNL d   1      18.770  -7.326  -8.659  0.00  0.00     0.142 A 
ATOM     33  O   UNL d   1      19.992  -6.949  -9.107  0.00  0.00    -0.323 OA
ENDBRANCH  28  29
ENDBRANCH  25  27
ENDBRANCH  24  25
ENDBRANCH  21  24
ENDBRANCH   1  18
BRANCH  12  34
ATOM     34  C   UNL d   1      26.037 -17.352   0.383  0.00  0.00     0.273 C 
BRANCH  34  35
ATOM     35  C   UNL d   1      24.654 -17.586  -0.188  0.00  0.00    -0.033 C 
ATOM     36  C   UNL d   1      23.771 -16.548  -0.479  0.00  0.00     0.009 C 
ATOM     37  C   UNL d   1      22.418 -16.635  -0.715  0.00  0.00     0.001 C 
ATOM     38  C   UNL d   1      21.918 -17.889  -0.893  0.00  0.00     0.000 C 
ATOM     39  C   UNL d   1      22.779 -18.987  -0.753  0.00  0.00     0.001 C 
ATOM     40  C   UNL d   1      24.130 -18.847  -0.376  0.00  0.00     0.009 C 
ENDBRANCH  34  35
ENDBRANCH  12  34
TORSDOF 7
ENDMDL
MODEL 2
REMARK VINA RESULT:   -10.469      7.845     12.078
REMARK INTER + INTRA:         -13.712
REMARK INTER:                 -12.557
REMARK INTRA:                  -1.154
REMARK CONF_INDEPENDENT:        2.088
REMARK UNBOUND:                -1.154
REMARK  7 active torsions:
REMARK  status: ('A' for Active; 'I' for Inactive)
REMARK    1  A    between atoms: C_2  and  C_3 
REMARK    2  A    between atoms: C_2  and  O_10 
REMARK    3  A    between atoms: C_4  and  C_5 
REMARK    4  A    between atoms: O_10  and  C_11 
REMARK    5  A    between atoms: C_14  and  C_15 
REMARK    6  A    between atoms: N_26  and  C_27 
REMARK    7  A    between atoms: C_27  and  C_28 
ROOT
ATOM      1  C   UNL d   1      28.648 -13.870   2.952  0.00  0.00     0.219 C 
ATOM      2  N   UNL d   1      28.693 -14.863   3.983  0.00  0.00    -0.332 N 
ATOM      3  C   UNL d   1      29.290 -14.521   5.152  0.00  0.00     0.256 C 
ATOM      4  O   UNL d   1      30.037 -15.262   5.795  0.00  0.00    -0.267 OA
ATOM      5  C   UNL d   1      28.839 -13.233   5.635  0.00  0.00     0.073 C 
ATOM      6  C   UNL d   1      28.169 -12.386   4.775  0.00  0.00     0.088 C 
ATOM      7  S   UNL d   1      27.764 -10.920   5.541  0.00  0.00    -0.074 SA
ATOM      8  C   UNL d   1      28.424 -11.447   7.036  0.00  0.00     0.018 C 
ATOM      9  C   UNL d   1      28.903 -12.738   6.970  0.00  0.00    -0.023 C 
ATOM     10  C   UNL d   1      29.629 -13.423   8.094  0.00  0.00     0.068 C 
ATOM     11  C   UNL d   1      29.868 -12.579   9.352  0.00  0.00     0.240 C 
ATOM     12  N   UNL d   1      29.496 -11.095   9.302  0.00  0.00    -0.062 N 
ATOM     13  C   UNL d   1      28.563 -10.552   8.212  0.00  0.00     0.282 C 
ATOM     14  N   UNL d   1      27.891 -12.750   3.497  0.00  0.00    -0.358 N 
ATOM     15  H   UNL d   1      28.524 -15.838   3.790  0.00  0.00     0.165 HD
ATOM     16  H   UNL d   1      28.959 -10.959  10.167  0.00  0.00     0.280 HD
ATOM     17  H   UNL d   1      27.360 -12.179   2.848  0.00  0.00     0.162 HD
ENDROOT
BRANCH   1  18
ATOM     18  C   UNL d   1      28.079 -14.412   1.667  0.00  0.00    -0.016 C 
ATOM     19  C   UNL d   1      26.884 -13.885   1.129  0.00  0.00     0.014 C 
ATOM     20  C   UNL d   1      26.272 -14.483   0.024  0.00  0.00     0.038 C 
ATOM     21  C   UNL d   1      26.926 -15.533  -0.611  0.00  0.00     0.079 C 
ATOM     22  C   UNL d   1      28.190 -15.947  -0.198  0.00  0.00     0.038 C 
ATOM     23  C   UNL d   1      28.735 -15.434   0.972  0.00  0.00     0.014 C 
BRANCH  21  24
ATOM     24  O   UNL d   1      26.286 -16.144  -1.718  0.00  0.00    -0.276 OA
BRANCH  24  25
ATOM     25  C   UNL d   1      25.033 -15.830  -2.269  0.00  0.00     0.288 C 
ATOM     26  O   UNL d   1      24.924 -15.024  -3.184  0.00  0.00    -0.260 OA
BRANCH  25  27
ATOM     27  C   UNL d   1      23.864 -16.486  -1.642  0.00  0.00     0.085 C 
ATOM     28  C   UNL d   1      23.765 -17.821  -1.570  0.00  0.00     0.043 C 
BRANCH  28  29
ATOM     29  C   UNL d   1      22.647 -18.432  -0.934  0.00  0.00     0.075 A 
ATOM     30  C   UNL d   1      22.338 -18.567   0.418  0.00  0.00     0.039 A 
ATOM     31  C   UNL d   1      21.076 -19.198   0.520  0.00  0.00     0.027 A 
ATOM     32  C   UNL d   1      20.686 -19.459  -0.767  0.00  0.00     0.142 A 
ATOM     33  O   UNL d   1      21.615 -19.005  -1.644  0.00  0.00    -0.323 OA
ENDBRANCH  28  29
ENDBRANCH  25  27
ENDBRANCH  24  25
ENDBRANCH  21  24
ENDBRANCH   1  18
BRANCH  12  34
ATOM     34  C   UNL d   1      30.733 -10.209   9.441  0.00  0.00     0.273 C 
BRANCH  34  35
ATOM     35  C   UNL d   1      30.530  -8.891  10.159  0.00  0.00    -0.033 C 
ATOM     36  C   UNL d   1      29.746  -7.863   9.642  0.00  0.00     0.009 C 
ATOM     37  C   UNL d   1      29.718  -6.544  10.039  0.00  0.00     0.001 C 
ATOM     38  C   UNL d   1      30.370  -6.252  11.197  0.00  0.00     0.000 C 
ATOM     39  C   UNL d   1      31.073  -7.271  11.855  0.00  0.00     0.001 C 
ATOM     40  C   UNL d   1      31.180  -8.576  11.332  0.00  0.00     0.009 C 
ENDBRANCH  34  35
ENDBRANCH  12  34
TORSDOF 7
ENDMDL
MODEL 3
REMARK VINA RESULT:   -10.275      6.443      8.963
REMARK INTER + INTRA:         -13.797
REMARK INTER:                 -12.363
REMARK INTRA:                  -1.434
REMARK CONF_INDEPENDENT:        2.088
REMARK UNBOUND:                -1.434
REMARK  7 active torsions:
REMARK  status: ('A' for Active; 'I' for Inactive)
REMARK    1  A    between atoms: C_2  and  C_3 
REMARK    2  A    between atoms: C_2  and  O_10 
REMARK    3  A    between atoms: C_4  and  C_5 
REMARK    4  A    between atoms: O_10  and  C_11 
REMARK    5  A    between atoms: C_14  and  C_15 
REMARK    6  A    between atoms: N_26  and  C_27 
REMARK    7  A    between atoms: C_27  and  C_28 
ROOT
ATOM      1  C   UNL d   1      28.156 -15.426  -4.395  0.00  0.00     0.219 C 
ATOM      2  N   UNL d   1      27.060 -14.521  -4.211  0.00  0.00    -0.332 N 
ATOM      3  C   UNL d   1      25.902 -15.036  -3.726  0.00  0.00     0.256 C 
ATOM      4  O   UNL d   1      24.780 -14.729  -4.134  0.00  0.00    -0.267 OA
ATOM      5  C   UNL d   1      26.125 -15.887  -2.576  0.00  0.00     0.073 C 
ATOM      6  C   UNL d   1      27.402 -16.339  -2.309  0.00  0.00     0.088 C 
ATOM      7  S   UNL d   1      27.425 -17.347  -0.936  0.00  0.00    -0.074 SA
ATOM      8  C   UNL d   1      25.745 -17.120  -0.664  0.00  0.00     0.018 C 
ATOM      9  C   UNL d   1      25.180 -16.253  -1.575  0.00  0.00    -0.023 C 
ATOM     10  C   UNL d   1      23.709 -15.950  -1.645  0.00  0.00     0.068 C 
ATOM     11  C   UNL d   1      22.819 -16.711  -0.655  0.00  0.00     0.240 C 
ATOM     12  N   UNL d   1      23.465 -17.807   0.196  0.00  0.00    -0.062 N 
ATOM     13  C   UNL d   1      24.988 -17.881   0.362  0.00  0.00     0.282 C 
ATOM     14  N   UNL d   1      28.458 -15.973  -3.079  0.00  0.00    -0.358 N 
ATOM     15  H   UNL d   1      27.046 -13.609  -4.640  0.00  0.00     0.165 HD
ATOM     16  H   UNL d   1      23.130 -17.594   1.144  0.00  0.00     0.280 HD
ATOM     17  H   UNL d   1      29.418 -16.244  -2.889  0.00  0.00     0.162 HD
ENDROOT
BRANCH   1  18
ATOM     18  C   UNL d   1      29.335 -14.761  -5.055  0.00  0.00    -0.016 C 
ATOM     19  C   UNL d   1      29.165 -13.993  -6.228  0.00  0.00     0.014 C 
ATOM     20  C   UNL d   1      30.271 -13.502  -6.928  0.00  0.00     0.038 C 
ATOM     21  C   UNL d   1      31.537 -13.679  -6.380  0.00  0.00     0.079 C 
ATOM     22  C   UNL d   1      31.702 -14.279  -5.135  0.00  0.00     0.038 C 
ATOM     23  C   UNL d   1      30.616 -14.874  -4.506  0.00  0.00     0.014 C 
BRANCH  21  24
ATOM     24  O   UNL d   1      32.652 -13.195  -7.108  0.00  0.00    -0.276 OA
BRANCH  24  25
ATOM     25  C   UNL d   1      33.254 -13.767  -8.241  0.00  0.00     0.288 C 
ATOM     26  O   UNL d   1      34.132 -13.180  -8.861  0.00  0.00    -0.260 OA
BRANCH  25  27
ATOM     27  C   UNL d   1      32.726 -15.084  -8.664  0.00  0.00     0.085 C 
ATOM     28  C   UNL d   1      32.994 -16.200  -7.972  0.00  0.00     0.043 C 
BRANCH  28  29
ATOM     29  C   UNL d   1      32.451 -17.453  -8.377  0.00  0.00     0.075 A 
ATOM     30  C   UNL d   1      31.498 -18.264  -7.764  0.00  0.00     0.039 A 
ATOM     31  C   UNL d   1      31.257 -19.373  -8.608  0.00  0.00     0.027 A 
ATOM     32  C   UNL d   1      32.099 -19.216  -9.678  0.00  0.00     0.142 A 
ATOM     33  O   UNL d   1      32.815 -18.072  -9.552  0.00  0.00    -0.323 OA
ENDBRANCH  28  29
ENDBRANCH  25  27
ENDBRANCH  24  25
ENDBRANCH  21  24
ENDBRANCH   1  18
BRANCH  12  34
ATOM     34  C   UNL d   1      22.894 -19.183  -0.145  0.00  0.00     0.273 C 
BRANCH  34  35
ATOM     35  C   UNL d   1      21.391 -19.324  -0.033  0.00  0.00    -0.033 C 
ATOM     36  C   UNL d   1      20.742 -19.566   1.176  0.00  0.00     0.009 C 
ATOM     37  C   UNL d   1      19.449 -19.997   1.366  0.00  0.00     0.001 C 
ATOM     38  C   UNL d   1      18.645 -19.987   0.268  0.00  0.00     0.000 C 
ATOM     39  C   UNL d   1      19.192 -19.620  -0.970  0.00  0.00     0.001 C 
ATOM     40  C   UNL d   1      20.559 -19.317  -1.132  0.00  0.00     0.009 C 
ENDBRANCH  34  35
ENDBRANCH  12  34
TORSDOF 7
ENDMDL
MODEL 4
REMARK VINA RESULT:   -10.050      7.553     11.279
REMARK INTER + INTRA:         -13.590
REMARK INTER:                 -12.138
REMARK INTRA:                  -1.452
REMARK CONF_INDEPENDENT:        2.088
REMARK UNBOUND:                -1.452
REMARK  7 active torsions:
REMARK  status: ('A' for Active; 'I' for Inactive)
REMARK    1  A    between atoms: C_2  and  C_3 
REMARK    2  A    between atoms: C_2  and  O_10 
REMARK    3  A    between atoms: C_4  and  C_5 
REMARK    4  A    between atoms: O_10  and  C_11 
REMARK    5  A    between atoms: C_14  and  C_15 
REMARK    6  A    between atoms: N_26  and  C_27 
REMARK    7  A    between atoms: C_27  and  C_28 
ROOT
ATOM      1  C   UNL d   1      27.667 -13.592   3.119  0.00  0.00     0.219 C 
ATOM      2  N   UNL d   1      28.075 -12.229   2.951  0.00  0.00    -0.332 N 
ATOM      3  C   UNL d   1      28.238 -11.485   4.074  0.00  0.00     0.256 C 
ATOM      4  O   UNL d   1      27.876 -10.311   4.189  0.00  0.00    -0.267 OA
ATOM      5  C   UNL d   1      29.013 -12.181   5.079  0.00  0.00     0.073 C 
ATOM      6  C   UNL d   1      29.205 -13.542   4.960  0.00  0.00     0.088 C 
ATOM      7  S   UNL d   1      30.112 -14.155   6.264  0.00  0.00    -0.074 SA
ATOM      8  C   UNL d   1      30.304 -12.591   6.946  0.00  0.00     0.018 C 
ATOM      9  C   UNL d   1      29.727 -11.608   6.170  0.00  0.00    -0.023 C 
ATOM     10  C   UNL d   1      29.647 -10.161   6.571  0.00  0.00     0.068 C 
ATOM     11  C   UNL d   1      30.212  -9.815   7.954  0.00  0.00     0.240 C 
ATOM     12  N   UNL d   1      30.657 -10.968   8.857  0.00  0.00    -0.062 N 
ATOM     13  C   UNL d   1      30.913 -12.367   8.281  0.00  0.00     0.282 C 
ATOM     14  N   UNL d   1      28.714 -14.237   3.901  0.00  0.00    -0.358 N 
ATOM     15  H   UNL d   1      28.008 -11.760   2.061  0.00  0.00     0.165 HD
ATOM     16  H   UNL d   1      31.584 -10.668   9.180  0.00  0.00     0.280 HD
ATOM     17  H   UNL d   1      28.873 -15.227   3.751  0.00  0.00     0.162 HD
ENDROOT
BRANCH   1  18
ATOM     18  C   UNL d   1      27.398 -14.269   1.801  0.00  0.00    -0.016 C 
ATOM     19  C   UNL d   1      26.694 -13.598   0.777  0.00  0.00     0.014 C 
ATOM     20  C   UNL d   1      26.311 -14.271  -0.387  0.00  0.00     0.038 C 
ATOM     21  C   UNL d   1      26.741 -15.581  -0.570  0.00  0.00     0.079 C 
ATOM     22  C   UNL d   1      27.584 -16.195   0.352  0.00  0.00     0.038 C 
ATOM     23  C   UNL d   1      27.859 -15.567   1.560  0.00  0.00     0.014 C 
BRANCH  21  24
ATOM     24  O   UNL d   1      26.328 -16.259  -1.744  0.00  0.00    -0.276 OA
BRANCH  24  25
ATOM     25  C   UNL d   1      25.068 -16.220  -2.362  0.00  0.00     0.288 C 
ATOM     26  O   UNL d   1      24.782 -15.344  -3.170  0.00  0.00    -0.260 OA
BRANCH  25  27
ATOM     27  C   UNL d   1      24.102 -17.258  -1.940  0.00  0.00     0.085 C 
ATOM     28  C   UNL d   1      23.026 -16.955  -1.200  0.00  0.00     0.043 C 
BRANCH  28  29
ATOM     29  C   UNL d   1      22.091 -17.964  -0.831  0.00  0.00     0.075 A 
ATOM     30  C   UNL d   1      22.278 -19.161  -0.143  0.00  0.00     0.039 A 
ATOM     31  C   UNL d   1      21.015 -19.774   0.025  0.00  0.00     0.027 A 
ATOM     32  C   UNL d   1      20.116 -18.949  -0.600  0.00  0.00     0.142 A 
ATOM     33  O   UNL d   1      20.747 -17.865  -1.113  0.00  0.00    -0.323 OA
ENDBRANCH  28  29
ENDBRANCH  25  27
ENDBRANCH  24  25
ENDBRANCH  21  24
ENDBRANCH   1  18
BRANCH  12  34
ATOM     34  C   UNL d   1      29.790 -11.055  10.113  0.00  0.00     0.273 C 
BRANCH  34  35
ATOM     35  C   UNL d   1      29.496 -12.450  10.623  0.00  0.00    -0.033 C 
ATOM     36  C   UNL d   1      30.471 -13.267  11.192  0.00  0.00     0.009 C 
ATOM     37  C   UNL d   1      30.405 -14.623  11.419  0.00  0.00     0.001 C 
ATOM     38  C   UNL d   1      29.182 -15.200  11.264  0.00  0.00     0.000 C 
ATOM     39  C   UNL d   1      28.111 -14.409  10.824  0.00  0.00     0.001 C 
ATOM     40  C   UNL d   1      28.265 -13.051  10.477  0.00  0.00     0.009 C 
ENDBRANCH  34  35
ENDBRANCH  12  34
TORSDOF 7
ENDMDL
MODEL 5
REMARK VINA RESULT:   -10.005      6.471      9.246
REMARK INTER + INTRA:         -13.231
REMARK INTER:                 -12.093
REMARK INTRA:                  -1.139
REMARK CONF_INDEPENDENT:        2.088
REMARK UNBOUND:                -1.139
REMARK  7 active torsions:
REMARK  status: ('A' for Active; 'I' for Inactive)
REMARK    1  A    between atoms: C_2  and  C_3 
REMARK    2  A    between atoms: C_2  and  O_10 
REMARK    3  A    between atoms: C_4  and  C_5 
REMARK    4  A    between atoms: O_10  and  C_11 
REMARK    5  A    between atoms: C_14  and  C_15 
REMARK    6  A    between atoms: N_26  and  C_27 
REMARK    7  A    between atoms: C_27  and  C_28 
ROOT
ATOM      1  C   UNL d   1      26.826 -13.896   1.638  0.00  0.00     0.219 C 
ATOM      2  N   UNL d   1      27.232 -12.524   1.698  0.00  0.00    -0.332 N 
ATOM      3  C   UNL d   1      27.291 -11.945   2.924  0.00  0.00     0.256 C 
ATOM      4  O   UNL d   1      26.908 -10.798   3.170  0.00  0.00    -0.267 OA
ATOM      5  C   UNL d   1      27.983 -12.776   3.885  0.00  0.00     0.073 C 
ATOM      6  C   UNL d   1      28.198 -14.108   3.594  0.00  0.00     0.088 C 
ATOM      7  S   UNL d   1      28.996 -14.900   4.874  0.00  0.00    -0.074 SA
ATOM      8  C   UNL d   1      29.112 -13.447   5.782  0.00  0.00     0.018 C 
ATOM      9  C   UNL d   1      28.595 -12.364   5.104  0.00  0.00    -0.023 C 
ATOM     10  C   UNL d   1      28.466 -10.988   5.695  0.00  0.00     0.068 C 
ATOM     11  C   UNL d   1      28.906 -10.840   7.156  0.00  0.00     0.240 C 
ATOM     12  N   UNL d   1      29.283 -12.109   7.924  0.00  0.00    -0.062 N 
ATOM     13  C   UNL d   1      29.601 -13.413   7.183  0.00  0.00     0.282 C 
ATOM     14  N   UNL d   1      27.808 -14.646   2.410  0.00  0.00    -0.358 N 
ATOM     15  H   UNL d   1      27.238 -11.934   0.880  0.00  0.00     0.165 HD
ATOM     16  H   UNL d   1      30.176 -11.859   8.365  0.00  0.00     0.280 HD
ATOM     17  H   UNL d   1      27.989 -15.607   2.138  0.00  0.00     0.162 HD
ENDROOT
BRANCH   1  18
ATOM     18  C   UNL d   1      26.678 -14.381   0.220  0.00  0.00    -0.016 C 
ATOM     19  C   UNL d   1      27.179 -13.619  -0.858  0.00  0.00     0.014 C 
ATOM     20  C   UNL d   1      26.912 -13.988  -2.180  0.00  0.00     0.038 C 
ATOM     21  C   UNL d   1      26.248 -15.187  -2.415  0.00  0.00     0.079 C 
ATOM     22  C   UNL d   1      25.906 -16.035  -1.365  0.00  0.00     0.038 C 
ATOM     23  C   UNL d   1      26.062 -15.607  -0.053  0.00  0.00     0.014 C 
BRANCH  21  24
ATOM     24  O   UNL d   1      25.965 -15.540  -3.758  0.00  0.00    -0.276 OA
BRANCH  24  25
ATOM     25  C   UNL d   1      26.280 -14.819  -4.921  0.00  0.00     0.288 C 
ATOM     26  O   UNL d   1      27.021 -15.285  -5.778  0.00  0.00    -0.260 OA
BRANCH  25  27
ATOM     27  C   UNL d   1      25.711 -13.457  -5.018  0.00  0.00     0.085 C 
ATOM     28  C   UNL d   1      26.488 -12.367  -4.950  0.00  0.00     0.043 C 
BRANCH  28  29
ATOM     29  C   UNL d   1      25.925 -11.065  -5.078  0.00  0.00     0.075 A 
ATOM     30  C   UNL d   1      25.611 -10.117  -4.106  0.00  0.00     0.039 A 
ATOM     31  C   UNL d   1      25.134  -8.957  -4.760  0.00  0.00     0.027 A 
ATOM     32  C   UNL d   1      25.136  -9.258  -6.097  0.00  0.00     0.142 A 
ATOM     33  O   UNL d   1      25.608 -10.513  -6.299  0.00  0.00    -0.323 OA
ENDBRANCH  28  29
ENDBRANCH  25  27
ENDBRANCH  24  25
ENDBRANCH  21  24
ENDBRANCH   1  18
BRANCH  12  34
ATOM     34  C   UNL d   1      28.312 -12.369   9.076  0.00  0.00     0.273 C 
BRANCH  34  35
ATOM     35  C   UNL d   1      28.828 -13.248  10.195  0.00  0.00    -0.033 C 
ATOM     36  C   UNL d   1      30.130 -13.745  10.226  0.00  0.00     0.009 C 
ATOM     37  C   UNL d   1      30.623 -14.765  11.008  0.00  0.00     0.001 C 
ATOM     38  C   UNL d   1      29.812 -15.199  12.011  0.00  0.00     0.000 C 
ATOM     39  C   UNL d   1      28.529 -14.646  12.132  0.00  0.00     0.001 C 
ATOM     40  C   UNL d   1      28.024 -13.698  11.219  0.00  0.00     0.009 C 
ENDBRANCH  34  35
ENDBRANCH  12  34
TORSDOF 7
ENDMDL
MODEL 6
REMARK VINA RESULT:    -9.884      7.655     11.588
REMARK INTER + INTRA:         -13.769
REMARK INTER:                 -11.972
REMARK INTRA:                  -1.797
REMARK CONF_INDEPENDENT:        2.088
REMARK UNBOUND:                -1.797
REMARK  7 active torsions:
REMARK  status: ('A' for Active; 'I' for Inactive)
REMARK    1  A    between atoms: C_2  and  C_3 
REMARK    2  A    between atoms: C_2  and  O_10 
REMARK    3  A    between atoms: C_4  and  C_5 
REMARK    4  A    between atoms: O_10  and  C_11 
REMARK    5  A    between atoms: C_14  and  C_15 
REMARK    6  A    between atoms: N_26  and  C_27 
REMARK    7  A    between atoms: C_27  and  C_28 
ROOT
ATOM      1  C   UNL d   1      28.789 -13.849   2.946  0.00  0.00     0.219 C 
ATOM      2  N   UNL d   1      28.767 -14.796   4.020  0.00  0.00    -0.332 N 
ATOM      3  C   UNL d   1      29.382 -14.442   5.176  0.00  0.00     0.256 C 
ATOM      4  O   UNL d   1      30.079 -15.200   5.854  0.00  0.00    -0.267 OA
ATOM      5  C   UNL d   1      29.014 -13.107   5.600  0.00  0.00     0.073 C 
ATOM      6  C   UNL d   1      28.402 -12.258   4.699  0.00  0.00     0.088 C 
ATOM      7  S   UNL d   1      28.091 -10.736   5.398  0.00  0.00    -0.074 SA
ATOM      8  C   UNL d   1      28.712 -11.238   6.918  0.00  0.00     0.018 C 
ATOM      9  C   UNL d   1      29.107 -12.559   6.911  0.00  0.00    -0.023 C 
ATOM     10  C   UNL d   1      29.785 -13.239   8.069  0.00  0.00     0.068 C 
ATOM     11  C   UNL d   1      30.075 -12.357   9.289  0.00  0.00     0.240 C 
ATOM     12  N   UNL d   1      29.799 -10.856   9.172  0.00  0.00    -0.062 N 
ATOM     13  C   UNL d   1      28.906 -10.303   8.055  0.00  0.00     0.282 C 
ATOM     14  N   UNL d   1      28.104 -12.660   3.437  0.00  0.00    -0.358 N 
ATOM     15  H   UNL d   1      28.536 -15.766   3.869  0.00  0.00     0.165 HD
ATOM     16  H   UNL d   1      29.270 -10.648  10.028  0.00  0.00     0.280 HD
ATOM     17  H   UNL d   1      27.613 -12.085   2.761  0.00  0.00     0.162 HD
ENDROOT
BRANCH   1  18
ATOM     18  C   UNL d   1      28.188 -14.410   1.684  0.00  0.00    -0.016 C 
ATOM     19  C   UNL d   1      26.956 -13.923   1.194  0.00  0.00     0.014 C 
ATOM     20  C   UNL d   1      26.323 -14.542   0.112  0.00  0.00     0.038 C 
ATOM     21  C   UNL d   1      26.987 -15.568  -0.550  0.00  0.00     0.079 C 
ATOM     22  C   UNL d   1      28.279 -15.938  -0.187  0.00  0.00     0.038 C 
ATOM     23  C   UNL d   1      28.852 -15.407   0.961  0.00  0.00     0.014 C 
BRANCH  21  24
ATOM     24  O   UNL d   1      26.326 -16.200  -1.632  0.00  0.00    -0.276 OA
BRANCH  24  25
ATOM     25  C   UNL d   1      24.990 -16.040  -2.036  0.00  0.00     0.288 C 
ATOM     26  O   UNL d   1      24.622 -15.039  -2.637  0.00  0.00    -0.260 OA
BRANCH  25  27
ATOM     27  C   UNL d   1      24.058 -17.121  -1.646  0.00  0.00     0.085 C 
ATOM     28  C   UNL d   1      22.871 -16.854  -1.084  0.00  0.00     0.043 C 
BRANCH  28  29
ATOM     29  C   UNL d   1      21.974 -17.907  -0.746  0.00  0.00     0.075 A 
ATOM     30  C   UNL d   1      22.215 -19.141  -0.145  0.00  0.00     0.039 A 
ATOM     31  C   UNL d   1      20.973 -19.794   0.031  0.00  0.00     0.027 A 
ATOM     32  C   UNL d   1      20.032 -18.954  -0.504  0.00  0.00     0.142 A 
ATOM     33  O   UNL d   1      20.618 -17.824  -0.969  0.00  0.00    -0.323 OA
ENDBRANCH  28  29
ENDBRANCH  25  27
ENDBRANCH  24  25
ENDBRANCH  21  24
ENDBRANCH   1  18
BRANCH  12  34
ATOM     34  C   UNL d   1      31.091 -10.046   9.278  0.00  0.00     0.273 C 
BRANCH  34  35
ATOM     35  C   UNL d   1      32.243 -10.517   8.416  0.00  0.00    -0.033 C 
ATOM     36  C   UNL d   1      32.163 -10.602   7.028  0.00  0.00     0.009 C 
ATOM     37  C   UNL d   1      33.009 -11.274   6.175  0.00  0.00     0.001 C 
ATOM     38  C   UNL d   1      34.169 -11.734   6.719  0.00  0.00     0.000 C 
ATOM     39  C   UNL d   1      34.387 -11.564   8.093  0.00  0.00     0.001 C 
ATOM     40  C   UNL d   1      33.425 -10.987   8.947  0.00  0.00     0.009 C 
ENDBRANCH  34  35
ENDBRANCH  12  34
TORSDOF 7
ENDMDL
MODEL 7
REMARK VINA RESULT:    -9.866      7.112     11.352
REMARK INTER + INTRA:         -13.474
REMARK INTER:                 -11.954
REMARK INTRA:                  -1.520
REMARK CONF_INDEPENDENT:        2.088
REMARK UNBOUND:                -1.520
REMARK  7 active torsions:
REMARK  status: ('A' for Active; 'I' for Inactive)
REMARK    1  A    between atoms: C_2  and  C_3 
REMARK    2  A    between atoms: C_2  and  O_10 
REMARK    3  A    between atoms: C_4  and  C_5 
REMARK    4  A    between atoms: O_10  and  C_11 
REMARK    5  A    between atoms: C_14  and  C_15 
REMARK    6  A    between atoms: N_26  and  C_27 
REMARK    7  A    between atoms: C_27  and  C_28 
ROOT
ATOM      1  C   UNL d   1      28.710 -14.096   2.708  0.00  0.00     0.219 C 
ATOM      2  N   UNL d   1      28.025 -14.827   3.732  0.00  0.00    -0.332 N 
ATOM      3  C   UNL d   1      28.405 -14.606   5.015  0.00  0.00     0.256 C 
ATOM      4  O   UNL d   1      28.530 -15.490   5.866  0.00  0.00    -0.267 OA
ATOM      5  C   UNL d   1      28.514 -13.194   5.314  0.00  0.00     0.073 C 
ATOM      6  C   UNL d   1      28.558 -12.286   4.275  0.00  0.00     0.088 C 
ATOM      7  S   UNL d   1      28.721 -10.692   4.853  0.00  0.00    -0.074 SA
ATOM      8  C   UNL d   1      28.662 -11.213   6.488  0.00  0.00     0.018 C 
ATOM      9  C   UNL d   1      28.474 -12.575   6.596  0.00  0.00    -0.023 C 
ATOM     10  C   UNL d   1      28.489 -13.323   7.901  0.00  0.00     0.068 C 
ATOM     11  C   UNL d   1      28.780 -12.487   9.152  0.00  0.00     0.240 C 
ATOM     12  N   UNL d   1      29.179 -11.021   8.959  0.00  0.00    -0.062 N 
ATOM     13  C   UNL d   1      28.914 -10.300   7.631  0.00  0.00     0.282 C 
ATOM     14  N   UNL d   1      28.465 -12.686   2.981  0.00  0.00    -0.358 N 
ATOM     15  H   UNL d   1      27.469 -15.641   3.522  0.00  0.00     0.165 HD
ATOM     16  H   UNL d   1      28.577 -10.525   9.626  0.00  0.00     0.280 HD
ATOM     17  H   UNL d   1      28.445 -12.049   2.192  0.00  0.00     0.162 HD
ENDROOT
BRANCH   1  18
ATOM     18  C   UNL d   1      28.287 -14.524   1.327  0.00  0.00    -0.016 C 
ATOM     19  C   UNL d   1      28.601 -13.733   0.200  0.00  0.00     0.014 C 
ATOM     20  C   UNL d   1      28.083 -14.045  -1.059  0.00  0.00     0.038 C 
ATOM     21  C   UNL d   1      27.352 -15.219  -1.206  0.00  0.00     0.079 C 
ATOM     22  C   UNL d   1      27.186 -16.099  -0.139  0.00  0.00     0.038 C 
ATOM     23  C   UNL d   1      27.595 -15.724   1.134  0.00  0.00     0.014 C 
BRANCH  21  24
ATOM     24  O   UNL d   1      26.814 -15.515  -2.483  0.00  0.00    -0.276 OA
BRANCH  24  25
ATOM     25  C   UNL d   1      25.478 -15.405  -2.900  0.00  0.00     0.288 C 
ATOM     26  O   UNL d   1      25.173 -14.771  -3.903  0.00  0.00    -0.260 OA
BRANCH  25  27
ATOM     27  C   UNL d   1      24.469 -16.051  -2.031  0.00  0.00     0.085 C 
ATOM     28  C   UNL d   1      24.327 -17.383  -1.994  0.00  0.00     0.043 C 
BRANCH  28  29
ATOM     29  C   UNL d   1      23.372 -17.987  -1.126  0.00  0.00     0.075 A 
ATOM     30  C   UNL d   1      23.109 -17.762   0.224  0.00  0.00     0.039 A 
ATOM     31  C   UNL d   1      22.016 -18.576   0.600  0.00  0.00     0.027 A 
ATOM     32  C   UNL d   1      21.682 -19.292  -0.520  0.00  0.00     0.142 A 
ATOM     33  O   UNL d   1      22.484 -18.947  -1.557  0.00  0.00    -0.323 OA
ENDBRANCH  28  29
ENDBRANCH  25  27
ENDBRANCH  24  25
ENDBRANCH  21  24
ENDBRANCH   1  18
BRANCH  12  34
ATOM     34  C   UNL d   1      30.612 -10.770   9.430  0.00  0.00     0.273 C 
BRANCH  34  35
ATOM     35  C   UNL d   1      31.395 -11.994   9.856  0.00  0.00    -0.033 C 
ATOM     36  C   UNL d   1      31.847 -12.954   8.953  0.00  0.00     0.009 C 
ATOM     37  C   UNL d   1      32.298 -14.224   9.231  0.00  0.00     0.001 C 
ATOM     38  C   UNL d   1      32.529 -14.507  10.542  0.00  0.00     0.000 C 
ATOM     39  C   UNL d   1      32.227 -13.536  11.508  0.00  0.00     0.001 C 
ATOM     40  C   UNL d   1      31.639 -12.298  11.178  0.00  0.00     0.009 C 
ENDBRANCH  34  35
ENDBRANCH  12  34
TORSDOF 7
ENDMDL
MODEL 8
REMARK VINA RESULT:    -9.527      7.673     11.350
REMARK INTER + INTRA:         -12.765
REMARK INTER:                 -11.615
REMARK INTRA:                  -1.150
REMARK CONF_INDEPENDENT:        2.088
REMARK UNBOUND:                -1.150
REMARK  7 active torsions:
REMARK  status: ('A' for Active; 'I' for Inactive)
REMARK    1  A    between atoms: C_2  and  C_3 
REMARK    2  A    between atoms: C_2  and  O_10 
REMARK    3  A    between atoms: C_4  and  C_5 
REMARK    4  A    between atoms: O_10  and  C_11 
REMARK    5  A    between atoms: C_14  and  C_15 
REMARK    6  A    between atoms: N_26  and  C_27 
REMARK    7  A    between atoms: C_27  and  C_28 
ROOT
ATOM      1  C   UNL d   1      28.249 -14.001   2.679  0.00  0.00     0.219 C 
ATOM      2  N   UNL d   1      28.144 -14.991   3.709  0.00  0.00    -0.332 N 
ATOM      3  C   UNL d   1      28.772 -14.735   4.884  0.00  0.00     0.256 C 
ATOM      4  O   UNL d   1      29.402 -15.574   5.533  0.00  0.00    -0.267 OA
ATOM      5  C   UNL d   1      28.504 -13.396   5.364  0.00  0.00     0.073 C 
ATOM      6  C   UNL d   1      27.968 -12.464   4.499  0.00  0.00     0.088 C 
ATOM      7  S   UNL d   1      27.767 -10.955   5.262  0.00  0.00    -0.074 SA
ATOM      8  C   UNL d   1      28.332 -11.570   6.763  0.00  0.00     0.018 C 
ATOM      9  C   UNL d   1      28.625 -12.915   6.700  0.00  0.00    -0.023 C 
ATOM     10  C   UNL d   1      29.237 -13.695   7.830  0.00  0.00     0.068 C 
ATOM     11  C   UNL d   1      29.581 -12.893   9.091  0.00  0.00     0.240 C 
ATOM     12  N   UNL d   1      29.422 -11.371   9.039  0.00  0.00    -0.062 N 
ATOM     13  C   UNL d   1      28.586 -10.703   7.941  0.00  0.00     0.282 C 
ATOM     14  N   UNL d   1      27.653 -12.786   3.218  0.00  0.00    -0.358 N 
ATOM     15  H   UNL d   1      27.841 -15.932   3.514  0.00  0.00     0.165 HD
ATOM     16  H   UNL d   1      28.902 -11.161   9.899  0.00  0.00     0.280 HD
ATOM     17  H   UNL d   1      27.214 -12.146   2.565  0.00  0.00     0.162 HD
ENDROOT
BRANCH   1  18
ATOM     18  C   UNL d   1      27.621 -14.458   1.389  0.00  0.00    -0.016 C 
ATOM     19  C   UNL d   1      27.121 -13.520   0.459  0.00  0.00     0.014 C 
ATOM     20  C   UNL d   1      26.403 -13.940  -0.665  0.00  0.00     0.038 C 
ATOM     21  C   UNL d   1      26.296 -15.304  -0.915  0.00  0.00     0.079 C 
ATOM     22  C   UNL d   1      26.936 -16.235  -0.101  0.00  0.00     0.038 C 
ATOM     23  C   UNL d   1      27.541 -15.820   1.078  0.00  0.00     0.014 C 
BRANCH  21  24
ATOM     24  O   UNL d   1      25.549 -15.717  -2.046  0.00  0.00    -0.276 OA
BRANCH  24  25
ATOM     25  C   UNL d   1      25.420 -15.058  -3.279  0.00  0.00     0.288 C 
ATOM     26  O   UNL d   1      24.408 -14.429  -3.562  0.00  0.00    -0.260 OA
BRANCH  25  27
ATOM     27  C   UNL d   1      26.548 -15.217  -4.224  0.00  0.00     0.085 C 
ATOM     28  C   UNL d   1      26.995 -14.191  -4.960  0.00  0.00     0.043 C 
BRANCH  28  29
ATOM     29  C   UNL d   1      28.103 -14.356  -5.840  0.00  0.00     0.075 A 
ATOM     30  C   UNL d   1      28.777 -13.427  -6.629  0.00  0.00     0.039 A 
ATOM     31  C   UNL d   1      29.851 -14.089  -7.268  0.00  0.00     0.027 A 
ATOM     32  C   UNL d   1      29.764 -15.400  -6.878  0.00  0.00     0.142 A 
ATOM     33  O   UNL d   1      28.726 -15.571  -6.023  0.00  0.00    -0.323 OA
ENDBRANCH  28  29
ENDBRANCH  25  27
ENDBRANCH  24  25
ENDBRANCH  21  24
ENDBRANCH   1  18
BRANCH  12  34
ATOM     34  C   UNL d   1      30.771 -10.668   9.190  0.00  0.00     0.273 C 
BRANCH  34  35
ATOM     35  C   UNL d   1      30.739  -9.302   9.841  0.00  0.00    -0.033 C 
ATOM     36  C   UNL d   1      31.268  -9.057  11.107  0.00  0.00     0.009 C 
ATOM     37  C   UNL d   1      31.047  -7.963  11.914  0.00  0.00     0.001 C 
ATOM     38  C   UNL d   1      30.413  -6.907  11.335  0.00  0.00     0.000 C 
ATOM     39  C   UNL d   1      29.970  -7.027  10.009  0.00  0.00     0.001 C 
ATOM     40  C   UNL d   1      30.104  -8.221   9.272  0.00  0.00     0.009 C 
ENDBRANCH  34  35
ENDBRANCH  12  34
TORSDOF 7
ENDMDL
MODEL 9
REMARK VINA RESULT:    -9.220      3.216     10.872
REMARK INTER + INTRA:         -12.946
REMARK INTER:                 -11.308
REMARK INTRA:                  -1.638
REMARK CONF_INDEPENDENT:        2.088
REMARK UNBOUND:                -1.638
REMARK  7 active torsions:
REMARK  status: ('A' for Active; 'I' for Inactive)
REMARK    1  A    between atoms: C_2  and  C_3 
REMARK    2  A    between atoms: C_2  and  O_10 
REMARK    3  A    between atoms: C_4  and  C_5 
REMARK    4  A    between atoms: O_10  and  C_11 
REMARK    5  A    between atoms: C_14  and  C_15 
REMARK    6  A    between atoms: N_26  and  C_27 
REMARK    7  A    between atoms: C_27  and  C_28 
ROOT
ATOM      1  C   UNL d   1      25.750 -12.272  -3.711  0.00  0.00     0.219 C 
ATOM      2  N   UNL d   1      26.351 -12.210  -5.010  0.00  0.00    -0.332 N 
ATOM      3  C   UNL d   1      26.213 -11.054  -5.706  0.00  0.00     0.256 C 
ATOM      4  O   UNL d   1      25.977 -10.994  -6.915  0.00  0.00    -0.267 OA
ATOM      5  C   UNL d   1      26.512  -9.893  -4.895  0.00  0.00     0.073 C 
ATOM      6  C   UNL d   1      26.567 -10.025  -3.522  0.00  0.00     0.088 C 
ATOM      7  S   UNL d   1      26.898  -8.532  -2.771  0.00  0.00    -0.074 SA
ATOM      8  C   UNL d   1      27.034  -7.731  -4.283  0.00  0.00     0.018 C 
ATOM      9  C   UNL d   1      26.878  -8.593  -5.348  0.00  0.00    -0.023 C 
ATOM     10  C   UNL d   1      26.841  -8.153  -6.785  0.00  0.00     0.068 C 
ATOM     11  C   UNL d   1      26.942  -6.643  -7.029  0.00  0.00     0.240 C 
ATOM     12  N   UNL d   1      26.912  -5.716  -5.811  0.00  0.00    -0.062 N 
ATOM     13  C   UNL d   1      27.178  -6.258  -4.401  0.00  0.00     0.282 C 
ATOM     14  N   UNL d   1      26.384 -11.226  -2.918  0.00  0.00    -0.358 N 
ATOM     15  H   UNL d   1      26.646 -13.041  -5.499  0.00  0.00     0.165 HD
ATOM     16  H   UNL d   1      27.705  -5.084  -5.979  0.00  0.00     0.280 HD
ATOM     17  H   UNL d   1      26.464 -11.375  -1.918  0.00  0.00     0.162 HD
ENDROOT
BRANCH   1  18
ATOM     18  C   UNL d   1      25.863 -13.643  -3.099  0.00  0.00    -0.016 C 
ATOM     19  C   UNL d   1      25.379 -14.780  -3.783  0.00  0.00     0.014 C 
ATOM     20  C   UNL d   1      25.344 -16.030  -3.157  0.00  0.00     0.038 C 
ATOM     21  C   UNL d   1      25.907 -16.157  -1.893  0.00  0.00     0.079 C 
ATOM     22  C   UNL d   1      26.547 -15.082  -1.281  0.00  0.00     0.038 C 
ATOM     23  C   UNL d   1      26.470 -13.818  -1.850  0.00  0.00     0.014 C 
BRANCH  21  24
ATOM     24  O   UNL d   1      25.847 -17.424  -1.261  0.00  0.00    -0.276 OA
BRANCH  24  25
ATOM     25  C   UNL d   1      25.234 -17.748  -0.039  0.00  0.00     0.288 C 
ATOM     26  O   UNL d   1      25.892 -17.917   0.979  0.00  0.00    -0.260 OA
BRANCH  25  27
ATOM     27  C   UNL d   1      23.765 -17.923  -0.075  0.00  0.00     0.085 C 
ATOM     28  C   UNL d   1      23.207 -19.085  -0.440  0.00  0.00     0.043 C 
BRANCH  28  29
ATOM     29  C   UNL d   1      21.791 -19.244  -0.436  0.00  0.00     0.075 A 
ATOM     30  C   UNL d   1      20.894 -19.325   0.627  0.00  0.00     0.039 A 
ATOM     31  C   UNL d   1      19.587 -19.413   0.093  0.00  0.00     0.027 A 
ATOM     32  C   UNL d   1      19.741 -19.425  -1.269  0.00  0.00     0.142 A 
ATOM     33  O   UNL d   1      21.053 -19.322  -1.596  0.00  0.00    -0.323 OA
ENDBRANCH  28  29
ENDBRANCH  25  27
ENDBRANCH  24  25
ENDBRANCH  21  24
ENDBRANCH   1  18
BRANCH  12  34
ATOM     34  C   UNL d   1      25.668  -4.828  -5.820  0.00  0.00     0.273 C 
BRANCH  34  35
ATOM     35  C   UNL d   1      24.338  -5.549  -5.759  0.00  0.00    -0.033 C 
ATOM     36  C   UNL d   1      23.707  -6.068  -6.887  0.00  0.00     0.009 C 
ATOM     37  C   UNL d   1      22.396  -6.472  -7.009  0.00  0.00     0.001 C 
ATOM     38  C   UNL d   1      21.690  -6.575  -5.850  0.00  0.00     0.000 C 
ATOM     39  C   UNL d   1      22.304  -6.200  -4.646  0.00  0.00     0.001 C 
ATOM     40  C   UNL d   1      23.607  -5.665  -4.596  0.00  0.00     0.009 C 
ENDBRANCH  34  35
ENDBRANCH  12  34
TORSDOF 7
ENDMDL
