MODEL 1
REMARK VINA RESULT:    -7.880      0.000      0.000
REMARK INTER + INTRA:         -10.741
REMARK INTER:                  -9.074
REMARK INTRA:                  -1.668
REMARK CONF_INDEPENDENT:        1.193
REMARK UNBOUND:                -1.668
REMARK  4 active torsions:
REMARK  status: ('A' for Active; 'I' for Inactive)
REMARK       I    between atoms: C_2  and  N_3 
REMARK    1  A    between atoms: C_2  and  C_17 
REMARK    2  A    between atoms: N_3  and  N_4 
REMARK    3  A    between atoms: C_5  and  C_6 
REMARK    4  A    between atoms: C_7  and  O_8 
ROOT
ATOM      1  O   UNL d   1      26.980 -11.688   2.109  0.00  0.00    -0.266 OA
ATOM      2  C   UNL d   1      27.304 -12.866   2.246  0.00  0.00     0.274 C 
ATOM      3  N   UNL d   1      27.207 -13.847   1.265  0.00  0.00    -0.243 N 
ATOM      4  H   UNL d   1      27.355 -14.811   1.551  0.00  0.00     0.192 HD
ENDROOT
BRANCH   3   5
ATOM      5  N   UNL d   1      26.672 -13.592   0.023  0.00  0.00    -0.183 NA
ATOM      6  C   UNL d   1      26.281 -14.580  -0.739  0.00  0.00     0.153 C 
BRANCH   6   7
ATOM      7  C   UNL d   1      26.207 -16.020  -0.387  0.00  0.00     0.027 A 
ATOM      8  C   UNL d   1      27.383 -16.645   0.050  0.00  0.00     0.078 A 
ATOM      9  C   UNL d   1      27.406 -17.998   0.334  0.00  0.00     0.038 A 
ATOM     10  C   UNL d   1      26.227 -18.732   0.271  0.00  0.00     0.015 A 
ATOM     11  C   UNL d   1      25.018 -18.127  -0.102  0.00  0.00    -0.025 A 
ATOM     12  C   UNL d   1      23.844 -18.898  -0.134  0.00  0.00     0.012 A 
ATOM     13  C   UNL d   1      24.986 -16.750  -0.455  0.00  0.00    -0.011 A 
ATOM     14  C   UNL d   1      22.630 -18.339  -0.522  0.00  0.00     0.001 A 
ATOM     15  C   UNL d   1      22.579 -17.001  -0.895  0.00  0.00     0.001 A 
ATOM     16  C   UNL d   1      23.738 -16.216  -0.865  0.00  0.00     0.013 A 
BRANCH   8  17
ATOM     17  O   UNL d   1      28.574 -15.985   0.191  0.00  0.00    -0.360 OA
ATOM     18  H   UNL d   1      29.053 -16.325   0.981  0.00  0.00     0.217 HD
ENDBRANCH   8  17
ENDBRANCH   6   7
ENDBRANCH   3   5
BRANCH   2  19
ATOM     19  C   UNL d   1      27.795 -13.351   3.573  0.00  0.00     0.061 A 
ATOM     20  C   UNL d   1      27.968 -14.729   3.814  0.00  0.00     0.019 A 
ATOM     21  C   UNL d   1      28.464 -15.200   5.034  0.00  0.00     0.002 A 
ATOM     22  C   UNL d   1      28.782 -14.312   6.064  0.00  0.00     0.014 A 
ATOM     23  C   UNL d   1      28.563 -12.936   5.875  0.00  0.00    -0.007 A 
ATOM     24  C   UNL d   1      28.715 -11.806   6.721  0.00  0.00     0.030 A 
ATOM     25  C   UNL d   1      28.079 -12.479   4.644  0.00  0.00     0.058 A 
ATOM     26  C   UNL d   1      28.298 -10.700   6.019  0.00  0.00     0.089 A 
ATOM     27  N   UNL d   1      27.921 -11.113   4.771  0.00  0.00    -0.364 N 
ATOM     28  H   UNL d   1      27.543 -10.509   4.052  0.00  0.00     0.165 HD
ENDBRANCH   2  19
TORSDOF 4
ENDMDL
MODEL 2
REMARK VINA RESULT:    -7.322      4.757      7.912
REMARK INTER + INTRA:         -10.413
REMARK INTER:                  -8.516
REMARK INTRA:                  -1.898
REMARK CONF_INDEPENDENT:        1.193
REMARK UNBOUND:                -1.898
REMARK  4 active torsions:
REMARK  status: ('A' for Active; 'I' for Inactive)
REMARK       I    between atoms: C_2  and  N_3 
REMARK    1  A    between atoms: C_2  and  C_17 
REMARK    2  A    between atoms: N_3  and  N_4 
REMARK    3  A    between atoms: C_5  and  C_6 
REMARK    4  A    between atoms: C_7  and  O_8 
ROOT
ATOM      1  O   UNL d   1      25.921 -15.943  -5.759  0.00  0.00    -0.266 OA
ATOM      2  C   UNL d   1      26.660 -15.079  -5.292  0.00  0.00     0.274 C 
ATOM      3  N   UNL d   1      26.268 -14.073  -4.415  0.00  0.00    -0.243 N 
ATOM      4  H   UNL d   1      26.934 -13.328  -4.228  0.00  0.00     0.192 HD
ENDROOT
BRANCH   3   5
ATOM      5  N   UNL d   1      24.959 -13.916  -4.017  0.00  0.00    -0.183 NA
ATOM      6  C   UNL d   1      24.537 -14.479  -2.914  0.00  0.00     0.153 C 
BRANCH   6   7
ATOM      7  C   UNL d   1      25.345 -15.200  -1.900  0.00  0.00     0.027 A 
ATOM      8  C   UNL d   1      26.577 -14.642  -1.531  0.00  0.00     0.078 A 
ATOM      9  C   UNL d   1      27.414 -15.289  -0.641  0.00  0.00     0.038 A 
ATOM     10  C   UNL d   1      26.990 -16.466  -0.034  0.00  0.00     0.015 A 
ATOM     11  C   UNL d   1      25.737 -17.021  -0.330  0.00  0.00    -0.025 A 
ATOM     12  C   UNL d   1      25.337 -18.200   0.321  0.00  0.00     0.012 A 
ATOM     13  C   UNL d   1      24.888 -16.401  -1.287  0.00  0.00    -0.011 A 
ATOM     14  C   UNL d   1      24.111 -18.794   0.036  0.00  0.00     0.001 A 
ATOM     15  C   UNL d   1      23.275 -18.221  -0.915  0.00  0.00     0.001 A 
ATOM     16  C   UNL d   1      23.655 -17.043  -1.570  0.00  0.00     0.013 A 
BRANCH   8  17
ATOM     17  O   UNL d   1      27.047 -13.460  -2.041  0.00  0.00    -0.360 OA
ATOM     18  H   UNL d   1      26.350 -13.033  -2.590  0.00  0.00     0.217 HD
ENDBRANCH   8  17
ENDBRANCH   6   7
ENDBRANCH   3   5
BRANCH   2  19
ATOM     19  C   UNL d   1      28.095 -15.022  -5.711  0.00  0.00     0.061 A 
ATOM     20  C   UNL d   1      29.027 -15.950  -5.205  0.00  0.00     0.019 A 
ATOM     21  C   UNL d   1      30.364 -15.938  -5.615  0.00  0.00     0.002 A 
ATOM     22  C   UNL d   1      30.821 -14.985  -6.528  0.00  0.00     0.014 A 
ATOM     23  C   UNL d   1      29.928 -14.009  -7.005  0.00  0.00    -0.007 A 
ATOM     24  C   UNL d   1      30.085 -12.890  -7.866  0.00  0.00     0.030 A 
ATOM     25  C   UNL d   1      28.590 -14.042  -6.595  0.00  0.00     0.058 A 
ATOM     26  C   UNL d   1      28.871 -12.249  -7.941  0.00  0.00     0.089 A 
ATOM     27  N   UNL d   1      27.978 -12.950  -7.178  0.00  0.00    -0.364 N 
ATOM     28  H   UNL d   1      27.013 -12.685  -7.029  0.00  0.00     0.165 HD
ENDBRANCH   2  19
TORSDOF 4
ENDMDL
MODEL 3
REMARK VINA RESULT:    -7.156      4.766      8.180
REMARK INTER + INTRA:         -10.391
REMARK INTER:                  -8.349
REMARK INTRA:                  -2.041
REMARK CONF_INDEPENDENT:        1.193
REMARK UNBOUND:                -2.041
REMARK  4 active torsions:
REMARK  status: ('A' for Active; 'I' for Inactive)
REMARK       I    between atoms: C_2  and  N_3 
REMARK    1  A    between atoms: C_2  and  C_17 
REMARK    2  A    between atoms: N_3  and  N_4 
REMARK    3  A    between atoms: C_5  and  C_6 
REMARK    4  A    between atoms: C_7  and  O_8 
ROOT
ATOM      1  O   UNL d   1      26.312 -15.937  -5.420  0.00  0.00    -0.266 OA
ATOM      2  C   UNL d   1      26.612 -14.750  -5.310  0.00  0.00     0.274 C 
ATOM      3  N   UNL d   1      25.858 -13.787  -4.648  0.00  0.00    -0.243 N 
ATOM      4  H   UNL d   1      26.132 -12.815  -4.764  0.00  0.00     0.192 HD
ENDROOT
BRANCH   3   5
ATOM      5  N   UNL d   1      24.637 -14.075  -4.079  0.00  0.00    -0.183 NA
ATOM      6  C   UNL d   1      24.579 -14.590  -2.878  0.00  0.00     0.153 C 
BRANCH   6   7
ATOM      7  C   UNL d   1      25.699 -14.804  -1.929  0.00  0.00     0.027 A 
ATOM      8  C   UNL d   1      26.674 -13.801  -1.836  0.00  0.00     0.078 A 
ATOM      9  C   UNL d   1      27.781 -13.958  -1.022  0.00  0.00     0.038 A 
ATOM     10  C   UNL d   1      27.886 -15.086  -0.218  0.00  0.00     0.015 A 
ATOM     11  C   UNL d   1      26.899 -16.082  -0.237  0.00  0.00    -0.025 A 
ATOM     12  C   UNL d   1      27.030 -17.198   0.607  0.00  0.00     0.012 A 
ATOM     13  C   UNL d   1      25.783 -15.966  -1.111  0.00  0.00    -0.011 A 
ATOM     14  C   UNL d   1      26.084 -18.218   0.598  0.00  0.00     0.001 A 
ATOM     15  C   UNL d   1      24.998 -18.139  -0.266  0.00  0.00     0.001 A 
ATOM     16  C   UNL d   1      24.847 -17.032  -1.111  0.00  0.00     0.013 A 
BRANCH   8  17
ATOM     17  O   UNL d   1      26.620 -12.635  -2.553  0.00  0.00    -0.360 OA
ATOM     18  H   UNL d   1      25.745 -12.556  -2.997  0.00  0.00     0.217 HD
ENDBRANCH   8  17
ENDBRANCH   6   7
ENDBRANCH   3   5
BRANCH   2  19
ATOM     19  C   UNL d   1      27.849 -14.232  -5.972  0.00  0.00     0.061 A 
ATOM     20  C   UNL d   1      27.882 -12.932  -6.515  0.00  0.00     0.019 A 
ATOM     21  C   UNL d   1      29.041 -12.415  -7.102  0.00  0.00     0.002 A 
ATOM     22  C   UNL d   1      30.202 -13.187  -7.188  0.00  0.00     0.014 A 
ATOM     23  C   UNL d   1      30.182 -14.509  -6.708  0.00  0.00    -0.007 A 
ATOM     24  C   UNL d   1      31.146 -15.553  -6.704  0.00  0.00     0.030 A 
ATOM     25  C   UNL d   1      29.018 -15.008  -6.112  0.00  0.00     0.058 A 
ATOM     26  C   UNL d   1      30.556 -16.662  -6.146  0.00  0.00     0.089 A 
ATOM     27  N   UNL d   1      29.280 -16.325  -5.789  0.00  0.00    -0.364 N 
ATOM     28  H   UNL d   1      28.607 -16.961  -5.382  0.00  0.00     0.165 HD
ENDBRANCH   2  19
TORSDOF 4
ENDMDL
MODEL 4
REMARK VINA RESULT:    -7.026      4.568      7.150
REMARK INTER + INTRA:         -10.895
REMARK INTER:                  -8.219
REMARK INTRA:                  -2.676
REMARK CONF_INDEPENDENT:        1.193
REMARK UNBOUND:                -2.676
REMARK  4 active torsions:
REMARK  status: ('A' for Active; 'I' for Inactive)
REMARK       I    between atoms: C_2  and  N_3 
REMARK    1  A    between atoms: C_2  and  C_17 
REMARK    2  A    between atoms: N_3  and  N_4 
REMARK    3  A    between atoms: C_5  and  C_6 
REMARK    4  A    between atoms: C_7  and  O_8 
ROOT
ATOM      1  O   UNL d   1      26.866 -15.209  -5.571  0.00  0.00    -0.266 OA
ATOM      2  C   UNL d   1      27.789 -15.264  -4.760  0.00  0.00     0.274 C 
ATOM      3  N   UNL d   1      27.777 -14.703  -3.487  0.00  0.00    -0.243 N 
ATOM      4  H   UNL d   1      28.656 -14.679  -2.977  0.00  0.00     0.192 HD
ENDROOT
BRANCH   3   5
ATOM      5  N   UNL d   1      26.713 -13.962  -3.023  0.00  0.00    -0.183 NA
ATOM      6  C   UNL d   1      25.960 -14.430  -2.061  0.00  0.00     0.153 C 
BRANCH   6   7
ATOM      7  C   UNL d   1      26.174 -15.660  -1.260  0.00  0.00     0.027 A 
ATOM      8  C   UNL d   1      27.477 -15.935  -0.824  0.00  0.00     0.078 A 
ATOM      9  C   UNL d   1      27.765 -17.096  -0.129  0.00  0.00     0.038 A 
ATOM     10  C   UNL d   1      26.733 -17.960   0.219  0.00  0.00     0.015 A 
ATOM     11  C   UNL d   1      25.407 -17.686  -0.145  0.00  0.00    -0.025 A 
ATOM     12  C   UNL d   1      24.389 -18.573   0.245  0.00  0.00     0.012 A 
ATOM     13  C   UNL d   1      25.100 -16.528  -0.911  0.00  0.00    -0.011 A 
ATOM     14  C   UNL d   1      23.065 -18.348  -0.119  0.00  0.00     0.001 A 
ATOM     15  C   UNL d   1      22.744 -17.236  -0.889  0.00  0.00     0.001 A 
ATOM     16  C   UNL d   1      23.744 -16.338  -1.282  0.00  0.00     0.013 A 
BRANCH   8  17
ATOM     17  O   UNL d   1      28.541 -15.112  -1.078  0.00  0.00    -0.360 OA
ATOM     18  H   UNL d   1      28.221 -14.256  -1.446  0.00  0.00     0.217 HD
ENDBRANCH   8  17
ENDBRANCH   6   7
ENDBRANCH   3   5
BRANCH   2  19
ATOM     19  C   UNL d   1      29.074 -15.928  -5.141  0.00  0.00     0.061 A 
ATOM     20  C   UNL d   1      29.567 -15.835  -6.457  0.00  0.00     0.019 A 
ATOM     21  C   UNL d   1      30.787 -16.414  -6.823  0.00  0.00     0.002 A 
ATOM     22  C   UNL d   1      31.545 -17.126  -5.892  0.00  0.00     0.014 A 
ATOM     23  C   UNL d   1      31.050 -17.287  -4.585  0.00  0.00    -0.007 A 
ATOM     24  C   UNL d   1      31.529 -17.991  -3.448  0.00  0.00     0.030 A 
ATOM     25  C   UNL d   1      29.834 -16.691  -4.231  0.00  0.00     0.058 A 
ATOM     26  C   UNL d   1      30.600 -17.843  -2.445  0.00  0.00     0.089 A 
ATOM     27  N   UNL d   1      29.588 -17.058  -2.922  0.00  0.00    -0.364 N 
ATOM     28  H   UNL d   1      28.754 -16.810  -2.404  0.00  0.00     0.165 HD
ENDBRANCH   2  19
TORSDOF 4
ENDMDL
MODEL 5
REMARK VINA RESULT:    -6.945      1.963      3.276
REMARK INTER + INTRA:          -9.943
REMARK INTER:                  -8.138
REMARK INTRA:                  -1.805
REMARK CONF_INDEPENDENT:        1.193
REMARK UNBOUND:                -1.805
REMARK  4 active torsions:
REMARK  status: ('A' for Active; 'I' for Inactive)
REMARK       I    between atoms: C_2  and  N_3 
REMARK    1  A    between atoms: C_2  and  C_17 
REMARK    2  A    between atoms: N_3  and  N_4 
REMARK    3  A    between atoms: C_5  and  C_6 
REMARK    4  A    between atoms: C_7  and  O_8 
ROOT
ATOM      1  O   UNL d   1      29.217 -13.931  -0.725  0.00  0.00    -0.266 OA
ATOM      2  C   UNL d   1      28.802 -14.369   0.347  0.00  0.00     0.274 C 
ATOM      3  N   UNL d   1      28.777 -15.711   0.713  0.00  0.00    -0.243 N 
ATOM      4  H   UNL d   1      28.265 -15.958   1.555  0.00  0.00     0.192 HD
ENDROOT
BRANCH   3   5
ATOM      5  N   UNL d   1      29.180 -16.712  -0.143  0.00  0.00    -0.183 NA
ATOM      6  C   UNL d   1      28.396 -17.096  -1.118  0.00  0.00     0.153 C 
BRANCH   6   7
ATOM      7  C   UNL d   1      27.112 -16.485  -1.541  0.00  0.00     0.027 A 
ATOM      8  C   UNL d   1      27.164 -15.429  -2.460  0.00  0.00     0.078 A 
ATOM      9  C   UNL d   1      26.014 -14.768  -2.851  0.00  0.00     0.038 A 
ATOM     10  C   UNL d   1      24.779 -15.213  -2.395  0.00  0.00     0.015 A 
ATOM     11  C   UNL d   1      24.682 -16.307  -1.523  0.00  0.00    -0.025 A 
ATOM     12  C   UNL d   1      23.414 -16.740  -1.101  0.00  0.00     0.012 A 
ATOM     13  C   UNL d   1      25.858 -16.962  -1.064  0.00  0.00    -0.011 A 
ATOM     14  C   UNL d   1      23.279 -17.807  -0.218  0.00  0.00     0.001 A 
ATOM     15  C   UNL d   1      24.415 -18.447   0.265  0.00  0.00     0.001 A 
ATOM     16  C   UNL d   1      25.687 -18.032  -0.149  0.00  0.00     0.013 A 
BRANCH   8  17
ATOM     17  O   UNL d   1      28.334 -14.962  -2.999  0.00  0.00    -0.360 OA
ATOM     18  H   UNL d   1      29.016 -14.877  -2.294  0.00  0.00     0.217 HD
ENDBRANCH   8  17
ENDBRANCH   6   7
ENDBRANCH   3   5
BRANCH   2  19
ATOM     19  C   UNL d   1      28.213 -13.433   1.354  0.00  0.00     0.061 A 
ATOM     20  C   UNL d   1      27.696 -12.185   0.957  0.00  0.00     0.019 A 
ATOM     21  C   UNL d   1      27.104 -11.313   1.877  0.00  0.00     0.002 A 
ATOM     22  C   UNL d   1      27.030 -11.649   3.230  0.00  0.00     0.014 A 
ATOM     23  C   UNL d   1      27.591 -12.863   3.667  0.00  0.00    -0.007 A 
ATOM     24  C   UNL d   1      27.739 -13.456   4.949  0.00  0.00     0.030 A 
ATOM     25  C   UNL d   1      28.168 -13.730   2.732  0.00  0.00     0.058 A 
ATOM     26  C   UNL d   1      28.419 -14.639   4.784  0.00  0.00     0.089 A 
ATOM     27  N   UNL d   1      28.670 -14.798   3.450  0.00  0.00    -0.364 N 
ATOM     28  H   UNL d   1      29.185 -15.570   3.046  0.00  0.00     0.165 HD
ENDBRANCH   2  19
TORSDOF 4
ENDMDL
MODEL 6
REMARK VINA RESULT:    -6.934      4.677      7.240
REMARK INTER + INTRA:         -10.708
REMARK INTER:                  -8.128
REMARK INTRA:                  -2.580
REMARK CONF_INDEPENDENT:        1.193
REMARK UNBOUND:                -2.580
REMARK  4 active torsions:
REMARK  status: ('A' for Active; 'I' for Inactive)
REMARK       I    between atoms: C_2  and  N_3 
REMARK    1  A    between atoms: C_2  and  C_17 
REMARK    2  A    between atoms: N_3  and  N_4 
REMARK    3  A    between atoms: C_5  and  C_6 
REMARK    4  A    between atoms: C_7  and  O_8 
ROOT
ATOM      1  O   UNL d   1      27.537 -13.095  -5.118  0.00  0.00    -0.266 OA
ATOM      2  C   UNL d   1      27.462 -14.322  -5.100  0.00  0.00     0.274 C 
ATOM      3  N   UNL d   1      26.342 -15.055  -4.723  0.00  0.00    -0.243 N 
ATOM      4  H   UNL d   1      26.457 -16.057  -4.598  0.00  0.00     0.192 HD
ENDROOT
BRANCH   3   5
ATOM      5  N   UNL d   1      25.190 -14.452  -4.268  0.00  0.00    -0.183 NA
ATOM      6  C   UNL d   1      24.786 -14.653  -3.040  0.00  0.00     0.153 C 
BRANCH   6   7
ATOM      7  C   UNL d   1      25.499 -15.377  -1.960  0.00  0.00     0.027 A 
ATOM      8  C   UNL d   1      26.784 -14.935  -1.616  0.00  0.00     0.078 A 
ATOM      9  C   UNL d   1      27.535 -15.600  -0.664  0.00  0.00     0.038 A 
ATOM     10  C   UNL d   1      26.976 -16.669   0.026  0.00  0.00     0.015 A 
ATOM     11  C   UNL d   1      25.670 -17.102  -0.247  0.00  0.00    -0.025 A 
ATOM     12  C   UNL d   1      25.134 -18.173   0.487  0.00  0.00     0.012 A 
ATOM     13  C   UNL d   1      24.904 -16.468  -1.263  0.00  0.00    -0.011 A 
ATOM     14  C   UNL d   1      23.850 -18.646   0.228  0.00  0.00     0.001 A 
ATOM     15  C   UNL d   1      23.092 -18.059  -0.777  0.00  0.00     0.001 A 
ATOM     16  C   UNL d   1      23.608 -16.987  -1.515  0.00  0.00     0.013 A 
BRANCH   8  17
ATOM     17  O   UNL d   1      27.388 -13.857  -2.208  0.00  0.00    -0.360 OA
ATOM     18  H   UNL d   1      26.966 -13.674  -3.078  0.00  0.00     0.217 HD
ENDBRANCH   8  17
ENDBRANCH   6   7
ENDBRANCH   3   5
BRANCH   2  19
ATOM     19  C   UNL d   1      28.662 -15.145  -5.449  0.00  0.00     0.061 A 
ATOM     20  C   UNL d   1      29.144 -15.185  -6.772  0.00  0.00     0.019 A 
ATOM     21  C   UNL d   1      30.288 -15.916  -7.110  0.00  0.00     0.002 A 
ATOM     22  C   UNL d   1      30.976 -16.651  -6.142  0.00  0.00     0.014 A 
ATOM     23  C   UNL d   1      30.483 -16.679  -4.825  0.00  0.00    -0.007 A 
ATOM     24  C   UNL d   1      30.897 -17.362  -3.650  0.00  0.00     0.030 A 
ATOM     25  C   UNL d   1      29.345 -15.932  -4.499  0.00  0.00     0.058 A 
ATOM     26  C   UNL d   1      30.003 -17.054  -2.653  0.00  0.00     0.089 A 
ATOM     27  N   UNL d   1      29.077 -16.191  -3.170  0.00  0.00    -0.364 N 
ATOM     28  H   UNL d   1      28.283 -15.823  -2.662  0.00  0.00     0.165 HD
ENDBRANCH   2  19
TORSDOF 4
ENDMDL
MODEL 7
REMARK VINA RESULT:    -6.763      4.770      7.537
REMARK INTER + INTRA:         -10.270
REMARK INTER:                  -7.956
REMARK INTRA:                  -2.314
REMARK CONF_INDEPENDENT:        1.193
REMARK UNBOUND:                -2.314
REMARK  4 active torsions:
REMARK  status: ('A' for Active; 'I' for Inactive)
REMARK       I    between atoms: C_2  and  N_3 
REMARK    1  A    between atoms: C_2  and  C_17 
REMARK    2  A    between atoms: N_3  and  N_4 
REMARK    3  A    between atoms: C_5  and  C_6 
REMARK    4  A    between atoms: C_7  and  O_8 
ROOT
ATOM      1  O   UNL d   1      24.780 -14.548  -4.047  0.00  0.00    -0.266 OA
ATOM      2  C   UNL d   1      25.639 -15.291  -3.576  0.00  0.00     0.274 C 
ATOM      3  N   UNL d   1      26.868 -15.575  -4.163  0.00  0.00    -0.243 N 
ATOM      4  H   UNL d   1      27.420 -16.325  -3.757  0.00  0.00     0.192 HD
ENDROOT
BRANCH   3   5
ATOM      5  N   UNL d   1      27.225 -15.073  -5.395  0.00  0.00    -0.183 NA
ATOM      6  C   UNL d   1      27.323 -13.781  -5.572  0.00  0.00     0.153 C 
BRANCH   6   7
ATOM      7  C   UNL d   1      27.224 -12.716  -4.544  0.00  0.00     0.027 A 
ATOM      8  C   UNL d   1      27.878 -12.927  -3.322  0.00  0.00     0.078 A 
ATOM      9  C   UNL d   1      27.778 -12.009  -2.293  0.00  0.00     0.038 A 
ATOM     10  C   UNL d   1      27.092 -10.818  -2.501  0.00  0.00     0.015 A 
ATOM     11  C   UNL d   1      26.478 -10.543  -3.732  0.00  0.00    -0.025 A 
ATOM     12  C   UNL d   1      25.812  -9.319  -3.910  0.00  0.00     0.012 A 
ATOM     13  C   UNL d   1      26.520 -11.501  -4.782  0.00  0.00    -0.011 A 
ATOM     14  C   UNL d   1      25.170  -9.021  -5.108  0.00  0.00     0.001 A 
ATOM     15  C   UNL d   1      25.177  -9.951  -6.140  0.00  0.00     0.001 A 
ATOM     16  C   UNL d   1      25.839 -11.175  -5.983  0.00  0.00     0.013 A 
BRANCH   8  17
ATOM     17  O   UNL d   1      28.618 -14.048  -3.053  0.00  0.00    -0.360 OA
ATOM     18  H   UNL d   1      28.676 -14.611  -3.858  0.00  0.00     0.217 HD
ENDBRANCH   8  17
ENDBRANCH   6   7
ENDBRANCH   3   5
BRANCH   2  19
ATOM     19  C   UNL d   1      25.371 -16.021  -2.298  0.00  0.00     0.061 A 
ATOM     20  C   UNL d   1      24.055 -16.170  -1.819  0.00  0.00     0.019 A 
ATOM     21  C   UNL d   1      23.780 -16.883  -0.648  0.00  0.00     0.002 A 
ATOM     22  C   UNL d   1      24.815 -17.452   0.099  0.00  0.00     0.014 A 
ATOM     23  C   UNL d   1      26.144 -17.270  -0.322  0.00  0.00    -0.007 A 
ATOM     24  C   UNL d   1      27.396 -17.651   0.230  0.00  0.00     0.030 A 
ATOM     25  C   UNL d   1      26.402 -16.564  -1.503  0.00  0.00     0.058 A 
ATOM     26  C   UNL d   1      28.381 -17.154  -0.589  0.00  0.00     0.089 A 
ATOM     27  N   UNL d   1      27.776 -16.506  -1.630  0.00  0.00    -0.364 N 
ATOM     28  H   UNL d   1      28.264 -16.019  -2.370  0.00  0.00     0.165 HD
ENDBRANCH   2  19
TORSDOF 4
ENDMDL
MODEL 8
REMARK VINA RESULT:    -6.753      1.591      1.944
REMARK INTER + INTRA:         -10.332
REMARK INTER:                  -7.946
REMARK INTRA:                  -2.385
REMARK CONF_INDEPENDENT:        1.193
REMARK UNBOUND:                -2.385
REMARK  4 active torsions:
REMARK  status: ('A' for Active; 'I' for Inactive)
REMARK       I    between atoms: C_2  and  N_3 
REMARK    1  A    between atoms: C_2  and  C_17 
REMARK    2  A    between atoms: N_3  and  N_4 
REMARK    3  A    between atoms: C_5  and  C_6 
REMARK    4  A    between atoms: C_7  and  O_8 
ROOT
ATOM      1  O   UNL d   1      26.380 -13.591   1.116  0.00  0.00    -0.266 OA
ATOM      2  C   UNL d   1      27.540 -13.791   0.763  0.00  0.00     0.274 C 
ATOM      3  N   UNL d   1      27.974 -13.895  -0.554  0.00  0.00    -0.243 N 
ATOM      4  H   UNL d   1      28.924 -14.219  -0.711  0.00  0.00     0.192 HD
ENDROOT
BRANCH   3   5
ATOM      5  N   UNL d   1      27.104 -13.832  -1.620  0.00  0.00    -0.183 NA
ATOM      6  C   UNL d   1      26.378 -14.873  -1.935  0.00  0.00     0.153 C 
BRANCH   6   7
ATOM      7  C   UNL d   1      26.252 -16.148  -1.188  0.00  0.00     0.027 A 
ATOM      8  C   UNL d   1      27.432 -16.787  -0.785  0.00  0.00     0.078 A 
ATOM      9  C   UNL d   1      27.396 -18.011  -0.143  0.00  0.00     0.038 A 
ATOM     10  C   UNL d   1      26.169 -18.575   0.189  0.00  0.00     0.015 A 
ATOM     11  C   UNL d   1      24.966 -17.935  -0.142  0.00  0.00    -0.025 A 
ATOM     12  C   UNL d   1      23.747 -18.526   0.230  0.00  0.00     0.012 A 
ATOM     13  C   UNL d   1      24.984 -16.704  -0.855  0.00  0.00    -0.011 A 
ATOM     14  C   UNL d   1      22.533 -17.932  -0.102  0.00  0.00     0.001 A 
ATOM     15  C   UNL d   1      22.524 -16.743  -0.821  0.00  0.00     0.001 A 
ATOM     16  C   UNL d   1      23.729 -16.136  -1.195  0.00  0.00     0.013 A 
BRANCH   8  17
ATOM     17  O   UNL d   1      28.680 -16.276  -1.025  0.00  0.00    -0.360 OA
ATOM     18  H   UNL d   1      28.609 -15.471  -1.588  0.00  0.00     0.217 HD
ENDBRANCH   8  17
ENDBRANCH   6   7
ENDBRANCH   3   5
BRANCH   2  19
ATOM     19  C   UNL d   1      28.604 -14.006   1.793  0.00  0.00     0.061 A 
ATOM     20  C   UNL d   1      29.930 -14.285   1.407  0.00  0.00     0.019 A 
ATOM     21  C   UNL d   1      30.946 -14.449   2.354  0.00  0.00     0.002 A 
ATOM     22  C   UNL d   1      30.669 -14.363   3.720  0.00  0.00     0.014 A 
ATOM     23  C   UNL d   1      29.343 -14.144   4.137  0.00  0.00    -0.007 A 
ATOM     24  C   UNL d   1      28.730 -14.072   5.416  0.00  0.00     0.030 A 
ATOM     25  C   UNL d   1      28.340 -13.969   3.177  0.00  0.00     0.058 A 
ATOM     26  C   UNL d   1      27.381 -13.890   5.222  0.00  0.00     0.089 A 
ATOM     27  N   UNL d   1      27.156 -13.826   3.875  0.00  0.00    -0.364 N 
ATOM     28  H   UNL d   1      26.245 -13.725   3.445  0.00  0.00     0.165 HD
ENDBRANCH   2  19
TORSDOF 4
ENDMDL
MODEL 9
REMARK VINA RESULT:    -6.595      4.929      7.602
REMARK INTER + INTRA:         -10.181
REMARK INTER:                  -7.789
REMARK INTRA:                  -2.392
REMARK CONF_INDEPENDENT:        1.193
REMARK UNBOUND:                -2.392
REMARK  4 active torsions:
REMARK  status: ('A' for Active; 'I' for Inactive)
REMARK       I    between atoms: C_2  and  N_3 
REMARK    1  A    between atoms: C_2  and  C_17 
REMARK    2  A    between atoms: N_3  and  N_4 
REMARK    3  A    between atoms: C_5  and  C_6 
REMARK    4  A    between atoms: C_7  and  O_8 
ROOT
ATOM      1  O   UNL d   1      25.117 -14.452  -4.214  0.00  0.00    -0.266 OA
ATOM      2  C   UNL d   1      25.875 -15.226  -3.632  0.00  0.00     0.274 C 
ATOM      3  N   UNL d   1      27.153 -15.575  -4.058  0.00  0.00    -0.243 N 
ATOM      4  H   UNL d   1      27.613 -16.342  -3.577  0.00  0.00     0.192 HD
ENDROOT
BRANCH   3   5
ATOM      5  N   UNL d   1      27.684 -15.109  -5.240  0.00  0.00    -0.183 NA
ATOM      6  C   UNL d   1      28.921 -15.389  -5.557  0.00  0.00     0.153 C 
BRANCH   6   7
ATOM      7  C   UNL d   1      29.854 -16.298  -4.848  0.00  0.00     0.027 A 
ATOM      8  C   UNL d   1      30.037 -16.101  -3.472  0.00  0.00     0.078 A 
ATOM      9  C   UNL d   1      30.939 -16.867  -2.756  0.00  0.00     0.038 A 
ATOM     10  C   UNL d   1      31.610 -17.906  -3.390  0.00  0.00     0.015 A 
ATOM     11  C   UNL d   1      31.407 -18.174  -4.752  0.00  0.00    -0.025 A 
ATOM     12  C   UNL d   1      32.089 -19.246  -5.351  0.00  0.00     0.012 A 
ATOM     13  C   UNL d   1      30.528 -17.360  -5.517  0.00  0.00    -0.011 A 
ATOM     14  C   UNL d   1      31.931 -19.528  -6.705  0.00  0.00     0.001 A 
ATOM     15  C   UNL d   1      31.097 -18.731  -7.479  0.00  0.00     0.001 A 
ATOM     16  C   UNL d   1      30.405 -17.661  -6.898  0.00  0.00     0.013 A 
BRANCH   8  17
ATOM     17  O   UNL d   1      29.376 -15.136  -2.760  0.00  0.00    -0.360 OA
ATOM     18  H   UNL d   1      28.776 -14.632  -3.357  0.00  0.00     0.217 HD
ENDBRANCH   8  17
ENDBRANCH   6   7
ENDBRANCH   3   5
BRANCH   2  19
ATOM     19  C   UNL d   1      25.416 -15.922  -2.390  0.00  0.00     0.061 A 
ATOM     20  C   UNL d   1      24.057 -15.905  -2.019  0.00  0.00     0.019 A 
ATOM     21  C   UNL d   1      23.602 -16.583  -0.883  0.00  0.00     0.002 A 
ATOM     22  C   UNL d   1      24.493 -17.282  -0.066  0.00  0.00     0.014 A 
ATOM     23  C   UNL d   1      25.864 -17.268  -0.378  0.00  0.00    -0.007 A 
ATOM     24  C   UNL d   1      27.010 -17.807   0.266  0.00  0.00     0.030 A 
ATOM     25  C   UNL d   1      26.302 -16.595  -1.525  0.00  0.00     0.058 A 
ATOM     26  C   UNL d   1      28.112 -17.435  -0.466  0.00  0.00     0.089 A 
ATOM     27  N   UNL d   1      27.678 -16.712  -1.541  0.00  0.00    -0.364 N 
ATOM     28  H   UNL d   1      28.282 -16.286  -2.234  0.00  0.00     0.165 HD
ENDBRANCH   2  19
TORSDOF 4
ENDMDL
