MODEL 1
REMARK VINA RESULT:   -30.829      0.000      0.000
REMARK INTER + INTRA:         -32.831
REMARK INTER:                 -32.321
REMARK INTRA:                  -0.510
REMARK CONF_INDEPENDENT:        1.492
REMARK UNBOUND:                -0.510
REMARK  5 active torsions:
REMARK  status: ('A' for Active; 'I' for Inactive)
REMARK    1  A    between atoms: O_2  and  C_3 
REMARK    2  A    between atoms: C_9  and  N_10 
REMARK    3  A    between atoms: N_10  and  C_11 
REMARK    4  A    between atoms: C_11  and  C_13 
REMARK       I    between atoms: C_13  and  N_15 
REMARK    5  A    between atoms: N_15  and  C_16 
ROOT
ATOM      1  C   UNL d   1      24.398 -17.580  -1.350  0.00  0.00     0.170 C 
ATOM      2  C   UNL d   1      25.718 -17.930  -0.667  0.00  0.00     0.042 C 
ENDROOT
BRANCH   1   3
ATOM      3  N   UNL d   1      24.249 -16.117  -1.453  0.00  0.00    -0.375 N 
ATOM      4  H   UNL d   1      23.290 -15.772  -1.391  0.00  0.00     0.160 HD
BRANCH   3   5
ATOM      5  C   UNL d   1      25.313 -15.218  -1.489  0.00  0.00     0.064 A 
ATOM      6  C   UNL d   1      25.917 -14.844  -0.270  0.00  0.00     0.056 A 
ATOM      7  C   UNL d   1      27.007 -13.966  -0.245  0.00  0.00     0.036 A 
ATOM      8  C   UNL d   1      27.534 -13.456  -1.426  0.00  0.00     0.026 A 
ATOM      9 CL   UNL d   1      27.707 -13.489   1.256  0.00  0.00    -0.084 Cl
ATOM     10  C   UNL d   1      26.958 -13.805  -2.645  0.00  0.00     0.041 A 
ATOM     11  C   UNL d   1      25.848 -14.652  -2.680  0.00  0.00     0.094 A 
BRANCH  11  12
ATOM     12  O   UNL d   1      25.177 -14.812  -3.872  0.00  0.00    -0.354 OA
ATOM     13  C   UNL d   1      25.952 -15.256  -4.988  0.00  0.00     0.210 C 
ENDBRANCH  11  12
ENDBRANCH   3   5
ENDBRANCH   1   3
BRANCH   1  14
ATOM     14  C   UNL d   1      23.274 -18.199  -0.500  0.00  0.00     0.245 C 
ATOM     15  O   UNL d   1      23.486 -18.529   0.677  0.00  0.00    -0.271 OA
ATOM     16  N   UNL d   1      22.060 -18.388  -1.159  0.00  0.00    -0.310 N 
ATOM     17  H   UNL d   1      22.027 -18.407  -2.170  0.00  0.00     0.170 HD
BRANCH  16  18
ATOM     18  C   UNL d   1      20.979 -19.015  -0.525  0.00  0.00     0.129 A 
ATOM     19  C   UNL d   1      21.057 -19.287   0.836  0.00  0.00     0.052 A 
ATOM     20  C   UNL d   1      20.028 -19.978   1.461  0.00  0.00     0.029 A 
ATOM     21  C   UNL d   1      18.943 -20.388   0.705  0.00  0.00     0.051 A 
ATOM     22 CL   UNL d   1      17.679 -21.291   1.433  0.00  0.00    -0.083 Cl
ATOM     23  C   UNL d   1      18.916 -20.042  -0.640  0.00  0.00     0.142 A 
ATOM     24  N   UNL d   1      19.895 -19.325  -1.269  0.00  0.00    -0.242 NA
ENDBRANCH  16  18
ENDBRANCH   1  14
TORSDOF 5
ENDMDL
MODEL 2
REMARK VINA RESULT:   -30.179      1.827      2.404
REMARK INTER + INTRA:         -32.573
REMARK INTER:                 -31.671
REMARK INTRA:                  -0.903
REMARK CONF_INDEPENDENT:        1.492
REMARK UNBOUND:                -0.903
REMARK  5 active torsions:
REMARK  status: ('A' for Active; 'I' for Inactive)
REMARK    1  A    between atoms: O_2  and  C_3 
REMARK    2  A    between atoms: C_9  and  N_10 
REMARK    3  A    between atoms: N_10  and  C_11 
REMARK    4  A    between atoms: C_11  and  C_13 
REMARK       I    between atoms: C_13  and  N_15 
REMARK    5  A    between atoms: N_15  and  C_16 
ROOT
ATOM      1  C   UNL d   1      24.382 -17.764  -1.419  0.00  0.00     0.170 C 
ATOM      2  C   UNL d   1      25.723 -18.131  -0.789  0.00  0.00     0.042 C 
ENDROOT
BRANCH   1   3
ATOM      3  N   UNL d   1      24.104 -16.329  -1.227  0.00  0.00    -0.375 N 
ATOM      4  H   UNL d   1      23.234 -16.116  -0.739  0.00  0.00     0.160 HD
BRANCH   3   5
ATOM      5  C   UNL d   1      24.997 -15.305  -1.541  0.00  0.00     0.064 A 
ATOM      6  C   UNL d   1      24.901 -14.698  -2.811  0.00  0.00     0.056 A 
ATOM      7  C   UNL d   1      25.752 -13.646  -3.173  0.00  0.00     0.036 A 
ATOM      8  C   UNL d   1      26.701 -13.162  -2.279  0.00  0.00     0.026 A 
ATOM      9 CL   UNL d   1      25.647 -12.943  -4.742  0.00  0.00    -0.084 Cl
ATOM     10  C   UNL d   1      26.821 -13.744  -1.020  0.00  0.00     0.041 A 
ATOM     11  C   UNL d   1      26.001 -14.816  -0.660  0.00  0.00     0.094 A 
BRANCH  11  12
ATOM     12  O   UNL d   1      26.281 -15.499   0.503  0.00  0.00    -0.354 OA
ATOM     13  C   UNL d   1      27.661 -15.717   0.802  0.00  0.00     0.210 C 
ENDBRANCH  11  12
ENDBRANCH   3   5
ENDBRANCH   1   3
BRANCH   1  14
ATOM     14  C   UNL d   1      23.312 -18.638  -0.740  0.00  0.00     0.245 C 
ATOM     15  O   UNL d   1      23.635 -19.673  -0.139  0.00  0.00    -0.271 OA
ATOM     16  N   UNL d   1      21.997 -18.200  -0.894  0.00  0.00    -0.310 N 
ATOM     17  H   UNL d   1      21.758 -17.557  -1.638  0.00  0.00     0.170 HD
BRANCH  16  18
ATOM     18  C   UNL d   1      20.921 -18.945  -0.395  0.00  0.00     0.129 A 
ATOM     19  C   UNL d   1      20.932 -19.342   0.937  0.00  0.00     0.052 A 
ATOM     20  C   UNL d   1      19.911 -20.146   1.426  0.00  0.00     0.029 A 
ATOM     21  C   UNL d   1      18.902 -20.542   0.565  0.00  0.00     0.051 A 
ATOM     22 CL   UNL d   1      17.654 -21.579   1.120  0.00  0.00    -0.083 Cl
ATOM     23  C   UNL d   1      18.936 -20.069  -0.741  0.00  0.00     0.142 A 
ATOM     24  N   UNL d   1      19.905 -19.241  -1.234  0.00  0.00    -0.242 NA
ENDBRANCH  16  18
ENDBRANCH   1  14
TORSDOF 5
ENDMDL
MODEL 3
REMARK VINA RESULT:   -29.466      2.112      2.633
REMARK INTER + INTRA:         -32.096
REMARK INTER:                 -30.957
REMARK INTRA:                  -1.139
REMARK CONF_INDEPENDENT:        1.492
REMARK UNBOUND:                -1.139
REMARK  5 active torsions:
REMARK  status: ('A' for Active; 'I' for Inactive)
REMARK    1  A    between atoms: O_2  and  C_3 
REMARK    2  A    between atoms: C_9  and  N_10 
REMARK    3  A    between atoms: N_10  and  C_11 
REMARK    4  A    between atoms: C_11  and  C_13 
REMARK       I    between atoms: C_13  and  N_15 
REMARK    5  A    between atoms: N_15  and  C_16 
ROOT
ATOM      1  C   UNL d   1      24.316 -17.018  -0.659  0.00  0.00     0.170 C 
ATOM      2  C   UNL d   1      24.495 -17.440  -2.115  0.00  0.00     0.042 C 
ENDROOT
BRANCH   1   3
ATOM      3  N   UNL d   1      25.583 -17.184   0.079  0.00  0.00    -0.375 N 
ATOM      4  H   UNL d   1      25.539 -17.813   0.881  0.00  0.00     0.160 HD
BRANCH   3   5
ATOM      5  C   UNL d   1      26.807 -16.658  -0.330  0.00  0.00     0.064 A 
ATOM      6  C   UNL d   1      27.877 -17.548  -0.555  0.00  0.00     0.056 A 
ATOM      7  C   UNL d   1      29.123 -17.081  -0.993  0.00  0.00     0.036 A 
ATOM      8  C   UNL d   1      29.327 -15.727  -1.236  0.00  0.00     0.026 A 
ATOM      9 CL   UNL d   1      30.432 -18.178  -1.226  0.00  0.00    -0.084 Cl
ATOM     10  C   UNL d   1      28.290 -14.825  -1.020  0.00  0.00     0.041 A 
ATOM     11  C   UNL d   1      27.053 -15.274  -0.549  0.00  0.00     0.094 A 
BRANCH  11  12
ATOM     12  O   UNL d   1      26.121 -14.343  -0.151  0.00  0.00    -0.354 OA
ATOM     13  C   UNL d   1      26.510 -13.454   0.899  0.00  0.00     0.210 C 
ENDBRANCH  11  12
ENDBRANCH   3   5
ENDBRANCH   1   3
BRANCH   1  14
ATOM     14  C   UNL d   1      23.204 -17.902  -0.067  0.00  0.00     0.245 C 
ATOM     15  O   UNL d   1      23.417 -18.590   0.942  0.00  0.00    -0.271 OA
ATOM     16  N   UNL d   1      21.998 -17.892  -0.767  0.00  0.00    -0.310 N 
ATOM     17  H   UNL d   1      21.969 -17.584  -1.730  0.00  0.00     0.170 HD
BRANCH  16  18
ATOM     18  C   UNL d   1      20.929 -18.712  -0.382  0.00  0.00     0.129 A 
ATOM     19  C   UNL d   1      20.955 -19.318   0.869  0.00  0.00     0.052 A 
ATOM     20  C   UNL d   1      19.942 -20.194   1.232  0.00  0.00     0.029 A 
ATOM     21  C   UNL d   1      18.925 -20.452   0.329  0.00  0.00     0.051 A 
ATOM     22 CL   UNL d   1      17.687 -21.571   0.723  0.00  0.00    -0.083 Cl
ATOM     23  C   UNL d   1      18.944 -19.776  -0.885  0.00  0.00     0.142 A 
ATOM     24  N   UNL d   1      19.905 -18.876  -1.249  0.00  0.00    -0.242 NA
ENDBRANCH  16  18
ENDBRANCH   1  14
TORSDOF 5
ENDMDL
