MODEL 1
REMARK VINA RESULT:    -8.199      0.000      0.000
REMARK INTER + INTRA:         -12.250
REMARK INTER:                  -9.989
REMARK INTRA:                  -2.261
REMARK CONF_INDEPENDENT:        1.790
REMARK UNBOUND:                -2.261
REMARK  6 active torsions:
REMARK  status: ('A' for Active; 'I' for Inactive)
REMARK    1  A    between atoms: C_6  and  C_7 
REMARK       I    between atoms: C_7  and  N_9 
REMARK    2  A    between atoms: N_9  and  C_10 
REMARK    3  A    between atoms: C_15  and  C_16 
REMARK    4  A    between atoms: C_16  and  C_17 
REMARK    5  A    between atoms: N_24  and  C_25 
REMARK    6  A    between atoms: C_29  and  C_30 
ROOT
ATOM      1  C   UNL d   1      24.836 -14.127  -3.206  0.00  0.00     0.070 C 
ATOM      2  C   UNL d   1      26.124 -14.553  -3.882  0.00  0.00     0.036 C 
ATOM      3  C   UNL d   1      26.440 -13.922  -5.015  0.00  0.00     0.084 C 
ATOM      4  C   UNL d   1      27.634 -14.371  -5.737  0.00  0.00     0.209 C 
ATOM      5  O   UNL d   1      27.887 -13.866  -6.810  0.00  0.00    -0.286 OA
ATOM      6  C   UNL d   1      28.549 -15.384  -5.036  0.00  0.00     0.195 C 
ATOM      7  N   UNL d   1      28.185 -15.950  -3.899  0.00  0.00    -0.158 NA
ATOM      8  N   UNL d   1      26.965 -15.537  -3.319  0.00  0.00    -0.238 N 
ENDROOT
BRANCH   6   9
ATOM      9  C   UNL d   1      29.969 -15.602  -5.628  0.00  0.00     0.280 C 
ATOM     10  O   UNL d   1      30.910 -15.830  -4.867  0.00  0.00    -0.265 OA
ATOM     11  N   UNL d   1      30.117 -15.594  -7.009  0.00  0.00    -0.321 N 
ATOM     12  H   UNL d   1      29.356 -15.247  -7.581  0.00  0.00     0.169 HD
BRANCH  11  13
ATOM     13  C   UNL d   1      31.321 -16.012  -7.644  0.00  0.00     0.041 A 
ATOM     14  C   UNL d   1      32.216 -14.985  -7.966  0.00  0.00     0.030 A 
ATOM     15  C   UNL d   1      33.496 -15.272  -8.443  0.00  0.00     0.002 A 
ATOM     16  C   UNL d   1      33.883 -16.588  -8.664  0.00  0.00     0.001 A 
ATOM     17  C   UNL d   1      32.974 -17.618  -8.432  0.00  0.00     0.010 A 
ATOM     18  C   UNL d   1      31.673 -17.357  -7.934  0.00  0.00    -0.027 A 
BRANCH  18  19
ATOM     19  C   UNL d   1      30.780 -18.591  -7.835  0.00  0.00     0.079 C 
BRANCH  19  20
ATOM     20  C   UNL d   1      30.811 -19.400  -6.566  0.00  0.00    -0.054 C 
ATOM     21  C   UNL d   1      31.320 -20.705  -6.594  0.00  0.00     0.007 C 
ATOM     22  C   UNL d   1      31.461 -21.421  -5.411  0.00  0.00     0.001 C 
ATOM     23  C   UNL d   1      31.209 -20.790  -4.193  0.00  0.00     0.000 C 
ATOM     24  C   UNL d   1      30.780 -19.466  -4.159  0.00  0.00     0.001 C 
ATOM     25  C   UNL d   1      30.484 -18.805  -5.340  0.00  0.00     0.007 C 
ENDBRANCH  19  20
ENDBRANCH  18  19
ENDBRANCH  11  13
ENDBRANCH   6   9
BRANCH   8  26
ATOM     26  C   UNL d   1      26.594 -16.208  -2.110  0.00  0.00     0.059 A 
ATOM     27  C   UNL d   1      27.400 -16.280  -0.960  0.00  0.00     0.031 A 
ATOM     28  C   UNL d   1      26.950 -16.939   0.198  0.00  0.00     0.003 A 
ATOM     29  C   UNL d   1      25.683 -17.517   0.228  0.00  0.00     0.016 A 
ATOM     30  C   UNL d   1      24.851 -17.429  -0.892  0.00  0.00     0.050 A 
ATOM     31  C   UNL d   1      25.320 -16.780  -2.042  0.00  0.00     0.047 A 
BRANCH  30  32
ATOM     32  C   UNL d   1      23.478 -18.037  -0.884  0.00  0.00     0.417 C 
ATOM     33  F   UNL d   1      23.240 -18.757   0.244  0.00  0.00    -0.166 F 
ATOM     34  F   UNL d   1      22.492 -17.102  -0.956  0.00  0.00    -0.166 F 
ATOM     35  F   UNL d   1      23.259 -18.887  -1.926  0.00  0.00    -0.166 F 
ENDBRANCH  30  32
ENDBRANCH   8  26
TORSDOF 6
ENDMDL
MODEL 2
REMARK VINA RESULT:    -8.082      5.507      8.527
REMARK INTER + INTRA:         -12.871
REMARK INTER:                  -9.872
REMARK INTRA:                  -2.999
REMARK CONF_INDEPENDENT:        1.790
REMARK UNBOUND:                -2.999
REMARK  6 active torsions:
REMARK  status: ('A' for Active; 'I' for Inactive)
REMARK    1  A    between atoms: C_6  and  C_7 
REMARK       I    between atoms: C_7  and  N_9 
REMARK    2  A    between atoms: N_9  and  C_10 
REMARK    3  A    between atoms: C_15  and  C_16 
REMARK    4  A    between atoms: C_16  and  C_17 
REMARK    5  A    between atoms: N_24  and  C_25 
REMARK    6  A    between atoms: C_29  and  C_30 
ROOT
ATOM      1  C   UNL d   1      28.266 -10.709  -5.897  0.00  0.00     0.070 C 
ATOM      2  C   UNL d   1      27.497 -11.877  -5.313  0.00  0.00     0.036 C 
ATOM      3  C   UNL d   1      27.806 -13.089  -5.782  0.00  0.00     0.084 C 
ATOM      4  C   UNL d   1      27.020 -14.228  -5.301  0.00  0.00     0.209 C 
ATOM      5  O   UNL d   1      27.231 -15.322  -5.779  0.00  0.00    -0.286 OA
ATOM      6  C   UNL d   1      26.046 -13.980  -4.141  0.00  0.00     0.195 C 
ATOM      7  N   UNL d   1      25.808 -12.755  -3.708  0.00  0.00    -0.158 NA
ATOM      8  N   UNL d   1      26.533 -11.696  -4.298  0.00  0.00    -0.238 N 
ENDROOT
BRANCH   6   9
ATOM      9  C   UNL d   1      25.473 -15.223  -3.404  0.00  0.00     0.280 C 
ATOM     10  O   UNL d   1      25.530 -16.325  -3.950  0.00  0.00    -0.265 OA
ATOM     11  N   UNL d   1      24.972 -15.056  -2.119  0.00  0.00    -0.321 N 
ATOM     12  H   UNL d   1      24.800 -14.117  -1.778  0.00  0.00     0.169 HD
BRANCH  11  13
ATOM     13  C   UNL d   1      24.646 -16.161  -1.284  0.00  0.00     0.041 A 
ATOM     14  C   UNL d   1      23.280 -16.447  -1.174  0.00  0.00     0.030 A 
ATOM     15  C   UNL d   1      22.837 -17.598  -0.519  0.00  0.00     0.002 A 
ATOM     16  C   UNL d   1      23.748 -18.451   0.091  0.00  0.00     0.001 A 
ATOM     17  C   UNL d   1      25.105 -18.136   0.067  0.00  0.00     0.010 A 
ATOM     18  C   UNL d   1      25.584 -16.982  -0.602  0.00  0.00    -0.027 A 
BRANCH  18  19
ATOM     19  C   UNL d   1      27.082 -16.740  -0.442  0.00  0.00     0.079 C 
BRANCH  19  20
ATOM     20  C   UNL d   1      27.623 -15.364  -0.721  0.00  0.00    -0.054 C 
ATOM     21  C   UNL d   1      28.490 -15.171  -1.804  0.00  0.00     0.007 C 
ATOM     22  C   UNL d   1      28.904 -13.889  -2.143  0.00  0.00     0.001 C 
ATOM     23  C   UNL d   1      28.356 -12.793  -1.478  0.00  0.00     0.000 C 
ATOM     24  C   UNL d   1      27.431 -12.978  -0.453  0.00  0.00     0.001 C 
ATOM     25  C   UNL d   1      27.141 -14.257  -0.007  0.00  0.00     0.007 C 
ENDBRANCH  19  20
ENDBRANCH  18  19
ENDBRANCH  11  13
ENDBRANCH   6   9
BRANCH   8  26
ATOM     26  C   UNL d   1      26.211 -10.384  -3.824  0.00  0.00     0.059 A 
ATOM     27  C   UNL d   1      26.709  -9.823  -2.635  0.00  0.00     0.031 A 
ATOM     28  C   UNL d   1      26.362  -8.514  -2.252  0.00  0.00     0.003 A 
ATOM     29  C   UNL d   1      25.530  -7.744  -3.062  0.00  0.00     0.016 A 
ATOM     30  C   UNL d   1      25.050  -8.270  -4.266  0.00  0.00     0.050 A 
ATOM     31  C   UNL d   1      25.395  -9.580  -4.625  0.00  0.00     0.047 A 
BRANCH  30  32
ATOM     32  C   UNL d   1      24.157  -7.459  -5.161  0.00  0.00     0.417 C 
ATOM     33  F   UNL d   1      24.673  -7.316  -6.410  0.00  0.00    -0.166 F 
ATOM     34  F   UNL d   1      22.927  -8.020  -5.316  0.00  0.00    -0.166 F 
ATOM     35  F   UNL d   1      23.933  -6.197  -4.699  0.00  0.00    -0.166 F 
ENDBRANCH  30  32
ENDBRANCH   8  26
TORSDOF 6
ENDMDL
MODEL 3
REMARK VINA RESULT:    -7.947      5.266      8.393
REMARK INTER + INTRA:         -12.818
REMARK INTER:                  -9.737
REMARK INTRA:                  -3.081
REMARK CONF_INDEPENDENT:        1.790
REMARK UNBOUND:                -3.081
REMARK  6 active torsions:
REMARK  status: ('A' for Active; 'I' for Inactive)
REMARK    1  A    between atoms: C_6  and  C_7 
REMARK       I    between atoms: C_7  and  N_9 
REMARK    2  A    between atoms: N_9  and  C_10 
REMARK    3  A    between atoms: C_15  and  C_16 
REMARK    4  A    between atoms: C_16  and  C_17 
REMARK    5  A    between atoms: N_24  and  C_25 
REMARK    6  A    between atoms: C_29  and  C_30 
ROOT
ATOM      1  C   UNL d   1      28.181 -10.786  -6.341  0.00  0.00     0.070 C 
ATOM      2  C   UNL d   1      27.450 -11.935  -5.675  0.00  0.00     0.036 C 
ATOM      3  C   UNL d   1      27.858 -13.166  -5.995  0.00  0.00     0.084 C 
ATOM      4  C   UNL d   1      27.114 -14.298  -5.436  0.00  0.00     0.209 C 
ATOM      5  O   UNL d   1      27.418 -15.419  -5.783  0.00  0.00    -0.286 OA
ATOM      6  C   UNL d   1      26.061 -13.995  -4.360  0.00  0.00     0.195 C 
ATOM      7  N   UNL d   1      25.726 -12.750  -4.074  0.00  0.00    -0.158 NA
ATOM      8  N   UNL d   1      26.420 -11.713  -4.737  0.00  0.00    -0.238 N 
ENDROOT
BRANCH   6   9
ATOM      9  C   UNL d   1      25.522 -15.190  -3.525  0.00  0.00     0.280 C 
ATOM     10  O   UNL d   1      25.530 -16.319  -4.015  0.00  0.00    -0.265 OA
ATOM     11  N   UNL d   1      25.107 -14.949  -2.222  0.00  0.00    -0.321 N 
ATOM     12  H   UNL d   1      24.968 -13.992  -1.920  0.00  0.00     0.169 HD
BRANCH  11  13
ATOM     13  C   UNL d   1      24.821 -16.005  -1.311  0.00  0.00     0.041 A 
ATOM     14  C   UNL d   1      23.480 -16.402  -1.254  0.00  0.00     0.030 A 
ATOM     15  C   UNL d   1      23.094 -17.528  -0.525  0.00  0.00     0.002 A 
ATOM     16  C   UNL d   1      24.032 -18.242   0.210  0.00  0.00     0.001 A 
ATOM     17  C   UNL d   1      25.356 -17.810   0.236  0.00  0.00     0.010 A 
ATOM     18  C   UNL d   1      25.780 -16.679  -0.506  0.00  0.00    -0.027 A 
BRANCH  18  19
ATOM     19  C   UNL d   1      27.238 -16.292  -0.283  0.00  0.00     0.079 C 
BRANCH  19  20
ATOM     20  C   UNL d   1      27.698 -14.930  -0.731  0.00  0.00    -0.054 C 
ATOM     21  C   UNL d   1      28.496 -14.815  -1.877  0.00  0.00     0.007 C 
ATOM     22  C   UNL d   1      28.830 -13.559  -2.366  0.00  0.00     0.001 C 
ATOM     23  C   UNL d   1      28.268 -12.423  -1.784  0.00  0.00     0.000 C 
ATOM     24  C   UNL d   1      27.409 -12.540  -0.694  0.00  0.00     0.001 C 
ATOM     25  C   UNL d   1      27.204 -13.776  -0.106  0.00  0.00     0.007 C 
ENDBRANCH  19  20
ENDBRANCH  18  19
ENDBRANCH  11  13
ENDBRANCH   6   9
BRANCH   8  26
ATOM     26  C   UNL d   1      25.993 -10.383  -4.423  0.00  0.00     0.059 A 
ATOM     27  C   UNL d   1      25.316  -9.533  -5.316  0.00  0.00     0.031 A 
ATOM     28  C   UNL d   1      24.908  -8.246  -4.921  0.00  0.00     0.003 A 
ATOM     29  C   UNL d   1      25.155  -7.800  -3.624  0.00  0.00     0.016 A 
ATOM     30  C   UNL d   1      25.797  -8.641  -2.709  0.00  0.00     0.050 A 
ATOM     31  C   UNL d   1      26.208  -9.914  -3.124  0.00  0.00     0.047 A 
BRANCH  30  32
ATOM     32  C   UNL d   1      26.069  -8.187  -1.303  0.00  0.00     0.417 C 
ATOM     33  F   UNL d   1      24.926  -7.962  -0.604  0.00  0.00    -0.166 F 
ATOM     34  F   UNL d   1      26.781  -9.101  -0.589  0.00  0.00    -0.166 F 
ATOM     35  F   UNL d   1      26.785  -7.030  -1.240  0.00  0.00    -0.166 F 
ENDBRANCH  30  32
ENDBRANCH   8  26
TORSDOF 6
ENDMDL
MODEL 4
REMARK VINA RESULT:    -7.817      4.654      8.081
REMARK INTER + INTRA:         -11.944
REMARK INTER:                  -9.607
REMARK INTRA:                  -2.337
REMARK CONF_INDEPENDENT:        1.790
REMARK UNBOUND:                -2.337
REMARK  6 active torsions:
REMARK  status: ('A' for Active; 'I' for Inactive)
REMARK    1  A    between atoms: C_6  and  C_7 
REMARK       I    between atoms: C_7  and  N_9 
REMARK    2  A    between atoms: N_9  and  C_10 
REMARK    3  A    between atoms: C_15  and  C_16 
REMARK    4  A    between atoms: C_16  and  C_17 
REMARK    5  A    between atoms: N_24  and  C_25 
REMARK    6  A    between atoms: C_29  and  C_30 
ROOT
ATOM      1  C   UNL d   1      27.386 -11.096  -7.091  0.00  0.00     0.070 C 
ATOM      2  C   UNL d   1      26.967 -11.998  -5.947  0.00  0.00     0.036 C 
ATOM      3  C   UNL d   1      27.404 -13.260  -5.993  0.00  0.00     0.084 C 
ATOM      4  C   UNL d   1      26.945 -14.179  -4.947  0.00  0.00     0.209 C 
ATOM      5  O   UNL d   1      27.263 -15.346  -5.021  0.00  0.00    -0.286 OA
ATOM      6  C   UNL d   1      26.173 -13.580  -3.764  0.00  0.00     0.195 C 
ATOM      7  N   UNL d   1      25.796 -12.315  -3.773  0.00  0.00    -0.158 NA
ATOM      8  N   UNL d   1      26.191 -11.518  -4.871  0.00  0.00    -0.238 N 
ENDROOT
BRANCH   6   9
ATOM      9  C   UNL d   1      25.986 -14.469  -2.503  0.00  0.00     0.280 C 
ATOM     10  O   UNL d   1      25.974 -13.941  -1.391  0.00  0.00    -0.265 OA
ATOM     11  N   UNL d   1      25.775 -15.830  -2.680  0.00  0.00    -0.321 N 
ATOM     12  H   UNL d   1      25.951 -16.240  -3.590  0.00  0.00     0.169 HD
BRANCH  11  13
ATOM     13  C   UNL d   1      25.365 -16.678  -1.612  0.00  0.00     0.041 A 
ATOM     14  C   UNL d   1      24.039 -17.120  -1.673  0.00  0.00     0.030 A 
ATOM     15  C   UNL d   1      23.559 -18.081  -0.781  0.00  0.00     0.002 A 
ATOM     16  C   UNL d   1      24.380 -18.571   0.228  0.00  0.00     0.001 A 
ATOM     17  C   UNL d   1      25.676 -18.077   0.358  0.00  0.00     0.010 A 
ATOM     18  C   UNL d   1      26.194 -17.113  -0.543  0.00  0.00    -0.027 A 
BRANCH  18  19
ATOM     19  C   UNL d   1      27.591 -16.613  -0.191  0.00  0.00     0.079 C 
BRANCH  19  20
ATOM     20  C   UNL d   1      28.709 -16.853  -1.171  0.00  0.00    -0.054 C 
ATOM     21  C   UNL d   1      29.682 -17.818  -0.883  0.00  0.00     0.007 C 
ATOM     22  C   UNL d   1      30.652 -18.131  -1.828  0.00  0.00     0.001 C 
ATOM     23  C   UNL d   1      30.574 -17.570  -3.102  0.00  0.00     0.000 C 
ATOM     24  C   UNL d   1      29.558 -16.671  -3.417  0.00  0.00     0.001 C 
ATOM     25  C   UNL d   1      28.690 -16.236  -2.430  0.00  0.00     0.007 C 
ENDBRANCH  19  20
ENDBRANCH  18  19
ENDBRANCH  11  13
ENDBRANCH   6   9
BRANCH   8  26
ATOM     26  C   UNL d   1      25.724 -10.165  -4.856  0.00  0.00     0.059 A 
ATOM     27  C   UNL d   1      24.974  -9.570  -5.885  0.00  0.00     0.031 A 
ATOM     28  C   UNL d   1      24.532  -8.238  -5.781  0.00  0.00     0.003 A 
ATOM     29  C   UNL d   1      24.817  -7.492  -4.640  0.00  0.00     0.016 A 
ATOM     30  C   UNL d   1      25.533  -8.074  -3.589  0.00  0.00     0.050 A 
ATOM     31  C   UNL d   1      25.977  -9.397  -3.716  0.00  0.00     0.047 A 
BRANCH  30  32
ATOM     32  C   UNL d   1      25.849  -7.295  -2.345  0.00  0.00     0.417 C 
ATOM     33  F   UNL d   1      25.547  -5.976  -2.472  0.00  0.00    -0.166 F 
ATOM     34  F   UNL d   1      25.160  -7.742  -1.259  0.00  0.00    -0.166 F 
ATOM     35  F   UNL d   1      27.165  -7.348  -1.995  0.00  0.00    -0.166 F 
ENDBRANCH  30  32
ENDBRANCH   8  26
TORSDOF 6
ENDMDL
MODEL 5
REMARK VINA RESULT:    -7.242      2.537      3.977
REMARK INTER + INTRA:         -12.067
REMARK INTER:                  -9.032
REMARK INTRA:                  -3.036
REMARK CONF_INDEPENDENT:        1.790
REMARK UNBOUND:                -3.036
REMARK  6 active torsions:
REMARK  status: ('A' for Active; 'I' for Inactive)
REMARK    1  A    between atoms: C_6  and  C_7 
REMARK       I    between atoms: C_7  and  N_9 
REMARK    2  A    between atoms: N_9  and  C_10 
REMARK    3  A    between atoms: C_15  and  C_16 
REMARK    4  A    between atoms: C_16  and  C_17 
REMARK    5  A    between atoms: N_24  and  C_25 
REMARK    6  A    between atoms: C_29  and  C_30 
ROOT
ATOM      1  C   UNL d   1      26.584 -13.961   0.600  0.00  0.00     0.070 C 
ATOM      2  C   UNL d   1      26.748 -13.921  -0.907  0.00  0.00     0.036 C 
ATOM      3  C   UNL d   1      27.196 -12.776  -1.428  0.00  0.00     0.084 C 
ATOM      4  C   UNL d   1      27.282 -12.678  -2.888  0.00  0.00     0.209 C 
ATOM      5  O   UNL d   1      27.606 -11.619  -3.379  0.00  0.00    -0.286 OA
ATOM      6  C   UNL d   1      27.056 -13.961  -3.700  0.00  0.00     0.195 C 
ATOM      7  N   UNL d   1      26.639 -15.068  -3.114  0.00  0.00    -0.158 NA
ATOM      8  N   UNL d   1      26.479 -15.050  -1.710  0.00  0.00    -0.238 N 
ENDROOT
BRANCH   6   9
ATOM      9  C   UNL d   1      27.479 -13.948  -5.196  0.00  0.00     0.280 C 
ATOM     10  O   UNL d   1      27.101 -14.858  -5.935  0.00  0.00    -0.265 OA
ATOM     11  N   UNL d   1      28.221 -12.872  -5.663  0.00  0.00    -0.321 N 
ATOM     12  H   UNL d   1      28.641 -12.237  -4.994  0.00  0.00     0.169 HD
BRANCH  11  13
ATOM     13  C   UNL d   1      28.452 -12.657  -7.052  0.00  0.00     0.041 A 
ATOM     14  C   UNL d   1      27.406 -12.038  -7.745  0.00  0.00     0.030 A 
ATOM     15  C   UNL d   1      27.566 -11.626  -9.069  0.00  0.00     0.002 A 
ATOM     16  C   UNL d   1      28.754 -11.882  -9.743  0.00  0.00     0.001 A 
ATOM     17  C   UNL d   1      29.773 -12.576  -9.097  0.00  0.00     0.010 A 
ATOM     18  C   UNL d   1      29.644 -12.993  -7.748  0.00  0.00    -0.027 A 
BRANCH  18  19
ATOM     19  C   UNL d   1      30.815 -13.825  -7.234  0.00  0.00     0.079 C 
BRANCH  19  20
ATOM     20  C   UNL d   1      30.594 -14.721  -6.045  0.00  0.00    -0.054 C 
ATOM     21  C   UNL d   1      30.718 -14.195  -4.753  0.00  0.00     0.007 C 
ATOM     22  C   UNL d   1      30.404 -14.979  -3.650  0.00  0.00     0.001 C 
ATOM     23  C   UNL d   1      29.850 -16.245  -3.844  0.00  0.00     0.000 C 
ATOM     24  C   UNL d   1      29.650 -16.739  -5.130  0.00  0.00     0.001 C 
ATOM     25  C   UNL d   1      30.111 -16.026  -6.224  0.00  0.00     0.007 C 
ENDBRANCH  19  20
ENDBRANCH  18  19
ENDBRANCH  11  13
ENDBRANCH   6   9
BRANCH   8  26
ATOM     26  C   UNL d   1      25.986 -16.260  -1.126  0.00  0.00     0.059 A 
ATOM     27  C   UNL d   1      26.786 -17.210  -0.468  0.00  0.00     0.031 A 
ATOM     28  C   UNL d   1      26.219 -18.364   0.102  0.00  0.00     0.003 A 
ATOM     29  C   UNL d   1      24.843 -18.573   0.037  0.00  0.00     0.016 A 
ATOM     30  C   UNL d   1      24.023 -17.626  -0.583  0.00  0.00     0.050 A 
ATOM     31  C   UNL d   1      24.607 -16.489  -1.157  0.00  0.00     0.047 A 
BRANCH  30  32
ATOM     32  C   UNL d   1      22.536 -17.823  -0.661  0.00  0.00     0.417 C 
ATOM     33  F   UNL d   1      21.873 -16.659  -0.891  0.00  0.00    -0.166 F 
ATOM     34  F   UNL d   1      22.174 -18.674  -1.659  0.00  0.00    -0.166 F 
ATOM     35  F   UNL d   1      22.001 -18.342   0.480  0.00  0.00    -0.166 F 
ENDBRANCH  30  32
ENDBRANCH   8  26
TORSDOF 6
ENDMDL
MODEL 6
REMARK VINA RESULT:    -7.132      5.296      8.226
REMARK INTER + INTRA:         -11.913
REMARK INTER:                  -8.922
REMARK INTRA:                  -2.991
REMARK CONF_INDEPENDENT:        1.790
REMARK UNBOUND:                -2.991
REMARK  6 active torsions:
REMARK  status: ('A' for Active; 'I' for Inactive)
REMARK    1  A    between atoms: C_6  and  C_7 
REMARK       I    between atoms: C_7  and  N_9 
REMARK    2  A    between atoms: N_9  and  C_10 
REMARK    3  A    between atoms: C_15  and  C_16 
REMARK    4  A    between atoms: C_16  and  C_17 
REMARK    5  A    between atoms: N_24  and  C_25 
REMARK    6  A    between atoms: C_29  and  C_30 
ROOT
ATOM      1  C   UNL d   1      29.638 -11.460  -3.937  0.00  0.00     0.070 C 
ATOM      2  C   UNL d   1      28.516 -12.445  -3.674  0.00  0.00     0.036 C 
ATOM      3  C   UNL d   1      28.441 -13.497  -4.493  0.00  0.00     0.084 C 
ATOM      4  C   UNL d   1      27.316 -14.420  -4.318  0.00  0.00     0.209 C 
ATOM      5  O   UNL d   1      27.187 -15.332  -5.106  0.00  0.00    -0.286 OA
ATOM      6  C   UNL d   1      26.430 -14.232  -3.079  0.00  0.00     0.195 C 
ATOM      7  N   UNL d   1      26.577 -13.180  -2.295  0.00  0.00    -0.158 NA
ATOM      8  N   UNL d   1      27.623 -12.277  -2.594  0.00  0.00    -0.238 N 
ENDROOT
BRANCH   6   9
ATOM      9  C   UNL d   1      25.465 -15.391  -2.703  0.00  0.00     0.280 C 
ATOM     10  O   UNL d   1      25.156 -16.219  -3.560  0.00  0.00    -0.265 OA
ATOM     11  N   UNL d   1      25.033 -15.489  -1.386  0.00  0.00    -0.321 N 
ATOM     12  H   UNL d   1      25.181 -14.705  -0.762  0.00  0.00     0.169 HD
BRANCH  11  13
ATOM     13  C   UNL d   1      24.345 -16.636  -0.899  0.00  0.00     0.041 A 
ATOM     14  C   UNL d   1      22.949 -16.541  -0.895  0.00  0.00     0.030 A 
ATOM     15  C   UNL d   1      22.154 -17.649  -0.594  0.00  0.00     0.002 A 
ATOM     16  C   UNL d   1      22.741 -18.855  -0.233  0.00  0.00     0.001 A 
ATOM     17  C   UNL d   1      24.129 -18.943  -0.146  0.00  0.00     0.010 A 
ATOM     18  C   UNL d   1      24.961 -17.839  -0.459  0.00  0.00    -0.027 A 
BRANCH  18  19
ATOM     19  C   UNL d   1      26.446 -18.083  -0.213  0.00  0.00     0.079 C 
BRANCH  19  20
ATOM     20  C   UNL d   1      27.385 -16.907  -0.249  0.00  0.00    -0.054 C 
ATOM     21  C   UNL d   1      28.247 -16.746  -1.341  0.00  0.00     0.007 C 
ATOM     22  C   UNL d   1      29.034 -15.606  -1.443  0.00  0.00     0.001 C 
ATOM     23  C   UNL d   1      28.870 -14.574  -0.519  0.00  0.00     0.000 C 
ATOM     24  C   UNL d   1      27.954 -14.698   0.522  0.00  0.00     0.001 C 
ATOM     25  C   UNL d   1      27.288 -15.896   0.718  0.00  0.00     0.007 C 
ENDBRANCH  19  20
ENDBRANCH  18  19
ENDBRANCH  11  13
ENDBRANCH   6   9
BRANCH   8  26
ATOM     26  C   UNL d   1      27.717 -11.132  -1.740  0.00  0.00     0.059 A 
ATOM     27  C   UNL d   1      28.675 -10.973  -0.724  0.00  0.00     0.031 A 
ATOM     28  C   UNL d   1      28.715  -9.803   0.056  0.00  0.00     0.003 A 
ATOM     29  C   UNL d   1      27.811  -8.771  -0.183  0.00  0.00     0.016 A 
ATOM     30  C   UNL d   1      26.871  -8.893  -1.210  0.00  0.00     0.050 A 
ATOM     31  C   UNL d   1      26.836 -10.070  -1.968  0.00  0.00     0.047 A 
BRANCH  30  32
ATOM     32  C   UNL d   1      25.889  -7.792  -1.493  0.00  0.00     0.417 C 
ATOM     33  F   UNL d   1      24.849  -7.792  -0.617  0.00  0.00    -0.166 F 
ATOM     34  F   UNL d   1      26.453  -6.556  -1.417  0.00  0.00    -0.166 F 
ATOM     35  F   UNL d   1      25.335  -7.870  -2.735  0.00  0.00    -0.166 F 
ENDBRANCH  30  32
ENDBRANCH   8  26
TORSDOF 6
ENDMDL
MODEL 7
REMARK VINA RESULT:    -7.121      5.029      8.594
REMARK INTER + INTRA:         -11.941
REMARK INTER:                  -8.911
REMARK INTRA:                  -3.030
REMARK CONF_INDEPENDENT:        1.790
REMARK UNBOUND:                -3.030
REMARK  6 active torsions:
REMARK  status: ('A' for Active; 'I' for Inactive)
REMARK    1  A    between atoms: C_6  and  C_7 
REMARK       I    between atoms: C_7  and  N_9 
REMARK    2  A    between atoms: N_9  and  C_10 
REMARK    3  A    between atoms: C_15  and  C_16 
REMARK    4  A    between atoms: C_16  and  C_17 
REMARK    5  A    between atoms: N_24  and  C_25 
REMARK    6  A    between atoms: C_29  and  C_30 
ROOT
ATOM      1  C   UNL d   1      28.621 -10.589  -4.008  0.00  0.00     0.070 C 
ATOM      2  C   UNL d   1      27.873 -11.850  -3.621  0.00  0.00     0.036 C 
ATOM      3  C   UNL d   1      27.362 -11.885  -2.388  0.00  0.00     0.084 C 
ATOM      4  C   UNL d   1      26.709 -13.123  -1.954  0.00  0.00     0.209 C 
ATOM      5  O   UNL d   1      26.316 -13.201  -0.810  0.00  0.00    -0.286 OA
ATOM      6  C   UNL d   1      26.471 -14.209  -3.012  0.00  0.00     0.195 C 
ATOM      7  N   UNL d   1      26.984 -14.095  -4.224  0.00  0.00    -0.158 NA
ATOM      8  N   UNL d   1      27.692 -12.912  -4.532  0.00  0.00    -0.238 N 
ENDROOT
BRANCH   6   9
ATOM      9  C   UNL d   1      25.489 -15.359  -2.655  0.00  0.00     0.280 C 
ATOM     10  O   UNL d   1      25.156 -16.159  -3.530  0.00  0.00    -0.265 OA
ATOM     11  N   UNL d   1      25.070 -15.484  -1.337  0.00  0.00    -0.321 N 
ATOM     12  H   UNL d   1      25.240 -14.719  -0.694  0.00  0.00     0.169 HD
BRANCH  11  13
ATOM     13  C   UNL d   1      24.366 -16.630  -0.871  0.00  0.00     0.041 A 
ATOM     14  C   UNL d   1      22.971 -16.528  -0.897  0.00  0.00     0.030 A 
ATOM     15  C   UNL d   1      22.164 -17.633  -0.621  0.00  0.00     0.002 A 
ATOM     16  C   UNL d   1      22.738 -18.845  -0.254  0.00  0.00     0.001 A 
ATOM     17  C   UNL d   1      24.122 -18.940  -0.137  0.00  0.00     0.010 A 
ATOM     18  C   UNL d   1      24.966 -17.839  -0.426  0.00  0.00    -0.027 A 
BRANCH  18  19
ATOM     19  C   UNL d   1      26.445 -18.092  -0.150  0.00  0.00     0.079 C 
BRANCH  19  20
ATOM     20  C   UNL d   1      27.406 -16.939  -0.262  0.00  0.00    -0.054 C 
ATOM     21  C   UNL d   1      27.450 -15.978   0.756  0.00  0.00     0.007 C 
ATOM     22  C   UNL d   1      28.410 -14.974   0.723  0.00  0.00     0.001 C 
ATOM     23  C   UNL d   1      29.400 -15.004  -0.259  0.00  0.00     0.000 C 
ATOM     24  C   UNL d   1      29.406 -16.006  -1.225  0.00  0.00     0.001 C 
ATOM     25  C   UNL d   1      28.360 -16.911  -1.289  0.00  0.00     0.007 C 
ENDBRANCH  19  20
ENDBRANCH  18  19
ENDBRANCH  11  13
ENDBRANCH   6   9
BRANCH   8  26
ATOM     26  C   UNL d   1      28.264 -12.854  -5.843  0.00  0.00     0.059 A 
ATOM     27  C   UNL d   1      29.440 -13.519  -6.230  0.00  0.00     0.031 A 
ATOM     28  C   UNL d   1      29.922 -13.430  -7.548  0.00  0.00     0.003 A 
ATOM     29  C   UNL d   1      29.224 -12.691  -8.501  0.00  0.00     0.016 A 
ATOM     30  C   UNL d   1      28.034 -12.048  -8.147  0.00  0.00     0.050 A 
ATOM     31  C   UNL d   1      27.576 -12.136  -6.826  0.00  0.00     0.047 A 
BRANCH  30  32
ATOM     32  C   UNL d   1      27.258 -11.250  -9.156  0.00  0.00     0.417 C 
ATOM     33  F   UNL d   1      26.522 -10.265  -8.577  0.00  0.00    -0.166 F 
ATOM     34  F   UNL d   1      28.062 -10.640 -10.070  0.00  0.00    -0.166 F 
ATOM     35  F   UNL d   1      26.381 -12.001  -9.879  0.00  0.00    -0.166 F 
ENDBRANCH  30  32
ENDBRANCH   8  26
TORSDOF 6
ENDMDL
MODEL 8
REMARK VINA RESULT:    -7.021      5.137      8.171
REMARK INTER + INTRA:         -11.934
REMARK INTER:                  -8.811
REMARK INTRA:                  -3.122
REMARK CONF_INDEPENDENT:        1.790
REMARK UNBOUND:                -3.122
REMARK  6 active torsions:
REMARK  status: ('A' for Active; 'I' for Inactive)
REMARK    1  A    between atoms: C_6  and  C_7 
REMARK       I    between atoms: C_7  and  N_9 
REMARK    2  A    between atoms: N_9  and  C_10 
REMARK    3  A    between atoms: C_15  and  C_16 
REMARK    4  A    between atoms: C_16  and  C_17 
REMARK    5  A    between atoms: N_24  and  C_25 
REMARK    6  A    between atoms: C_29  and  C_30 
ROOT
ATOM      1  C   UNL d   1      29.415 -11.463  -4.240  0.00  0.00     0.070 C 
ATOM      2  C   UNL d   1      28.332 -12.478  -3.930  0.00  0.00     0.036 C 
ATOM      3  C   UNL d   1      28.304 -13.572  -4.695  0.00  0.00     0.084 C 
ATOM      4  C   UNL d   1      27.216 -14.530  -4.477  0.00  0.00     0.209 C 
ATOM      5  O   UNL d   1      27.128 -15.485  -5.218  0.00  0.00    -0.286 OA
ATOM      6  C   UNL d   1      26.316 -14.316  -3.252  0.00  0.00     0.195 C 
ATOM      7  N   UNL d   1      26.417 -13.220  -2.522  0.00  0.00    -0.158 NA
ATOM      8  N   UNL d   1      27.427 -12.293  -2.863  0.00  0.00    -0.238 N 
ENDROOT
BRANCH   6   9
ATOM      9  C   UNL d   1      25.397 -15.492  -2.820  0.00  0.00     0.280 C 
ATOM     10  O   UNL d   1      25.155 -16.393  -3.624  0.00  0.00    -0.265 OA
ATOM     11  N   UNL d   1      24.928 -15.519  -1.513  0.00  0.00    -0.321 N 
ATOM     12  H   UNL d   1      25.019 -14.686  -0.943  0.00  0.00     0.169 HD
BRANCH  11  13
ATOM     13  C   UNL d   1      24.281 -16.661  -0.964  0.00  0.00     0.041 A 
ATOM     14  C   UNL d   1      22.886 -16.584  -0.894  0.00  0.00     0.030 A 
ATOM     15  C   UNL d   1      22.122 -17.694  -0.527  0.00  0.00     0.002 A 
ATOM     16  C   UNL d   1      22.743 -18.882  -0.164  0.00  0.00     0.001 A 
ATOM     17  C   UNL d   1      24.134 -18.950  -0.143  0.00  0.00     0.010 A 
ATOM     18  C   UNL d   1      24.934 -17.844  -0.524  0.00  0.00    -0.027 A 
BRANCH  18  19
ATOM     19  C   UNL d   1      26.433 -18.063  -0.345  0.00  0.00     0.079 C 
BRANCH  19  20
ATOM     20  C   UNL d   1      27.339 -16.861  -0.325  0.00  0.00    -0.054 C 
ATOM     21  C   UNL d   1      28.288 -16.697  -1.343  0.00  0.00     0.007 C 
ATOM     22  C   UNL d   1      29.049 -15.536  -1.401  0.00  0.00     0.001 C 
ATOM     23  C   UNL d   1      28.778 -14.492  -0.519  0.00  0.00     0.000 C 
ATOM     24  C   UNL d   1      27.778 -14.621   0.443  0.00  0.00     0.001 C 
ATOM     25  C   UNL d   1      27.131 -15.834   0.607  0.00  0.00     0.007 C 
ENDBRANCH  19  20
ENDBRANCH  18  19
ENDBRANCH  11  13
ENDBRANCH   6   9
BRANCH   8  26
ATOM     26  C   UNL d   1      27.471 -11.103  -2.068  0.00  0.00     0.059 A 
ATOM     27  C   UNL d   1      26.791  -9.913  -2.379  0.00  0.00     0.031 A 
ATOM     28  C   UNL d   1      26.866  -8.793  -1.530  0.00  0.00     0.003 A 
ATOM     29  C   UNL d   1      27.607  -8.856  -0.351  0.00  0.00     0.016 A 
ATOM     30  C   UNL d   1      28.264 -10.041  -0.005  0.00  0.00     0.050 A 
ATOM     31  C   UNL d   1      28.189 -11.141  -0.869  0.00  0.00     0.047 A 
BRANCH  30  32
ATOM     32  C   UNL d   1      29.064 -10.138   1.262  0.00  0.00     0.417 C 
ATOM     33  F   UNL d   1      28.338 -10.649   2.292  0.00  0.00    -0.166 F 
ATOM     34  F   UNL d   1      30.157 -10.938   1.130  0.00  0.00    -0.166 F 
ATOM     35  F   UNL d   1      29.537  -8.935   1.695  0.00  0.00    -0.166 F 
ENDBRANCH  30  32
ENDBRANCH   8  26
TORSDOF 6
ENDMDL
MODEL 9
REMARK VINA RESULT:    -6.850      4.714      8.478
REMARK INTER + INTRA:         -11.958
REMARK INTER:                  -8.640
REMARK INTRA:                  -3.318
REMARK CONF_INDEPENDENT:        1.790
REMARK UNBOUND:                -3.318
REMARK  6 active torsions:
REMARK  status: ('A' for Active; 'I' for Inactive)
REMARK    1  A    between atoms: C_6  and  C_7 
REMARK       I    between atoms: C_7  and  N_9 
REMARK    2  A    between atoms: N_9  and  C_10 
REMARK    3  A    between atoms: C_15  and  C_16 
REMARK    4  A    between atoms: C_16  and  C_17 
REMARK    5  A    between atoms: N_24  and  C_25 
REMARK    6  A    between atoms: C_29  and  C_30 
ROOT
ATOM      1  C   UNL d   1      26.844  -9.402  -6.778  0.00  0.00     0.070 C 
ATOM      2  C   UNL d   1      26.610 -10.677  -5.992  0.00  0.00     0.036 C 
ATOM      3  C   UNL d   1      25.913 -10.559  -4.858  0.00  0.00     0.084 C 
ATOM      4  C   UNL d   1      25.746 -11.758  -4.032  0.00  0.00     0.209 C 
ATOM      5  O   UNL d   1      25.190 -11.651  -2.961  0.00  0.00    -0.286 OA
ATOM      6  C   UNL d   1      26.195 -13.100  -4.628  0.00  0.00     0.195 C 
ATOM      7  N   UNL d   1      26.857 -13.144  -5.770  0.00  0.00    -0.158 NA
ATOM      8  N   UNL d   1      27.071 -11.927  -6.455  0.00  0.00    -0.238 N 
ENDROOT
BRANCH   6   9
ATOM      9  C   UNL d   1      25.715 -14.398  -3.921  0.00  0.00     0.280 C 
ATOM     10  O   UNL d   1      25.530 -15.414  -4.591  0.00  0.00    -0.265 OA
ATOM     11  N   UNL d   1      25.571 -14.383  -2.540  0.00  0.00    -0.321 N 
ATOM     12  H   UNL d   1      25.577 -13.493  -2.056  0.00  0.00     0.169 HD
BRANCH  11  13
ATOM     13  C   UNL d   1      25.365 -15.574  -1.788  0.00  0.00     0.041 A 
ATOM     14  C   UNL d   1      24.030 -15.969  -1.645  0.00  0.00     0.030 A 
ATOM     15  C   UNL d   1      23.702 -17.199  -1.071  0.00  0.00     0.002 A 
ATOM     16  C   UNL d   1      24.700 -18.028  -0.573  0.00  0.00     0.001 A 
ATOM     17  C   UNL d   1      26.028 -17.610  -0.627  0.00  0.00     0.010 A 
ATOM     18  C   UNL d   1      26.391 -16.374  -1.217  0.00  0.00    -0.027 A 
BRANCH  18  19
ATOM     19  C   UNL d   1      27.874 -16.034  -1.099  0.00  0.00     0.079 C 
BRANCH  19  20
ATOM     20  C   UNL d   1      28.583 -15.479  -2.306  0.00  0.00    -0.054 C 
ATOM     21  C   UNL d   1      28.836 -16.316  -3.401  0.00  0.00     0.007 C 
ATOM     22  C   UNL d   1      29.384 -15.790  -4.564  0.00  0.00     0.001 C 
ATOM     23  C   UNL d   1      29.565 -14.412  -4.676  0.00  0.00     0.000 C 
ATOM     24  C   UNL d   1      29.238 -13.568  -3.617  0.00  0.00     0.001 C 
ATOM     25  C   UNL d   1      28.845 -14.105  -2.402  0.00  0.00     0.007 C 
ENDBRANCH  19  20
ENDBRANCH  18  19
ENDBRANCH  11  13
ENDBRANCH   6   9
BRANCH   8  26
ATOM     26  C   UNL d   1      27.828 -12.022  -7.667  0.00  0.00     0.059 A 
ATOM     27  C   UNL d   1      27.336 -11.688  -8.941  0.00  0.00     0.031 A 
ATOM     28  C   UNL d   1      28.154 -11.786 -10.081  0.00  0.00     0.003 A 
ATOM     29  C   UNL d   1      29.479 -12.201  -9.959  0.00  0.00     0.016 A 
ATOM     30  C   UNL d   1      29.999 -12.506  -8.697  0.00  0.00     0.050 A 
ATOM     31  C   UNL d   1      29.166 -12.416  -7.575  0.00  0.00     0.047 A 
BRANCH  30  32
ATOM     32  C   UNL d   1      31.425 -12.949  -8.537  0.00  0.00     0.417 C 
ATOM     33  F   UNL d   1      31.575 -13.846  -7.527  0.00  0.00    -0.166 F 
ATOM     34  F   UNL d   1      31.916 -13.547  -9.656  0.00  0.00    -0.166 F 
ATOM     35  F   UNL d   1      32.280 -11.924  -8.260  0.00  0.00    -0.166 F 
ENDBRANCH  30  32
ENDBRANCH   8  26
TORSDOF 6
ENDMDL
