MODEL 1
REMARK VINA RESULT:    -9.797      0.000      0.000
REMARK INTER + INTRA:         -12.998
REMARK INTER:                 -11.885
REMARK INTRA:                  -1.113
REMARK CONF_INDEPENDENT:        2.088
REMARK UNBOUND:                -1.113
REMARK  7 active torsions:
REMARK  status: ('A' for Active; 'I' for Inactive)
REMARK    1  A    between atoms: C_2  and  O_3 
REMARK    2  A    between atoms: O_3  and  C_4 
REMARK    3  A    between atoms: C_7  and  N_8 
REMARK       I    between atoms: N_8  and  C_9 
REMARK    4  A    between atoms: C_9  and  C_11 
REMARK    5  A    between atoms: C_11  and  S_12 
REMARK    6  A    between atoms: C_13  and  S_12 
REMARK    7  A    between atoms: N_23  and  C_24 
ROOT
ATOM      1  C   UNL d   1      25.748 -12.621  -4.026  0.00  0.00     0.281 C 
ATOM      2  N   UNL d   1      25.779 -13.993  -4.645  0.00  0.00    -0.232 NA
ATOM      3  C   UNL d   1      26.850 -14.173  -5.310  0.00  0.00     0.185 A 
ATOM      4  N   UNL d   1      27.386 -15.401  -5.644  0.00  0.00    -0.129 NA
ATOM      5  N   UNL d   1      28.410 -15.200  -6.354  0.00  0.00    -0.152 NA
ATOM      6  C   UNL d   1      28.555 -13.846  -6.536  0.00  0.00     0.071 A 
ATOM      7  C   UNL d   1      29.565 -13.304  -7.482  0.00  0.00     0.073 C 
ATOM      8  C   UNL d   1      27.684 -13.130  -5.870  0.00  0.00     0.085 A 
ATOM      9  C   UNL d   1      27.301 -11.719  -5.690  0.00  0.00     0.141 C 
ATOM     10  N   UNL d   1      27.934 -10.786  -6.331  0.00  0.00    -0.283 NA
ATOM     11  N   UNL d   1      26.269 -11.463  -4.785  0.00  0.00    -0.298 N 
ATOM     12  H   UNL d   1      28.654 -11.132  -6.960  0.00  0.00     0.188 HD
ENDROOT
BRANCH   1  13
ATOM     13  S   UNL d   1      26.671 -12.966  -2.420  0.00  0.00    -0.111 SA
BRANCH  13  14
ATOM     14  C   UNL d   1      26.958 -14.870  -2.333  0.00  0.00     0.181 C 
BRANCH  14  15
ATOM     15  C   UNL d   1      25.538 -15.476  -2.068  0.00  0.00     0.231 C 
ATOM     16  N   UNL d   1      25.385 -16.344  -0.994  0.00  0.00    -0.327 N 
ATOM     17  H   UNL d   1      26.173 -16.517  -0.382  0.00  0.00     0.169 HD
ATOM     18  O   UNL d   1      24.584 -15.126  -2.769  0.00  0.00    -0.272 OA
BRANCH  16  19
ATOM     19  C   UNL d   1      24.209 -17.131  -0.783  0.00  0.00     0.034 A 
ATOM     20  C   UNL d   1      24.333 -18.498  -0.519  0.00  0.00     0.032 A 
ATOM     21  C   UNL d   1      23.195 -19.329  -0.532  0.00  0.00     0.039 A 
ATOM     22  C   UNL d   1      21.914 -18.800  -0.726  0.00  0.00     0.068 A 
ATOM     23  C   UNL d   1      21.780 -17.434  -0.895  0.00  0.00     0.039 A 
ATOM     24  C   UNL d   1      22.912 -16.618  -0.915  0.00  0.00     0.032 A 
BRANCH  22  25
ATOM     25  O   UNL d   1      20.859 -19.665  -0.636  0.00  0.00    -0.352 OA
BRANCH  25  26
ATOM     26  C   UNL d   1      20.521 -20.095   0.688  0.00  0.00     0.171 C 
ATOM     27  C   UNL d   1      19.038 -19.854   0.907  0.00  0.00     0.034 C 
ENDBRANCH  25  26
ENDBRANCH  22  25
ENDBRANCH  16  19
ENDBRANCH  14  15
ENDBRANCH  13  14
ENDBRANCH   1  13
BRANCH  11  28
ATOM     28  C   UNL d   1      25.767 -10.133  -4.605  0.00  0.00     0.045 C 
ATOM     29  C   UNL d   1      25.011  -9.550  -5.644  0.00  0.00     0.030 C 
ATOM     30  C   UNL d   1      24.767  -8.169  -5.713  0.00  0.00     0.002 C 
ATOM     31  C   UNL d   1      25.267  -7.314  -4.745  0.00  0.00     0.001 C 
ATOM     32  C   UNL d   1      25.953  -7.850  -3.683  0.00  0.00     0.009 C 
ATOM     33  C   UNL d   1      26.102  -9.241  -3.552  0.00  0.00    -0.035 C 
ATOM     34  C   UNL d   1      26.621  -9.601  -2.214  0.00  0.00     0.050 C 
ENDBRANCH  11  28
TORSDOF 7
ENDMDL
MODEL 2
REMARK VINA RESULT:    -9.498      3.324      5.536
REMARK INTER + INTRA:         -14.605
REMARK INTER:                 -11.586
REMARK INTRA:                  -3.019
REMARK CONF_INDEPENDENT:        2.088
REMARK UNBOUND:                -3.019
REMARK  7 active torsions:
REMARK  status: ('A' for Active; 'I' for Inactive)
REMARK    1  A    between atoms: C_2  and  O_3 
REMARK    2  A    between atoms: O_3  and  C_4 
REMARK    3  A    between atoms: C_7  and  N_8 
REMARK       I    between atoms: N_8  and  C_9 
REMARK    4  A    between atoms: C_9  and  C_11 
REMARK    5  A    between atoms: C_11  and  S_12 
REMARK    6  A    between atoms: C_13  and  S_12 
REMARK    7  A    between atoms: N_23  and  C_24 
ROOT
ATOM      1  C   UNL d   1      29.565 -15.621  -2.687  0.00  0.00     0.281 C 
ATOM      2  N   UNL d   1      28.930 -14.609  -1.771  0.00  0.00    -0.232 NA
ATOM      3  C   UNL d   1      27.701 -14.439  -2.058  0.00  0.00     0.185 A 
ATOM      4  N   UNL d   1      26.745 -13.926  -1.203  0.00  0.00    -0.129 NA
ATOM      5  N   UNL d   1      25.658 -13.841  -1.838  0.00  0.00    -0.152 NA
ATOM      6  C   UNL d   1      25.874 -14.256  -3.129  0.00  0.00     0.071 A 
ATOM      7  C   UNL d   1      24.827 -14.097  -4.172  0.00  0.00     0.073 C 
ATOM      8  C   UNL d   1      27.084 -14.712  -3.339  0.00  0.00     0.085 A 
ATOM      9  C   UNL d   1      27.909 -15.229  -4.445  0.00  0.00     0.141 C 
ATOM     10  N   UNL d   1      27.414 -15.310  -5.642  0.00  0.00    -0.283 NA
ATOM     11  N   UNL d   1      29.201 -15.643  -4.120  0.00  0.00    -0.298 N 
ATOM     12  H   UNL d   1      26.463 -14.961  -5.721  0.00  0.00     0.188 HD
ENDROOT
BRANCH   1  13
ATOM     13  S   UNL d   1      29.143 -17.209  -1.762  0.00  0.00    -0.111 SA
BRANCH  13  14
ATOM     14  C   UNL d   1      28.336 -16.689  -0.090  0.00  0.00     0.181 C 
BRANCH  14  15
ATOM     15  C   UNL d   1      26.932 -17.386  -0.091  0.00  0.00     0.231 C 
ATOM     16  N   UNL d   1      25.904 -16.786  -0.807  0.00  0.00    -0.327 N 
ATOM     17  H   UNL d   1      26.099 -15.955  -1.351  0.00  0.00     0.169 HD
ATOM     18  O   UNL d   1      26.788 -18.468   0.483  0.00  0.00    -0.272 OA
BRANCH  16  19
ATOM     19  C   UNL d   1      24.536 -17.194  -0.704  0.00  0.00     0.034 A 
ATOM     20  C   UNL d   1      24.230 -18.553  -0.590  0.00  0.00     0.032 A 
ATOM     21  C   UNL d   1      22.896 -18.991  -0.714  0.00  0.00     0.039 A 
ATOM     22  C   UNL d   1      21.846 -18.081  -0.872  0.00  0.00     0.068 A 
ATOM     23  C   UNL d   1      22.138 -16.729  -0.892  0.00  0.00     0.039 A 
ATOM     24  C   UNL d   1      23.462 -16.300  -0.802  0.00  0.00     0.032 A 
BRANCH  22  25
ATOM     25  O   UNL d   1      20.576 -18.588  -0.895  0.00  0.00    -0.352 OA
BRANCH  25  26
ATOM     26  C   UNL d   1      20.386 -19.821  -0.191  0.00  0.00     0.171 C 
ATOM     27  C   UNL d   1      19.390 -19.584   0.930  0.00  0.00     0.034 C 
ENDBRANCH  25  26
ENDBRANCH  22  25
ENDBRANCH  16  19
ENDBRANCH  14  15
ENDBRANCH  13  14
ENDBRANCH   1  13
BRANCH  11  28
ATOM     28  C   UNL d   1      30.108 -16.080  -5.140  0.00  0.00     0.045 C 
ATOM     29  C   UNL d   1      30.558 -15.139  -6.091  0.00  0.00     0.030 C 
ATOM     30  C   UNL d   1      31.161 -15.522  -7.301  0.00  0.00     0.002 C 
ATOM     31  C   UNL d   1      31.340 -16.861  -7.608  0.00  0.00     0.001 C 
ATOM     32  C   UNL d   1      30.975 -17.804  -6.680  0.00  0.00     0.009 C 
ATOM     33  C   UNL d   1      30.476 -17.421  -5.424  0.00  0.00    -0.035 C 
ATOM     34  C   UNL d   1      30.412 -18.574  -4.497  0.00  0.00     0.050 C 
ENDBRANCH  11  28
TORSDOF 7
ENDMDL
MODEL 3
REMARK VINA RESULT:    -9.324      2.988      4.440
REMARK INTER + INTRA:         -13.775
REMARK INTER:                 -11.412
REMARK INTRA:                  -2.363
REMARK CONF_INDEPENDENT:        2.088
REMARK UNBOUND:                -2.363
REMARK  7 active torsions:
REMARK  status: ('A' for Active; 'I' for Inactive)
REMARK    1  A    between atoms: C_2  and  O_3 
REMARK    2  A    between atoms: O_3  and  C_4 
REMARK    3  A    between atoms: C_7  and  N_8 
REMARK       I    between atoms: N_8  and  C_9 
REMARK    4  A    between atoms: C_9  and  C_11 
REMARK    5  A    between atoms: C_11  and  S_12 
REMARK    6  A    between atoms: C_13  and  S_12 
REMARK    7  A    between atoms: N_23  and  C_24 
ROOT
ATOM      1  C   UNL d   1      27.023 -14.570  -0.831  0.00  0.00     0.281 C 
ATOM      2  N   UNL d   1      25.708 -14.910  -1.480  0.00  0.00    -0.232 NA
ATOM      3  C   UNL d   1      25.622 -14.393  -2.641  0.00  0.00     0.185 A 
ATOM      4  N   UNL d   1      24.779 -14.822  -3.646  0.00  0.00    -0.129 NA
ATOM      5  N   UNL d   1      24.915 -14.043  -4.630  0.00  0.00    -0.152 NA
ATOM      6  C   UNL d   1      25.817 -13.065  -4.290  0.00  0.00     0.071 A 
ATOM      7  C   UNL d   1      26.050 -11.894  -5.174  0.00  0.00     0.073 C 
ATOM      8  C   UNL d   1      26.362 -13.239  -3.111  0.00  0.00     0.085 A 
ATOM      9  C   UNL d   1      27.304 -12.563  -2.203  0.00  0.00     0.141 C 
ATOM     10  N   UNL d   1      27.838 -11.431  -2.546  0.00  0.00    -0.283 NA
ATOM     11  N   UNL d   1      27.601 -13.220  -1.008  0.00  0.00    -0.298 N 
ATOM     12  H   UNL d   1      27.516 -11.076  -3.442  0.00  0.00     0.188 HD
ENDROOT
BRANCH   1  13
ATOM     13  S   UNL d   1      28.095 -15.961  -1.516  0.00  0.00    -0.111 SA
BRANCH  13  14
ATOM     14  C   UNL d   1      28.210 -17.311  -0.146  0.00  0.00     0.181 C 
BRANCH  14  15
ATOM     15  C   UNL d   1      26.733 -17.792   0.067  0.00  0.00     0.231 C 
ATOM     16  N   UNL d   1      25.796 -17.482  -0.911  0.00  0.00    -0.327 N 
ATOM     17  H   UNL d   1      26.099 -17.010  -1.754  0.00  0.00     0.169 HD
ATOM     18  O   UNL d   1      26.451 -18.479   1.052  0.00  0.00    -0.272 OA
BRANCH  16  19
ATOM     19  C   UNL d   1      24.388 -17.664  -0.733  0.00  0.00     0.034 A 
ATOM     20  C   UNL d   1      23.885 -18.944  -0.486  0.00  0.00     0.032 A 
ATOM     21  C   UNL d   1      22.496 -19.181  -0.531  0.00  0.00     0.039 A 
ATOM     22  C   UNL d   1      21.590 -18.137  -0.742  0.00  0.00     0.068 A 
ATOM     23  C   UNL d   1      22.081 -16.853  -0.895  0.00  0.00     0.039 A 
ATOM     24  C   UNL d   1      23.459 -16.627  -0.883  0.00  0.00     0.032 A 
BRANCH  22  25
ATOM     25  O   UNL d   1      20.258 -18.442  -0.683  0.00  0.00    -0.352 OA
BRANCH  25  26
ATOM     26  C   UNL d   1      19.942 -19.839  -0.662  0.00  0.00     0.171 C 
ATOM     27  C   UNL d   1      19.113 -20.124   0.578  0.00  0.00     0.034 C 
ENDBRANCH  25  26
ENDBRANCH  22  25
ENDBRANCH  16  19
ENDBRANCH  14  15
ENDBRANCH  13  14
ENDBRANCH   1  13
BRANCH  11  28
ATOM     28  C   UNL d   1      28.439 -12.604  -0.022  0.00  0.00     0.045 C 
ATOM     29  C   UNL d   1      29.728 -12.175  -0.405  0.00  0.00     0.030 C 
ATOM     30  C   UNL d   1      30.731 -11.878   0.533  0.00  0.00     0.002 C 
ATOM     31  C   UNL d   1      30.485 -11.996   1.891  0.00  0.00     0.001 C 
ATOM     32  C   UNL d   1      29.224 -12.347   2.304  0.00  0.00     0.009 C 
ATOM     33  C   UNL d   1      28.189 -12.536   1.374  0.00  0.00    -0.035 C 
ATOM     34  C   UNL d   1      26.874 -12.632   2.046  0.00  0.00     0.050 C 
ENDBRANCH  11  28
TORSDOF 7
ENDMDL
MODEL 4
REMARK VINA RESULT:    -8.760      3.149      4.200
REMARK INTER + INTRA:         -13.228
REMARK INTER:                 -10.848
REMARK INTRA:                  -2.380
REMARK CONF_INDEPENDENT:        2.088
REMARK UNBOUND:                -2.380
REMARK  7 active torsions:
REMARK  status: ('A' for Active; 'I' for Inactive)
REMARK    1  A    between atoms: C_2  and  O_3 
REMARK    2  A    between atoms: O_3  and  C_4 
REMARK    3  A    between atoms: C_7  and  N_8 
REMARK       I    between atoms: N_8  and  C_9 
REMARK    4  A    between atoms: C_9  and  C_11 
REMARK    5  A    between atoms: C_11  and  S_12 
REMARK    6  A    between atoms: C_13  and  S_12 
REMARK    7  A    between atoms: N_23  and  C_24 
ROOT
ATOM      1  C   UNL d   1      27.367 -15.218  -1.834  0.00  0.00     0.281 C 
ATOM      2  N   UNL d   1      26.442 -15.524  -2.982  0.00  0.00    -0.232 NA
ATOM      3  C   UNL d   1      26.929 -15.113  -4.085  0.00  0.00     0.185 A 
ATOM      4  N   UNL d   1      26.570 -15.574  -5.336  0.00  0.00    -0.129 NA
ATOM      5  N   UNL d   1      27.204 -14.903  -6.196  0.00  0.00    -0.152 NA
ATOM      6  C   UNL d   1      27.964 -13.964  -5.542  0.00  0.00     0.071 A 
ATOM      7  C   UNL d   1      28.682 -12.901  -6.292  0.00  0.00     0.073 C 
ATOM      8  C   UNL d   1      27.916 -14.065  -4.237  0.00  0.00     0.085 A 
ATOM      9  C   UNL d   1      28.431 -13.375  -3.042  0.00  0.00     0.141 C 
ATOM     10  N   UNL d   1      29.177 -12.321  -3.171  0.00  0.00    -0.283 NA
ATOM     11  N   UNL d   1      28.103 -13.936  -1.807  0.00  0.00    -0.298 N 
ATOM     12  H   UNL d   1      29.319 -12.030  -4.134  0.00  0.00     0.188 HD
ENDROOT
BRANCH   1  13
ATOM     13  S   UNL d   1      28.478 -16.741  -1.896  0.00  0.00    -0.111 SA
BRANCH  13  14
ATOM     14  C   UNL d   1      28.473 -17.514  -0.131  0.00  0.00     0.181 C 
BRANCH  14  15
ATOM     15  C   UNL d   1      26.972 -17.874   0.143  0.00  0.00     0.231 C 
ATOM     16  N   UNL d   1      26.051 -17.666  -0.877  0.00  0.00    -0.327 N 
ATOM     17  H   UNL d   1      26.378 -17.346  -1.780  0.00  0.00     0.169 HD
ATOM     18  O   UNL d   1      26.654 -18.386   1.220  0.00  0.00    -0.272 OA
BRANCH  16  19
ATOM     19  C   UNL d   1      24.636 -17.740  -0.681  0.00  0.00     0.034 A 
ATOM     20  C   UNL d   1      24.047 -18.970  -0.374  0.00  0.00     0.032 A 
ATOM     21  C   UNL d   1      22.644 -19.110  -0.400  0.00  0.00     0.039 A 
ATOM     22  C   UNL d   1      21.811 -18.015  -0.651  0.00  0.00     0.068 A 
ATOM     23  C   UNL d   1      22.390 -16.777  -0.864  0.00  0.00     0.039 A 
ATOM     24  C   UNL d   1      23.780 -16.648  -0.871  0.00  0.00     0.032 A 
BRANCH  22  25
ATOM     25  O   UNL d   1      20.462 -18.222  -0.571  0.00  0.00    -0.352 OA
BRANCH  25  26
ATOM     26  C   UNL d   1      19.984 -19.433  -1.169  0.00  0.00     0.171 C 
ATOM     27  C   UNL d   1      18.941 -20.043  -0.249  0.00  0.00     0.034 C 
ENDBRANCH  25  26
ENDBRANCH  22  25
ENDBRANCH  16  19
ENDBRANCH  14  15
ENDBRANCH  13  14
ENDBRANCH   1  13
BRANCH  11  28
ATOM     28  C   UNL d   1      28.485 -13.290  -0.585  0.00  0.00     0.045 C 
ATOM     29  C   UNL d   1      29.794 -12.776  -0.474  0.00  0.00     0.030 C 
ATOM     30  C   UNL d   1      30.367 -12.438   0.763  0.00  0.00     0.002 C 
ATOM     31  C   UNL d   1      29.654 -12.600   1.939  0.00  0.00     0.001 C 
ATOM     32  C   UNL d   1      28.354 -13.036   1.867  0.00  0.00     0.009 C 
ATOM     33  C   UNL d   1      27.742 -13.268   0.624  0.00  0.00    -0.035 C 
ATOM     34  C   UNL d   1      26.282 -13.459   0.772  0.00  0.00     0.050 C 
ENDBRANCH  11  28
TORSDOF 7
ENDMDL
MODEL 5
REMARK VINA RESULT:    -8.713      3.814      8.938
REMARK INTER + INTRA:         -12.842
REMARK INTER:                 -10.801
REMARK INTRA:                  -2.042
REMARK CONF_INDEPENDENT:        2.088
REMARK UNBOUND:                -2.042
REMARK  7 active torsions:
REMARK  status: ('A' for Active; 'I' for Inactive)
REMARK    1  A    between atoms: C_2  and  O_3 
REMARK    2  A    between atoms: O_3  and  C_4 
REMARK    3  A    between atoms: C_7  and  N_8 
REMARK       I    between atoms: N_8  and  C_9 
REMARK    4  A    between atoms: C_9  and  C_11 
REMARK    5  A    between atoms: C_11  and  S_12 
REMARK    6  A    between atoms: C_13  and  S_12 
REMARK    7  A    between atoms: N_23  and  C_24 
ROOT
ATOM      1  C   UNL d   1      23.637 -17.167  -1.650  0.00  0.00     0.281 C 
ATOM      2  N   UNL d   1      22.622 -18.011  -2.374  0.00  0.00    -0.232 NA
ATOM      3  C   UNL d   1      21.740 -18.458  -1.572  0.00  0.00     0.185 A 
ATOM      4  N   UNL d   1      20.482 -18.897  -1.933  0.00  0.00    -0.129 NA
ATOM      5  N   UNL d   1      19.905 -19.325  -0.895  0.00  0.00    -0.152 NA
ATOM      6  C   UNL d   1      20.774 -19.216   0.164  0.00  0.00     0.071 A 
ATOM      7  C   UNL d   1      20.450 -19.809   1.487  0.00  0.00     0.073 C 
ATOM      8  C   UNL d   1      21.903 -18.625  -0.143  0.00  0.00     0.085 A 
ATOM      9  C   UNL d   1      23.185 -18.268   0.489  0.00  0.00     0.141 C 
ATOM     10  N   UNL d   1      23.406 -18.575   1.729  0.00  0.00    -0.283 NA
ATOM     11  N   UNL d   1      24.097 -17.568  -0.303  0.00  0.00    -0.298 N 
ATOM     12  H   UNL d   1      22.650 -19.092   2.169  0.00  0.00     0.188 HD
ENDROOT
BRANCH   1  13
ATOM     13  S   UNL d   1      22.765 -15.496  -1.699  0.00  0.00    -0.111 SA
BRANCH  13  14
ATOM     14  C   UNL d   1      23.629 -14.450  -3.068  0.00  0.00     0.181 C 
BRANCH  14  15
ATOM     15  C   UNL d   1      25.162 -14.690  -2.847  0.00  0.00     0.231 C 
ATOM     16  N   UNL d   1      25.952 -14.949  -3.959  0.00  0.00    -0.327 N 
ATOM     17  H   UNL d   1      25.534 -14.919  -4.880  0.00  0.00     0.169 HD
ATOM     18  O   UNL d   1      25.638 -14.582  -1.713  0.00  0.00    -0.272 OA
BRANCH  16  19
ATOM     19  C   UNL d   1      27.306 -15.402  -3.870  0.00  0.00     0.034 A 
ATOM     20  C   UNL d   1      28.158 -15.244  -4.966  0.00  0.00     0.032 A 
ATOM     21  C   UNL d   1      29.417 -15.880  -4.983  0.00  0.00     0.039 A 
ATOM     22  C   UNL d   1      29.875 -16.610  -3.882  0.00  0.00     0.068 A 
ATOM     23  C   UNL d   1      29.071 -16.689  -2.759  0.00  0.00     0.039 A 
ATOM     24  C   UNL d   1      27.811 -16.087  -2.758  0.00  0.00     0.032 A 
BRANCH  22  25
ATOM     25  O   UNL d   1      31.142 -17.118  -3.950  0.00  0.00    -0.352 OA
BRANCH  25  26
ATOM     26  C   UNL d   1      31.419 -18.216  -3.072  0.00  0.00     0.171 C 
ATOM     27  C   UNL d   1      32.796 -18.761  -3.406  0.00  0.00     0.034 C 
ENDBRANCH  25  26
ENDBRANCH  22  25
ENDBRANCH  16  19
ENDBRANCH  14  15
ENDBRANCH  13  14
ENDBRANCH   1  13
BRANCH  11  28
ATOM     28  C   UNL d   1      25.404 -17.251   0.192  0.00  0.00     0.045 C 
ATOM     29  C   UNL d   1      25.697 -15.909   0.513  0.00  0.00     0.030 C 
ATOM     30  C   UNL d   1      27.013 -15.445   0.677  0.00  0.00     0.002 C 
ATOM     31  C   UNL d   1      28.089 -16.305   0.530  0.00  0.00     0.001 C 
ATOM     32  C   UNL d   1      27.841 -17.633   0.282  0.00  0.00     0.009 C 
ATOM     33  C   UNL d   1      26.525 -18.121   0.228  0.00  0.00    -0.035 C 
ATOM     34  C   UNL d   1      26.502 -19.601   0.229  0.00  0.00     0.050 C 
ENDBRANCH  11  28
TORSDOF 7
ENDMDL
MODEL 6
REMARK VINA RESULT:    -8.685      2.098      2.713
REMARK INTER + INTRA:         -12.667
REMARK INTER:                 -10.773
REMARK INTRA:                  -1.894
REMARK CONF_INDEPENDENT:        2.088
REMARK UNBOUND:                -1.894
REMARK  7 active torsions:
REMARK  status: ('A' for Active; 'I' for Inactive)
REMARK    1  A    between atoms: C_2  and  O_3 
REMARK    2  A    between atoms: O_3  and  C_4 
REMARK    3  A    between atoms: C_7  and  N_8 
REMARK       I    between atoms: N_8  and  C_9 
REMARK    4  A    between atoms: C_9  and  C_11 
REMARK    5  A    between atoms: C_11  and  S_12 
REMARK    6  A    between atoms: C_13  and  S_12 
REMARK    7  A    between atoms: N_23  and  C_24 
ROOT
ATOM      1  C   UNL d   1      26.700 -13.794  -1.965  0.00  0.00     0.281 C 
ATOM      2  N   UNL d   1      26.057 -14.723  -2.959  0.00  0.00    -0.232 NA
ATOM      3  C   UNL d   1      26.636 -14.656  -4.092  0.00  0.00     0.185 A 
ATOM      4  N   UNL d   1      26.587 -15.628  -5.071  0.00  0.00    -0.129 NA
ATOM      5  N   UNL d   1      27.219 -15.200  -6.077  0.00  0.00    -0.152 NA
ATOM      6  C   UNL d   1      27.666 -13.930  -5.803  0.00  0.00     0.071 A 
ATOM      7  C   UNL d   1      28.286 -13.090  -6.860  0.00  0.00     0.073 C 
ATOM      8  C   UNL d   1      27.418 -13.539  -4.577  0.00  0.00     0.085 A 
ATOM      9  C   UNL d   1      27.584 -12.346  -3.730  0.00  0.00     0.141 C 
ATOM     10  N   UNL d   1      28.128 -11.273  -4.216  0.00  0.00    -0.283 NA
ATOM     11  N   UNL d   1      27.164 -12.459  -2.403  0.00  0.00    -0.298 N 
ATOM     12  H   UNL d   1      28.372 -11.343  -5.199  0.00  0.00     0.188 HD
ENDROOT
BRANCH   1  13
ATOM     13  S   UNL d   1      28.072 -14.910  -1.315  0.00  0.00    -0.111 SA
BRANCH  13  14
ATOM     14  C   UNL d   1      27.559 -15.459   0.460  0.00  0.00     0.181 C 
BRANCH  14  15
ATOM     15  C   UNL d   1      26.463 -16.557   0.237  0.00  0.00     0.231 C 
ATOM     16  N   UNL d   1      25.369 -16.239  -0.557  0.00  0.00    -0.327 N 
ATOM     17  H   UNL d   1      25.335 -15.336  -1.013  0.00  0.00     0.169 HD
ATOM     18  O   UNL d   1      26.624 -17.685   0.711  0.00  0.00    -0.272 OA
BRANCH  16  19
ATOM     19  C   UNL d   1      24.204 -17.064  -0.653  0.00  0.00     0.034 A 
ATOM     20  C   UNL d   1      24.348 -18.434  -0.889  0.00  0.00     0.032 A 
ATOM     21  C   UNL d   1      23.223 -19.220  -1.210  0.00  0.00     0.039 A 
ATOM     22  C   UNL d   1      21.936 -18.673  -1.220  0.00  0.00     0.068 A 
ATOM     23  C   UNL d   1      21.781 -17.338  -0.896  0.00  0.00     0.039 A 
ATOM     24  C   UNL d   1      22.900 -16.553  -0.611  0.00  0.00     0.032 A 
BRANCH  22  25
ATOM     25  O   UNL d   1      20.894 -19.527  -1.455  0.00  0.00    -0.352 OA
BRANCH  25  26
ATOM     26  C   UNL d   1      19.675 -19.222  -0.768  0.00  0.00     0.171 C 
ATOM     27  C   UNL d   1      19.298 -20.416   0.092  0.00  0.00     0.034 C 
ENDBRANCH  25  26
ENDBRANCH  22  25
ENDBRANCH  16  19
ENDBRANCH  14  15
ENDBRANCH  13  14
ENDBRANCH   1  13
BRANCH  11  28
ATOM     28  C   UNL d   1      27.205 -11.329  -1.523  0.00  0.00     0.045 C 
ATOM     29  C   UNL d   1      26.812 -10.069  -2.024  0.00  0.00     0.030 C 
ATOM     30  C   UNL d   1      27.128  -8.868  -1.368  0.00  0.00     0.002 C 
ATOM     31  C   UNL d   1      27.848  -8.877  -0.185  0.00  0.00     0.001 C 
ATOM     32  C   UNL d   1      28.193 -10.086   0.367  0.00  0.00     0.009 C 
ATOM     33  C   UNL d   1      27.781 -11.291  -0.226  0.00  0.00    -0.035 C 
ATOM     34  C   UNL d   1      28.020 -12.441   0.673  0.00  0.00     0.050 C 
ENDBRANCH  11  28
TORSDOF 7
ENDMDL
MODEL 7
REMARK VINA RESULT:    -8.649      5.588      8.301
REMARK INTER + INTRA:         -12.406
REMARK INTER:                 -10.737
REMARK INTRA:                  -1.669
REMARK CONF_INDEPENDENT:        2.088
REMARK UNBOUND:                -1.669
REMARK  7 active torsions:
REMARK  status: ('A' for Active; 'I' for Inactive)
REMARK    1  A    between atoms: C_2  and  O_3 
REMARK    2  A    between atoms: O_3  and  C_4 
REMARK    3  A    between atoms: C_7  and  N_8 
REMARK       I    between atoms: N_8  and  C_9 
REMARK    4  A    between atoms: C_9  and  C_11 
REMARK    5  A    between atoms: C_11  and  S_12 
REMARK    6  A    between atoms: C_13  and  S_12 
REMARK    7  A    between atoms: N_23  and  C_24 
ROOT
ATOM      1  C   UNL d   1      26.888 -11.545   2.274  0.00  0.00     0.281 C 
ATOM      2  N   UNL d   1      25.908 -10.404   2.200  0.00  0.00    -0.232 NA
ATOM      3  C   UNL d   1      26.401  -9.342   2.701  0.00  0.00     0.185 A 
ATOM      4  N   UNL d   1      25.967  -8.059   2.435  0.00  0.00    -0.129 NA
ATOM      5  N   UNL d   1      26.638  -7.264   3.150  0.00  0.00    -0.152 NA
ATOM      6  C   UNL d   1      27.500  -7.999   3.928  0.00  0.00     0.071 A 
ATOM      7  C   UNL d   1      28.293  -7.359   5.009  0.00  0.00     0.073 C 
ATOM      8  C   UNL d   1      27.477  -9.283   3.668  0.00  0.00     0.085 A 
ATOM      9  C   UNL d   1      28.086 -10.533   4.154  0.00  0.00     0.141 C 
ATOM     10  N   UNL d   1      28.923 -10.506   5.145  0.00  0.00    -0.283 NA
ATOM     11  N   UNL d   1      27.741 -11.701   3.473  0.00  0.00    -0.298 N 
ATOM     12  H   UNL d   1      29.066  -9.581   5.541  0.00  0.00     0.188 HD
ENDROOT
BRANCH   1  13
ATOM     13  S   UNL d   1      27.850 -11.253   0.680  0.00  0.00    -0.111 SA
BRANCH  13  14
ATOM     14  C   UNL d   1      28.613 -12.946   0.164  0.00  0.00     0.181 C 
BRANCH  14  15
ATOM     15  C   UNL d   1      27.410 -13.951   0.193  0.00  0.00     0.231 C 
ATOM     16  N   UNL d   1      27.674 -15.296  -0.033  0.00  0.00    -0.327 N 
ATOM     17  H   UNL d   1      28.633 -15.599  -0.151  0.00  0.00     0.169 HD
ATOM     18  O   UNL d   1      26.280 -13.542   0.473  0.00  0.00    -0.272 OA
BRANCH  16  19
ATOM     19  C   UNL d   1      26.649 -16.270  -0.254  0.00  0.00     0.034 A 
ATOM     20  C   UNL d   1      25.506 -15.914  -0.975  0.00  0.00     0.032 A 
ATOM     21  C   UNL d   1      24.394 -16.779  -1.013  0.00  0.00     0.039 A 
ATOM     22  C   UNL d   1      24.434 -18.037  -0.404  0.00  0.00     0.068 A 
ATOM     23  C   UNL d   1      25.598 -18.429   0.232  0.00  0.00     0.039 A 
ATOM     24  C   UNL d   1      26.686 -17.557   0.296  0.00  0.00     0.032 A 
BRANCH  22  25
ATOM     25  O   UNL d   1      23.343 -18.846  -0.565  0.00  0.00    -0.352 OA
BRANCH  25  26
ATOM     26  C   UNL d   1      22.069 -18.203  -0.432  0.00  0.00     0.171 C 
ATOM     27  C   UNL d   1      20.994 -19.168  -0.901  0.00  0.00     0.034 C 
ENDBRANCH  25  26
ENDBRANCH  22  25
ENDBRANCH  16  19
ENDBRANCH  14  15
ENDBRANCH  13  14
ENDBRANCH   1  13
BRANCH  11  28
ATOM     28  C   UNL d   1      28.213 -12.977   3.923  0.00  0.00     0.045 C 
ATOM     29  C   UNL d   1      27.344 -13.791   4.679  0.00  0.00     0.030 C 
ATOM     30  C   UNL d   1      27.803 -14.880   5.438  0.00  0.00     0.002 C 
ATOM     31  C   UNL d   1      29.150 -15.200   5.471  0.00  0.00     0.001 C 
ATOM     32  C   UNL d   1      30.020 -14.472   4.698  0.00  0.00     0.009 C 
ATOM     33  C   UNL d   1      29.549 -13.454   3.851  0.00  0.00    -0.035 C 
ATOM     34  C   UNL d   1      30.605 -13.000   2.919  0.00  0.00     0.050 C 
ENDBRANCH  11  28
TORSDOF 7
ENDMDL
MODEL 8
REMARK VINA RESULT:    -8.196      1.183      1.739
REMARK INTER + INTRA:         -12.727
REMARK INTER:                 -10.284
REMARK INTRA:                  -2.443
REMARK CONF_INDEPENDENT:        2.088
REMARK UNBOUND:                -2.443
REMARK  7 active torsions:
REMARK  status: ('A' for Active; 'I' for Inactive)
REMARK    1  A    between atoms: C_2  and  O_3 
REMARK    2  A    between atoms: O_3  and  C_4 
REMARK    3  A    between atoms: C_7  and  N_8 
REMARK       I    between atoms: N_8  and  C_9 
REMARK    4  A    between atoms: C_9  and  C_11 
REMARK    5  A    between atoms: C_11  and  S_12 
REMARK    6  A    between atoms: C_13  and  S_12 
REMARK    7  A    between atoms: N_23  and  C_24 
ROOT
ATOM      1  C   UNL d   1      25.444 -12.307  -3.163  0.00  0.00     0.281 C 
ATOM      2  N   UNL d   1      24.884 -13.611  -3.665  0.00  0.00    -0.232 NA
ATOM      3  C   UNL d   1      25.742 -14.240  -4.365  0.00  0.00     0.185 A 
ATOM      4  N   UNL d   1      25.724 -15.597  -4.622  0.00  0.00    -0.129 NA
ATOM      5  N   UNL d   1      26.684 -15.861  -5.396  0.00  0.00    -0.152 NA
ATOM      6  C   UNL d   1      27.335 -14.689  -5.699  0.00  0.00     0.071 A 
ATOM      7  C   UNL d   1      28.398 -14.648  -6.736  0.00  0.00     0.073 C 
ATOM      8  C   UNL d   1      26.871 -13.649  -5.052  0.00  0.00     0.085 A 
ATOM      9  C   UNL d   1      27.088 -12.194  -4.972  0.00  0.00     0.141 C 
ATOM     10  N   UNL d   1      27.984 -11.628  -5.721  0.00  0.00    -0.283 NA
ATOM     11  N   UNL d   1      26.316 -11.497  -4.042  0.00  0.00    -0.298 N 
ATOM     12  H   UNL d   1      28.458 -12.267  -6.354  0.00  0.00     0.188 HD
ENDROOT
BRANCH   1  13
ATOM     13  S   UNL d   1      26.282 -12.898  -1.582  0.00  0.00    -0.111 SA
BRANCH  13  14
ATOM     14  C   UNL d   1      27.292 -14.476  -2.035  0.00  0.00     0.181 C 
BRANCH  14  15
ATOM     15  C   UNL d   1      26.480 -15.663  -1.412  0.00  0.00     0.231 C 
ATOM     16  N   UNL d   1      25.183 -15.877  -1.862  0.00  0.00    -0.327 N 
ATOM     17  H   UNL d   1      24.820 -15.304  -2.613  0.00  0.00     0.169 HD
ATOM     18  O   UNL d   1      27.023 -16.410  -0.594  0.00  0.00    -0.272 OA
BRANCH  16  19
ATOM     19  C   UNL d   1      24.270 -16.773  -1.222  0.00  0.00     0.034 A 
ATOM     20  C   UNL d   1      24.684 -18.071  -0.909  0.00  0.00     0.032 A 
ATOM     21  C   UNL d   1      23.744 -19.033  -0.489  0.00  0.00     0.039 A 
ATOM     22  C   UNL d   1      22.400 -18.698  -0.298  0.00  0.00     0.068 A 
ATOM     23  C   UNL d   1      22.005 -17.390  -0.519  0.00  0.00     0.039 A 
ATOM     24  C   UNL d   1      22.932 -16.447  -0.967  0.00  0.00     0.032 A 
BRANCH  22  25
ATOM     25  O   UNL d   1      21.575 -19.671   0.195  0.00  0.00    -0.352 OA
BRANCH  25  26
ATOM     26  C   UNL d   1      20.460 -20.018  -0.635  0.00  0.00     0.171 C 
ATOM     27  C   UNL d   1      19.270 -19.172  -0.219  0.00  0.00     0.034 C 
ENDBRANCH  25  26
ENDBRANCH  22  25
ENDBRANCH  16  19
ENDBRANCH  14  15
ENDBRANCH  13  14
ENDBRANCH   1  13
BRANCH  11  28
ATOM     28  C   UNL d   1      26.392 -10.069  -3.949  0.00  0.00     0.045 C 
ATOM     29  C   UNL d   1      26.981  -9.498  -2.801  0.00  0.00     0.030 C 
ATOM     30  C   UNL d   1      26.805  -8.147  -2.460  0.00  0.00     0.002 C 
ATOM     31  C   UNL d   1      26.036  -7.311  -3.253  0.00  0.00     0.001 C 
ATOM     32  C   UNL d   1      25.501  -7.814  -4.413  0.00  0.00     0.009 C 
ATOM     33  C   UNL d   1      25.767  -9.134  -4.815  0.00  0.00    -0.035 C 
ATOM     34  C   UNL d   1      25.327  -9.370  -6.208  0.00  0.00     0.050 C 
ENDBRANCH  11  28
TORSDOF 7
ENDMDL
MODEL 9
REMARK VINA RESULT:    -8.185      2.817      4.289
REMARK INTER + INTRA:         -13.050
REMARK INTER:                 -10.273
REMARK INTRA:                  -2.777
REMARK CONF_INDEPENDENT:        2.088
REMARK UNBOUND:                -2.777
REMARK  7 active torsions:
REMARK  status: ('A' for Active; 'I' for Inactive)
REMARK    1  A    between atoms: C_2  and  O_3 
REMARK    2  A    between atoms: O_3  and  C_4 
REMARK    3  A    between atoms: C_7  and  N_8 
REMARK       I    between atoms: N_8  and  C_9 
REMARK    4  A    between atoms: C_9  and  C_11 
REMARK    5  A    between atoms: C_11  and  S_12 
REMARK    6  A    between atoms: C_13  and  S_12 
REMARK    7  A    between atoms: N_23  and  C_24 
ROOT
ATOM      1  C   UNL d   1      28.939 -16.095  -3.155  0.00  0.00     0.281 C 
ATOM      2  N   UNL d   1      29.584 -17.450  -3.272  0.00  0.00    -0.232 NA
ATOM      3  C   UNL d   1      30.361 -17.503  -4.281  0.00  0.00     0.185 A 
ATOM      4  N   UNL d   1      31.392 -18.405  -4.448  0.00  0.00    -0.129 NA
ATOM      5  N   UNL d   1      31.904 -18.207  -5.584  0.00  0.00    -0.152 NA
ATOM      6  C   UNL d   1      31.207 -17.201  -6.207  0.00  0.00     0.071 A 
ATOM      7  C   UNL d   1      31.455 -16.864  -7.633  0.00  0.00     0.073 C 
ATOM      8  C   UNL d   1      30.285 -16.656  -5.453  0.00  0.00     0.085 A 
ATOM      9  C   UNL d   1      29.230 -15.631  -5.540  0.00  0.00     0.141 C 
ATOM     10  N   UNL d   1      29.039 -14.988  -6.651  0.00  0.00    -0.283 NA
ATOM     11  N   UNL d   1      28.502 -15.382  -4.376  0.00  0.00    -0.298 N 
ATOM     12  H   UNL d   1      29.642 -15.288  -7.412  0.00  0.00     0.188 HD
ENDROOT
BRANCH   1  13
ATOM     13  S   UNL d   1      30.263 -15.187  -2.167  0.00  0.00    -0.111 SA
BRANCH  13  14
ATOM     14  C   UNL d   1      30.194 -15.875  -0.368  0.00  0.00     0.181 C 
BRANCH  14  15
ATOM     15  C   UNL d   1      28.665 -15.997  -0.045  0.00  0.00     0.231 C 
ATOM     16  N   UNL d   1      27.919 -16.931  -0.753  0.00  0.00    -0.327 N 
ATOM     17  H   UNL d   1      28.386 -17.541  -1.411  0.00  0.00     0.169 HD
ATOM     18  O   UNL d   1      28.177 -15.318   0.861  0.00  0.00    -0.272 OA
BRANCH  16  19
ATOM     19  C   UNL d   1      26.489 -16.983  -0.714  0.00  0.00     0.034 A 
ATOM     20  C   UNL d   1      25.858 -17.982   0.032  0.00  0.00     0.032 A 
ATOM     21  C   UNL d   1      24.469 -18.190  -0.095  0.00  0.00     0.039 A 
ATOM     22  C   UNL d   1      23.682 -17.360  -0.900  0.00  0.00     0.068 A 
ATOM     23  C   UNL d   1      24.292 -16.313  -1.567  0.00  0.00     0.039 A 
ATOM     24  C   UNL d   1      25.672 -16.130  -1.466  0.00  0.00     0.032 A 
BRANCH  22  25
ATOM     25  O   UNL d   1      22.333 -17.580  -0.895  0.00  0.00    -0.352 OA
BRANCH  25  26
ATOM     26  C   UNL d   1      21.927 -18.950  -0.796  0.00  0.00     0.171 C 
ATOM     27  C   UNL d   1      20.412 -18.997  -0.710  0.00  0.00     0.034 C 
ENDBRANCH  25  26
ENDBRANCH  22  25
ENDBRANCH  16  19
ENDBRANCH  14  15
ENDBRANCH  13  14
ENDBRANCH   1  13
BRANCH  11  28
ATOM     28  C   UNL d   1      27.401 -14.466  -4.382  0.00  0.00     0.045 C 
ATOM     29  C   UNL d   1      27.613 -13.152  -3.915  0.00  0.00     0.030 C 
ATOM     30  C   UNL d   1      26.554 -12.297  -3.568  0.00  0.00     0.002 C 
ATOM     31  C   UNL d   1      25.239 -12.721  -3.675  0.00  0.00     0.001 C 
ATOM     32  C   UNL d   1      24.990 -13.970  -4.186  0.00  0.00     0.009 C 
ATOM     33  C   UNL d   1      26.041 -14.785  -4.640  0.00  0.00    -0.035 C 
ATOM     34  C   UNL d   1      25.530 -15.950  -5.395  0.00  0.00     0.050 C 
ENDBRANCH  11  28
TORSDOF 7
ENDMDL
