MODEL 1
REMARK VINA RESULT:   -11.960      0.000      0.000
REMARK INTER + INTRA:         -16.109
REMARK INTER:                 -14.644
REMARK INTRA:                  -1.464
REMARK CONF_INDEPENDENT:        2.685
REMARK UNBOUND:                -1.464
REMARK  9 active torsions:
REMARK  status: ('A' for Active; 'I' for Inactive)
REMARK    1  A    between atoms: C_5  and  C_6 
REMARK    2  A    between atoms: C_9  and  C_10 
REMARK    3  A    between atoms: C_10  and  C_11 
REMARK    4  A    between atoms: C_11  and  C_12 
REMARK       I    between atoms: C_12  and  N_14 
REMARK    5  A    between atoms: N_14  and  N_15 
REMARK       I    between atoms: N_15  and  C_16 
REMARK       I    between atoms: C_16  and  N_18 
REMARK    6  A    between atoms: N_18  and  C_19 
REMARK    7  A    between atoms: C_19  and  C_20 
REMARK    8  A    between atoms: C_20  and  C_21 
REMARK    9  A    between atoms: C_21  and  N_22 
ROOT
ATOM      1  C   UNL d   1      24.531 -17.489  -0.708  0.00  0.00     0.236 C 
ATOM      2  O   UNL d   1      24.924 -17.100   0.393  0.00  0.00    -0.272 OA
ATOM      3  N   UNL d   1      25.050 -16.959  -1.891  0.00  0.00    -0.266 N 
ATOM      4  H   UNL d   1      24.756 -17.250  -2.824  0.00  0.00     0.190 HD
ENDROOT
BRANCH   3   5
ATOM      5  N   UNL d   1      26.063 -15.935  -1.833  0.00  0.00    -0.249 N 
ATOM      6  C   UNL d   1      26.382 -15.202  -2.967  0.00  0.00     0.334 C 
ATOM      7  O   UNL d   1      25.829 -15.378  -4.053  0.00  0.00    -0.246 OA
ATOM      8  N   UNL d   1      27.370 -14.243  -2.792  0.00  0.00    -0.342 N 
ATOM      9  H   UNL d   1      27.803 -14.154  -1.882  0.00  0.00     0.164 HD
ATOM     10  H   UNL d   1      26.507 -15.815  -0.926  0.00  0.00     0.192 HD
BRANCH   8  11
ATOM     11  C   UNL d   1      27.816 -13.398  -3.907  0.00  0.00     0.126 C 
BRANCH  11  12
ATOM     12  C   UNL d   1      28.676 -12.198  -3.487  0.00  0.00     0.040 C 
BRANCH  12  13
ATOM     13  C   UNL d   1      27.918 -10.865  -3.575  0.00  0.00     0.130 C 
BRANCH  13  14
ATOM     14  N   UNL d   1      27.160 -10.763  -4.841  0.00  0.00    -0.352 N 
ATOM     15  C   UNL d   1      25.803 -10.467  -4.971  0.00  0.00     0.108 A 
ATOM     16  C   UNL d   1      25.513 -10.513  -6.307  0.00  0.00     0.106 A 
ATOM     17  N   UNL d   1      26.693 -10.808  -6.948  0.00  0.00    -0.361 N 
ATOM     18  C   UNL d   1      27.688 -10.936  -6.065  0.00  0.00     0.182 A 
ATOM     19  H   UNL d   1      26.806 -10.915  -7.954  0.00  0.00     0.166 HD
ENDBRANCH  13  14
ENDBRANCH  12  13
ENDBRANCH  11  12
ENDBRANCH   8  11
ENDBRANCH   3   5
BRANCH   1  20
ATOM     20  C   UNL d   1      23.454 -18.572  -0.863  0.00  0.00     0.112 C 
BRANCH  20  21
ATOM     21  C   UNL d   1      22.076 -18.023  -1.325  0.00  0.00     0.096 C 
BRANCH  21  22
ATOM     22  C   UNL d   1      20.937 -18.753  -0.665  0.00  0.00     0.146 A 
ATOM     23  N   UNL d   1      19.894 -19.287  -1.269  0.00  0.00    -0.238 NA
ATOM     24  C   UNL d   1      19.161 -19.831  -0.253  0.00  0.00     0.157 A 
ATOM     25  C   UNL d   1      19.774 -19.620   0.959  0.00  0.00     0.105 A 
ATOM     26  O   UNL d   1      20.931 -18.907   0.714  0.00  0.00    -0.294 OA
BRANCH  25  27
ATOM     27  C   UNL d   1      19.404 -20.022   2.312  0.00  0.00    -0.001 A 
ATOM     28  C   UNL d   1      20.358 -20.406   3.259  0.00  0.00     0.015 A 
ATOM     29  C   UNL d   1      19.994 -20.618   4.599  0.00  0.00     0.007 A 
ATOM     30  C   UNL d   1      18.667 -20.458   5.018  0.00  0.00    -0.062 A 
ATOM     31  C   UNL d   1      18.266 -20.681   6.447  0.00  0.00     0.048 C 
ATOM     32  C   UNL d   1      17.708 -20.074   4.076  0.00  0.00     0.007 A 
ATOM     33  C   UNL d   1      18.075 -19.853   2.742  0.00  0.00     0.015 A 
ENDBRANCH  25  27
ENDBRANCH  21  22
ENDBRANCH  20  21
ENDBRANCH   1  20
TORSDOF 9
ENDMDL
MODEL 2
REMARK VINA RESULT:   -11.033      1.574      2.633
REMARK INTER + INTRA:         -15.022
REMARK INTER:                 -13.718
REMARK INTRA:                  -1.304
REMARK CONF_INDEPENDENT:        2.685
REMARK UNBOUND:                -1.304
REMARK  9 active torsions:
REMARK  status: ('A' for Active; 'I' for Inactive)
REMARK    1  A    between atoms: C_5  and  C_6 
REMARK    2  A    between atoms: C_9  and  C_10 
REMARK    3  A    between atoms: C_10  and  C_11 
REMARK    4  A    between atoms: C_11  and  C_12 
REMARK       I    between atoms: C_12  and  N_14 
REMARK    5  A    between atoms: N_14  and  N_15 
REMARK       I    between atoms: N_15  and  C_16 
REMARK       I    between atoms: C_16  and  N_18 
REMARK    6  A    between atoms: N_18  and  C_19 
REMARK    7  A    between atoms: C_19  and  C_20 
REMARK    8  A    between atoms: C_20  and  C_21 
REMARK    9  A    between atoms: C_21  and  N_22 
ROOT
ATOM      1  C   UNL d   1      24.233 -17.123  -0.518  0.00  0.00     0.236 C 
ATOM      2  O   UNL d   1      24.502 -16.607   0.568  0.00  0.00    -0.272 OA
ATOM      3  N   UNL d   1      24.722 -16.593  -1.713  0.00  0.00    -0.266 N 
ATOM      4  H   UNL d   1      24.526 -16.985  -2.634  0.00  0.00     0.190 HD
ENDROOT
BRANCH   3   5
ATOM      5  N   UNL d   1      25.556 -15.416  -1.686  0.00  0.00    -0.249 N 
ATOM      6  C   UNL d   1      25.494 -14.492  -2.719  0.00  0.00     0.334 C 
ATOM      7  O   UNL d   1      24.741 -14.619  -3.685  0.00  0.00    -0.246 OA
ATOM      8  N   UNL d   1      26.342 -13.401  -2.585  0.00  0.00    -0.342 N 
ATOM      9  H   UNL d   1      26.952 -13.357  -1.780  0.00  0.00     0.164 HD
ATOM     10  H   UNL d   1      26.172 -15.341  -0.881  0.00  0.00     0.192 HD
BRANCH   8  11
ATOM     11  C   UNL d   1      26.389 -12.346  -3.606  0.00  0.00     0.126 C 
BRANCH  11  12
ATOM     12  C   UNL d   1      27.809 -11.926  -4.015  0.00  0.00     0.040 C 
BRANCH  12  13
ATOM     13  C   UNL d   1      28.759 -11.802  -2.815  0.00  0.00     0.130 C 
BRANCH  13  14
ATOM     14  N   UNL d   1      29.390 -13.101  -2.495  0.00  0.00    -0.352 N 
ATOM     15  C   UNL d   1      28.983 -13.997  -1.508  0.00  0.00     0.108 A 
ATOM     16  C   UNL d   1      29.864 -15.043  -1.533  0.00  0.00     0.106 A 
ATOM     17  N   UNL d   1      30.759 -14.769  -2.539  0.00  0.00    -0.361 N 
ATOM     18  C   UNL d   1      30.458 -13.610  -3.133  0.00  0.00     0.182 A 
ATOM     19  H   UNL d   1      31.544 -15.360  -2.806  0.00  0.00     0.166 HD
ENDBRANCH  13  14
ENDBRANCH  12  13
ENDBRANCH  11  12
ENDBRANCH   8  11
ENDBRANCH   3   5
BRANCH   1  20
ATOM     20  C   UNL d   1      23.349 -18.373  -0.640  0.00  0.00     0.112 C 
BRANCH  20  21
ATOM     21  C   UNL d   1      22.002 -18.118  -1.372  0.00  0.00     0.096 C 
BRANCH  21  22
ATOM     22  C   UNL d   1      20.858 -18.817  -0.688  0.00  0.00     0.146 A 
ATOM     23  N   UNL d   1      19.789 -19.324  -1.270  0.00  0.00    -0.238 NA
ATOM     24  C   UNL d   1      19.062 -19.847  -0.238  0.00  0.00     0.157 A 
ATOM     25  C   UNL d   1      19.705 -19.650   0.961  0.00  0.00     0.105 A 
ATOM     26  O   UNL d   1      20.875 -18.968   0.691  0.00  0.00    -0.294 OA
BRANCH  25  27
ATOM     27  C   UNL d   1      19.351 -20.039   2.321  0.00  0.00    -0.001 A 
ATOM     28  C   UNL d   1      20.316 -20.414   3.260  0.00  0.00     0.015 A 
ATOM     29  C   UNL d   1      19.968 -20.614   4.607  0.00  0.00     0.007 A 
ATOM     30  C   UNL d   1      18.647 -20.450   5.040  0.00  0.00    -0.062 A 
ATOM     31  C   UNL d   1      18.263 -20.659   6.476  0.00  0.00     0.048 C 
ATOM     32  C   UNL d   1      17.677 -20.074   4.107  0.00  0.00     0.007 A 
ATOM     33  C   UNL d   1      18.027 -19.866   2.766  0.00  0.00     0.015 A 
ENDBRANCH  25  27
ENDBRANCH  21  22
ENDBRANCH  20  21
ENDBRANCH   1  20
TORSDOF 9
ENDMDL
MODEL 3
REMARK VINA RESULT:   -10.891      3.382      4.051
REMARK INTER + INTRA:         -14.640
REMARK INTER:                 -13.576
REMARK INTRA:                  -1.064
REMARK CONF_INDEPENDENT:        2.685
REMARK UNBOUND:                -1.064
REMARK  9 active torsions:
REMARK  status: ('A' for Active; 'I' for Inactive)
REMARK    1  A    between atoms: C_5  and  C_6 
REMARK    2  A    between atoms: C_9  and  C_10 
REMARK    3  A    between atoms: C_10  and  C_11 
REMARK    4  A    between atoms: C_11  and  C_12 
REMARK       I    between atoms: C_12  and  N_14 
REMARK    5  A    between atoms: N_14  and  N_15 
REMARK       I    between atoms: N_15  and  C_16 
REMARK       I    between atoms: C_16  and  N_18 
REMARK    6  A    between atoms: N_18  and  C_19 
REMARK    7  A    between atoms: C_19  and  C_20 
REMARK    8  A    between atoms: C_20  and  C_21 
REMARK    9  A    between atoms: C_21  and  N_22 
ROOT
ATOM      1  C   UNL d   1      24.539 -17.381  -0.679  0.00  0.00     0.236 C 
ATOM      2  O   UNL d   1      24.745 -16.817   0.397  0.00  0.00    -0.272 OA
ATOM      3  N   UNL d   1      25.266 -17.047  -1.823  0.00  0.00    -0.266 N 
ATOM      4  H   UNL d   1      25.131 -17.486  -2.734  0.00  0.00     0.190 HD
ENDROOT
BRANCH   3   5
ATOM      5  N   UNL d   1      26.279 -16.022  -1.755  0.00  0.00    -0.249 N 
ATOM      6  C   UNL d   1      27.602 -16.362  -1.516  0.00  0.00     0.334 C 
ATOM      7  O   UNL d   1      27.975 -17.525  -1.360  0.00  0.00    -0.246 OA
ATOM      8  N   UNL d   1      28.487 -15.293  -1.472  0.00  0.00    -0.342 N 
ATOM      9  H   UNL d   1      28.123 -14.357  -1.589  0.00  0.00     0.164 HD
ATOM     10  H   UNL d   1      25.941 -15.072  -1.881  0.00  0.00     0.192 HD
BRANCH   8  11
ATOM     11  C   UNL d   1      29.919 -15.502  -1.220  0.00  0.00     0.126 C 
BRANCH  11  12
ATOM     12  C   UNL d   1      30.420 -14.910   0.105  0.00  0.00     0.040 C 
BRANCH  12  13
ATOM     13  C   UNL d   1      29.931 -13.472   0.335  0.00  0.00     0.130 C 
BRANCH  13  14
ATOM     14  N   UNL d   1      28.901 -13.420   1.395  0.00  0.00    -0.352 N 
ATOM     15  C   UNL d   1      27.519 -13.423   1.208  0.00  0.00     0.108 A 
ATOM     16  C   UNL d   1      26.950 -13.327   2.448  0.00  0.00     0.106 A 
ATOM     17  N   UNL d   1      27.988 -13.294   3.347  0.00  0.00    -0.361 N 
ATOM     18  C   UNL d   1      29.162 -13.373   2.713  0.00  0.00     0.182 A 
ATOM     19  H   UNL d   1      27.890 -13.221   4.358  0.00  0.00     0.166 HD
ENDBRANCH  13  14
ENDBRANCH  12  13
ENDBRANCH  11  12
ENDBRANCH   8  11
ENDBRANCH   3   5
BRANCH   1  20
ATOM     20  C   UNL d   1      23.479 -18.480  -0.844  0.00  0.00     0.112 C 
BRANCH  20  21
ATOM     21  C   UNL d   1      22.100 -17.952  -1.329  0.00  0.00     0.096 C 
BRANCH  21  22
ATOM     22  C   UNL d   1      20.963 -18.682  -0.668  0.00  0.00     0.146 A 
ATOM     23  N   UNL d   1      19.908 -19.198  -1.268  0.00  0.00    -0.238 NA
ATOM     24  C   UNL d   1      19.181 -19.750  -0.252  0.00  0.00     0.157 A 
ATOM     25  C   UNL d   1      19.809 -19.562   0.956  0.00  0.00     0.105 A 
ATOM     26  O   UNL d   1      20.969 -18.856   0.709  0.00  0.00    -0.294 OA
BRANCH  25  27
ATOM     27  C   UNL d   1      19.448 -19.980   2.306  0.00  0.00    -0.001 A 
ATOM     28  C   UNL d   1      20.412 -20.354   3.248  0.00  0.00     0.015 A 
ATOM     29  C   UNL d   1      20.055 -20.583   4.588  0.00  0.00     0.007 A 
ATOM     30  C   UNL d   1      18.727 -20.449   5.011  0.00  0.00    -0.062 A 
ATOM     31  C   UNL d   1      18.333 -20.689   6.439  0.00  0.00     0.048 C 
ATOM     32  C   UNL d   1      17.759 -20.075   4.074  0.00  0.00     0.007 A 
ATOM     33  C   UNL d   1      18.118 -19.838   2.741  0.00  0.00     0.015 A 
ENDBRANCH  25  27
ENDBRANCH  21  22
ENDBRANCH  20  21
ENDBRANCH   1  20
TORSDOF 9
ENDMDL
MODEL 4
REMARK VINA RESULT:   -10.280      1.828      2.479
REMARK INTER + INTRA:         -14.524
REMARK INTER:                 -12.965
REMARK INTRA:                  -1.560
REMARK CONF_INDEPENDENT:        2.685
REMARK UNBOUND:                -1.560
REMARK  9 active torsions:
REMARK  status: ('A' for Active; 'I' for Inactive)
REMARK    1  A    between atoms: C_5  and  C_6 
REMARK    2  A    between atoms: C_9  and  C_10 
REMARK    3  A    between atoms: C_10  and  C_11 
REMARK    4  A    between atoms: C_11  and  C_12 
REMARK       I    between atoms: C_12  and  N_14 
REMARK    5  A    between atoms: N_14  and  N_15 
REMARK       I    between atoms: N_15  and  C_16 
REMARK       I    between atoms: C_16  and  N_18 
REMARK    6  A    between atoms: N_18  and  C_19 
REMARK    7  A    between atoms: C_19  and  C_20 
REMARK    8  A    between atoms: C_20  and  C_21 
REMARK    9  A    between atoms: C_21  and  N_22 
ROOT
ATOM      1  C   UNL d   1      24.222 -18.340  -0.203  0.00  0.00     0.236 C 
ATOM      2  O   UNL d   1      24.032 -18.107   0.992  0.00  0.00    -0.272 OA
ATOM      3  N   UNL d   1      25.222 -17.679  -0.920  0.00  0.00    -0.266 N 
ATOM      4  H   UNL d   1      25.415 -17.838  -1.909  0.00  0.00     0.190 HD
ENDROOT
BRANCH   3   5
ATOM      5  N   UNL d   1      26.051 -16.702  -0.258  0.00  0.00    -0.249 N 
ATOM      6  C   UNL d   1      27.340 -16.461  -0.707  0.00  0.00     0.334 C 
ATOM      7  O   UNL d   1      27.832 -17.047  -1.672  0.00  0.00    -0.246 OA
ATOM      8  N   UNL d   1      28.044 -15.499   0.006  0.00  0.00    -0.342 N 
ATOM      9  H   UNL d   1      27.597 -15.063   0.801  0.00  0.00     0.164 HD
ATOM     10  H   UNL d   1      25.621 -16.238   0.538  0.00  0.00     0.192 HD
BRANCH   8  11
ATOM     11  C   UNL d   1      29.424 -15.146  -0.351  0.00  0.00     0.126 C 
BRANCH  11  12
ATOM     12  C   UNL d   1      29.644 -14.896  -1.851  0.00  0.00     0.040 C 
BRANCH  12  13
ATOM     13  C   UNL d   1      29.238 -13.479  -2.282  0.00  0.00     0.130 C 
BRANCH  13  14
ATOM     14  N   UNL d   1      27.884 -13.468  -2.877  0.00  0.00    -0.352 N 
ATOM     15  C   UNL d   1      27.088 -12.345  -3.102  0.00  0.00     0.108 A 
ATOM     16  C   UNL d   1      25.909 -12.794  -3.630  0.00  0.00     0.106 A 
ATOM     17  N   UNL d   1      26.027 -14.159  -3.734  0.00  0.00    -0.361 N 
ATOM     18  C   UNL d   1      27.226 -14.561  -3.302  0.00  0.00     0.182 A 
ATOM     19  H   UNL d   1      25.310 -14.787  -4.091  0.00  0.00     0.166 HD
ENDBRANCH  13  14
ENDBRANCH  12  13
ENDBRANCH  11  12
ENDBRANCH   8  11
ENDBRANCH   3   5
BRANCH   1  20
ATOM     20  C   UNL d   1      23.384 -19.361  -0.987  0.00  0.00     0.112 C 
BRANCH  20  21
ATOM     21  C   UNL d   1      22.098 -18.760  -1.619  0.00  0.00     0.096 C 
BRANCH  21  22
ATOM     22  C   UNL d   1      20.875 -19.089  -0.806  0.00  0.00     0.146 A 
ATOM     23  N   UNL d   1      19.663 -19.320  -1.270  0.00  0.00    -0.238 NA
ATOM     24  C   UNL d   1      18.918 -19.573  -0.153  0.00  0.00     0.157 A 
ATOM     25  C   UNL d   1      19.693 -19.493   0.979  0.00  0.00     0.105 A 
ATOM     26  O   UNL d   1      20.974 -19.166   0.577  0.00  0.00    -0.294 OA
BRANCH  25  27
ATOM     27  C   UNL d   1      19.371 -19.700   2.386  0.00  0.00    -0.001 A 
ATOM     28  C   UNL d   1      18.052 -19.700   2.852  0.00  0.00     0.015 A 
ATOM     29  C   UNL d   1      17.759 -20.074   4.175  0.00  0.00     0.007 A 
ATOM     30  C   UNL d   1      18.778 -20.448   5.059  0.00  0.00    -0.062 A 
ATOM     31  C   UNL d   1      18.477 -20.850   6.474  0.00  0.00     0.048 C 
ATOM     32  C   UNL d   1      20.098 -20.449   4.600  0.00  0.00     0.007 A 
ATOM     33  C   UNL d   1      20.388 -20.085   3.278  0.00  0.00     0.015 A 
ENDBRANCH  25  27
ENDBRANCH  21  22
ENDBRANCH  20  21
ENDBRANCH   1  20
TORSDOF 9
ENDMDL
MODEL 5
REMARK VINA RESULT:    -9.974      1.905      2.398
REMARK INTER + INTRA:         -14.207
REMARK INTER:                 -12.659
REMARK INTRA:                  -1.548
REMARK CONF_INDEPENDENT:        2.685
REMARK UNBOUND:                -1.548
REMARK  9 active torsions:
REMARK  status: ('A' for Active; 'I' for Inactive)
REMARK    1  A    between atoms: C_5  and  C_6 
REMARK    2  A    between atoms: C_9  and  C_10 
REMARK    3  A    between atoms: C_10  and  C_11 
REMARK    4  A    between atoms: C_11  and  C_12 
REMARK       I    between atoms: C_12  and  N_14 
REMARK    5  A    between atoms: N_14  and  N_15 
REMARK       I    between atoms: N_15  and  C_16 
REMARK       I    between atoms: C_16  and  N_18 
REMARK    6  A    between atoms: N_18  and  C_19 
REMARK    7  A    between atoms: C_19  and  C_20 
REMARK    8  A    between atoms: C_20  and  C_21 
REMARK    9  A    between atoms: C_21  and  N_22 
ROOT
ATOM      1  C   UNL d   1      24.260 -17.952  -0.276  0.00  0.00     0.236 C 
ATOM      2  O   UNL d   1      24.269 -17.540   0.886  0.00  0.00    -0.272 OA
ATOM      3  N   UNL d   1      24.810 -17.200  -1.315  0.00  0.00    -0.266 N 
ATOM      4  H   UNL d   1      24.825 -17.499  -2.291  0.00  0.00     0.190 HD
ENDROOT
BRANCH   3   5
ATOM      5  N   UNL d   1      25.400 -15.914  -1.034  0.00  0.00    -0.249 N 
ATOM      6  C   UNL d   1      25.851 -15.110  -2.072  0.00  0.00     0.334 C 
ATOM      7  O   UNL d   1      25.771 -15.440  -3.255  0.00  0.00    -0.246 OA
ATOM      8  N   UNL d   1      26.398 -13.896  -1.681  0.00  0.00    -0.342 N 
ATOM      9  H   UNL d   1      26.456 -13.684  -0.694  0.00  0.00     0.164 HD
ATOM     10  H   UNL d   1      25.459 -15.670  -0.049  0.00  0.00     0.192 HD
BRANCH   8  11
ATOM     11  C   UNL d   1      26.925 -12.947  -2.671  0.00  0.00     0.126 C 
BRANCH  11  12
ATOM     12  C   UNL d   1      26.937 -11.485  -2.201  0.00  0.00     0.040 C 
BRANCH  12  13
ATOM     13  C   UNL d   1      28.216 -11.120  -1.433  0.00  0.00     0.130 C 
BRANCH  13  14
ATOM     14  N   UNL d   1      29.056 -10.180  -2.207  0.00  0.00    -0.352 N 
ATOM     15  C   UNL d   1      30.292 -10.460  -2.788  0.00  0.00     0.108 A 
ATOM     16  C   UNL d   1      30.729  -9.303  -3.371  0.00  0.00     0.106 A 
ATOM     17  N   UNL d   1      29.747  -8.366  -3.152  0.00  0.00    -0.361 N 
ATOM     18  C   UNL d   1      28.730  -8.903  -2.471  0.00  0.00     0.182 A 
ATOM     19  H   UNL d   1      29.778  -7.397  -3.463  0.00  0.00     0.166 HD
ENDBRANCH  13  14
ENDBRANCH  12  13
ENDBRANCH  11  12
ENDBRANCH   8  11
ENDBRANCH   3   5
BRANCH   1  20
ATOM     20  C   UNL d   1      23.650 -19.306  -0.666  0.00  0.00     0.112 C 
BRANCH  20  21
ATOM     21  C   UNL d   1      22.394 -19.189  -1.573  0.00  0.00     0.096 C 
BRANCH  21  22
ATOM     22  C   UNL d   1      21.122 -19.319  -0.779  0.00  0.00     0.146 A 
ATOM     23  N   UNL d   1      19.895 -19.321  -1.261  0.00  0.00    -0.238 NA
ATOM     24  C   UNL d   1      19.103 -19.469  -0.158  0.00  0.00     0.157 A 
ATOM     25  C   UNL d   1      19.864 -19.557   0.983  0.00  0.00     0.105 A 
ATOM     26  O   UNL d   1      21.187 -19.450   0.601  0.00  0.00    -0.294 OA
BRANCH  25  27
ATOM     27  C   UNL d   1      19.492 -19.741   2.381  0.00  0.00    -0.001 A 
ATOM     28  C   UNL d   1      18.158 -19.721   2.801  0.00  0.00     0.015 A 
ATOM     29  C   UNL d   1      17.816 -20.074   4.118  0.00  0.00     0.007 A 
ATOM     30  C   UNL d   1      18.800 -20.447   5.042  0.00  0.00    -0.062 A 
ATOM     31  C   UNL d   1      18.447 -20.828   6.450  0.00  0.00     0.048 C 
ATOM     32  C   UNL d   1      20.135 -20.469   4.627  0.00  0.00     0.007 A 
ATOM     33  C   UNL d   1      20.474 -20.126   3.312  0.00  0.00     0.015 A 
ENDBRANCH  25  27
ENDBRANCH  21  22
ENDBRANCH  20  21
ENDBRANCH   1  20
TORSDOF 9
ENDMDL
