MODEL 1
REMARK VINA RESULT:    -7.604      0.000      0.000
REMARK INTER + INTRA:          -9.866
REMARK INTER:                  -9.095
REMARK INTRA:                  -0.771
REMARK CONF_INDEPENDENT:        1.492
REMARK UNBOUND:                -0.771
REMARK  5 active torsions:
REMARK  status: ('A' for Active; 'I' for Inactive)
REMARK    1  A    between atoms: C_2  and  N_5 
REMARK       I    between atoms: N_5  and  C_6 
REMARK    2  A    between atoms: C_6  and  C_8 
REMARK    3  A    between atoms: C_11  and  N_12 
REMARK       I    between atoms: N_12  and  C_13 
REMARK    4  A    between atoms: C_13  and  C_15 
REMARK    5  A    between atoms: C_18  and  N_19 
ROOT
ATOM      1  C   UNL d   1      27.805 -16.727  -0.658  0.00  0.00     0.032 A 
ATOM      2  C   UNL d   1      26.688 -16.123  -1.259  0.00  0.00     0.019 A 
ATOM      3  C   UNL d   1      25.398 -16.665  -1.084  0.00  0.00     0.030 A 
ATOM      4  C   UNL d   1      25.224 -17.851  -0.359  0.00  0.00     0.035 A 
ATOM      5  C   UNL d   1      26.359 -18.430   0.225  0.00  0.00     0.030 A 
ATOM      6  C   UNL d   1      27.636 -17.889   0.078  0.00  0.00     0.019 A 
ENDROOT
BRANCH   4   7
ATOM      7  N   UNL d   1      23.931 -18.447  -0.252  0.00  0.00    -0.323 N 
ATOM      8  C   UNL d   1      22.736 -17.777  -0.489  0.00  0.00     0.256 C 
ATOM      9  O   UNL d   1      22.612 -16.615  -0.880  0.00  0.00    -0.267 OA
ATOM     10  H   UNL d   1      23.898 -19.417   0.043  0.00  0.00     0.169 HD
BRANCH   8  11
ATOM     11  C   UNL d   1      21.449 -18.466  -0.231  0.00  0.00     0.032 A 
ATOM     12  C   UNL d   1      21.223 -18.950   1.073  0.00  0.00     0.019 A 
ATOM     13  C   UNL d   1      20.173 -19.834   1.337  0.00  0.00     0.037 A 
ATOM     14  C   UNL d   1      19.300 -20.179   0.303  0.00  0.00     0.102 A 
ATOM     15  C   UNL d   1      19.515 -19.700  -1.002  0.00  0.00     0.037 A 
ATOM     16  C   UNL d   1      20.595 -18.846  -1.270  0.00  0.00     0.019 A 
BRANCH  14  17
ATOM     17  N   UNL d   1      18.122 -21.008   0.593  0.00  0.00    -0.116 N 
ATOM     18  O   UNL d   1      17.293 -21.173  -0.313  0.00  0.00    -0.532 OA
ATOM     19  O   UNL d   1      18.043 -21.520   1.719  0.00  0.00    -0.532 OA
ENDBRANCH  14  17
ENDBRANCH   8  11
ENDBRANCH   4   7
BRANCH   1  20
ATOM     20  C   UNL d   1      29.102 -16.017  -0.618  0.00  0.00     0.252 C 
ATOM     21  N   UNL d   1      29.614 -15.646   0.615  0.00  0.00    -0.349 N 
ATOM     22  H   UNL d   1      29.138 -15.943   1.459  0.00  0.00     0.163 HD
ATOM     23  O   UNL d   1      29.636 -15.762  -1.699  0.00  0.00    -0.268 OA
BRANCH  21  24
ATOM     24  C   UNL d   1      30.866 -14.876   0.753  0.00  0.00     0.022 C 
ATOM     25  C   UNL d   1      31.206 -14.659   2.242  0.00  0.00     0.037 C 
ATOM     26  C   UNL d   1      30.716 -13.491   0.102  0.00  0.00     0.037 C 
ATOM     27  C   UNL d   1      32.033 -15.645   0.113  0.00  0.00     0.037 C 
ENDBRANCH  21  24
ENDBRANCH   1  20
TORSDOF 5
ENDMDL
MODEL 2
REMARK VINA RESULT:    -7.463      5.846      8.634
REMARK INTER + INTRA:          -9.759
REMARK INTER:                  -8.954
REMARK INTRA:                  -0.805
REMARK CONF_INDEPENDENT:        1.492
REMARK UNBOUND:                -0.805
REMARK  5 active torsions:
REMARK  status: ('A' for Active; 'I' for Inactive)
REMARK    1  A    between atoms: C_2  and  N_5 
REMARK       I    between atoms: N_5  and  C_6 
REMARK    2  A    between atoms: C_6  and  C_8 
REMARK    3  A    between atoms: C_11  and  N_12 
REMARK       I    between atoms: N_12  and  C_13 
REMARK    4  A    between atoms: C_13  and  C_15 
REMARK    5  A    between atoms: C_18  and  N_19 
ROOT
ATOM      1  C   UNL d   1      28.644 -13.824   6.200  0.00  0.00     0.032 A 
ATOM      2  C   UNL d   1      29.747 -14.233   5.432  0.00  0.00     0.019 A 
ATOM      3  C   UNL d   1      29.612 -14.461   4.047  0.00  0.00     0.030 A 
ATOM      4  C   UNL d   1      28.359 -14.342   3.431  0.00  0.00     0.035 A 
ATOM      5  C   UNL d   1      27.279 -13.935   4.226  0.00  0.00     0.030 A 
ATOM      6  C   UNL d   1      27.407 -13.684   5.592  0.00  0.00     0.019 A 
ENDROOT
BRANCH   4   7
ATOM      7  N   UNL d   1      28.204 -14.654   2.046  0.00  0.00    -0.323 N 
ATOM      8  C   UNL d   1      27.392 -13.947   1.168  0.00  0.00     0.256 C 
ATOM      9  O   UNL d   1      26.746 -12.929   1.425  0.00  0.00    -0.267 OA
ATOM     10  H   UNL d   1      28.707 -15.466   1.703  0.00  0.00     0.169 HD
BRANCH   8  11
ATOM     11  C   UNL d   1      27.216 -14.436  -0.220  0.00  0.00     0.032 A 
ATOM     12  C   UNL d   1      27.805 -13.681  -1.254  0.00  0.00     0.019 A 
ATOM     13  C   UNL d   1      27.471 -13.912  -2.590  0.00  0.00     0.037 A 
ATOM     14  C   UNL d   1      26.593 -14.954  -2.900  0.00  0.00     0.102 A 
ATOM     15  C   UNL d   1      26.000 -15.715  -1.877  0.00  0.00     0.037 A 
ATOM     16  C   UNL d   1      26.309 -15.452  -0.534  0.00  0.00     0.019 A 
BRANCH  14  17
ATOM     17  N   UNL d   1      26.328 -15.287  -4.307  0.00  0.00    -0.116 N 
ATOM     18  O   UNL d   1      25.156 -15.226  -4.704  0.00  0.00    -0.532 OA
ATOM     19  O   UNL d   1      27.298 -15.578  -5.020  0.00  0.00    -0.532 OA
ENDBRANCH  14  17
ENDBRANCH   8  11
ENDBRANCH   4   7
BRANCH   1  20
ATOM     20  C   UNL d   1      28.842 -13.331   7.581  0.00  0.00     0.252 C 
ATOM     21  N   UNL d   1      29.155 -14.249   8.571  0.00  0.00    -0.349 N 
ATOM     22  H   UNL d   1      29.327 -15.215   8.315  0.00  0.00     0.163 HD
ATOM     23  O   UNL d   1      28.677 -12.126   7.775  0.00  0.00    -0.268 OA
BRANCH  21  24
ATOM     24  C   UNL d   1      29.305 -13.864   9.988  0.00  0.00     0.022 C 
ATOM     25  C   UNL d   1      27.965 -13.354  10.555  0.00  0.00     0.037 C 
ATOM     26  C   UNL d   1      30.333 -12.729  10.127  0.00  0.00     0.037 C 
ATOM     27  C   UNL d   1      29.734 -15.080  10.824  0.00  0.00     0.037 C 
ENDBRANCH  21  24
ENDBRANCH   1  20
TORSDOF 5
ENDMDL
MODEL 3
REMARK VINA RESULT:    -7.413      5.880      8.617
REMARK INTER + INTRA:          -9.723
REMARK INTER:                  -8.904
REMARK INTRA:                  -0.819
REMARK CONF_INDEPENDENT:        1.492
REMARK UNBOUND:                -0.819
REMARK  5 active torsions:
REMARK  status: ('A' for Active; 'I' for Inactive)
REMARK    1  A    between atoms: C_2  and  N_5 
REMARK       I    between atoms: N_5  and  C_6 
REMARK    2  A    between atoms: C_6  and  C_8 
REMARK    3  A    between atoms: C_11  and  N_12 
REMARK       I    between atoms: N_12  and  C_13 
REMARK    4  A    between atoms: C_13  and  C_15 
REMARK    5  A    between atoms: C_18  and  N_19 
ROOT
ATOM      1  C   UNL d   1      28.669 -13.557   6.163  0.00  0.00     0.032 A 
ATOM      2  C   UNL d   1      27.437 -13.362   5.518  0.00  0.00     0.019 A 
ATOM      3  C   UNL d   1      27.253 -13.770   4.181  0.00  0.00     0.030 A 
ATOM      4  C   UNL d   1      28.321 -14.320   3.458  0.00  0.00     0.035 A 
ATOM      5  C   UNL d   1      29.537 -14.499   4.131  0.00  0.00     0.030 A 
ATOM      6  C   UNL d   1      29.722 -14.120   5.460  0.00  0.00     0.019 A 
ENDROOT
BRANCH   4   7
ATOM      7  N   UNL d   1      28.161 -14.656   2.080  0.00  0.00    -0.323 N 
ATOM      8  C   UNL d   1      27.512 -13.854   1.147  0.00  0.00     0.256 C 
ATOM      9  O   UNL d   1      27.043 -12.732   1.345  0.00  0.00    -0.267 OA
ATOM     10  H   UNL d   1      28.526 -15.554   1.783  0.00  0.00     0.169 HD
BRANCH   8  11
ATOM     11  C   UNL d   1      27.301 -14.360  -0.230  0.00  0.00     0.032 A 
ATOM     12  C   UNL d   1      27.907 -13.647  -1.283  0.00  0.00     0.019 A 
ATOM     13  C   UNL d   1      27.548 -13.888  -2.612  0.00  0.00     0.037 A 
ATOM     14  C   UNL d   1      26.626 -14.900  -2.893  0.00  0.00     0.102 A 
ATOM     15  C   UNL d   1      26.016 -15.619  -1.850  0.00  0.00     0.037 A 
ATOM     16  C   UNL d   1      26.350 -15.344  -0.515  0.00  0.00     0.019 A 
BRANCH  14  17
ATOM     17  N   UNL d   1      26.332 -15.246  -4.291  0.00  0.00    -0.116 N 
ATOM     18  O   UNL d   1      25.156 -15.157  -4.673  0.00  0.00    -0.532 OA
ATOM     19  O   UNL d   1      27.283 -15.575  -5.013  0.00  0.00    -0.532 OA
ENDBRANCH  14  17
ENDBRANCH   8  11
ENDBRANCH   4   7
BRANCH   1  20
ATOM     20  C   UNL d   1      28.779 -13.378   7.627  0.00  0.00     0.252 C 
ATOM     21  N   UNL d   1      29.353 -14.394   8.375  0.00  0.00    -0.349 N 
ATOM     22  H   UNL d   1      29.762 -15.190   7.899  0.00  0.00     0.163 HD
ATOM     23  O   UNL d   1      28.312 -12.342   8.102  0.00  0.00    -0.268 OA
BRANCH  21  24
ATOM     24  C   UNL d   1      29.446 -14.337   9.847  0.00  0.00     0.022 C 
ATOM     25  C   UNL d   1      28.039 -14.353  10.479  0.00  0.00     0.037 C 
ATOM     26  C   UNL d   1      30.142 -13.039  10.289  0.00  0.00     0.037 C 
ATOM     27  C   UNL d   1      30.211 -15.561  10.377  0.00  0.00     0.037 C 
ENDBRANCH  21  24
ENDBRANCH   1  20
TORSDOF 5
ENDMDL
MODEL 4
REMARK VINA RESULT:    -6.989      2.358     10.356
REMARK INTER + INTRA:          -9.094
REMARK INTER:                  -8.481
REMARK INTRA:                  -0.613
REMARK CONF_INDEPENDENT:        1.492
REMARK UNBOUND:                -0.613
REMARK  5 active torsions:
REMARK  status: ('A' for Active; 'I' for Inactive)
REMARK    1  A    between atoms: C_2  and  N_5 
REMARK       I    between atoms: N_5  and  C_6 
REMARK    2  A    between atoms: C_6  and  C_8 
REMARK    3  A    between atoms: C_11  and  N_12 
REMARK       I    between atoms: N_12  and  C_13 
REMARK    4  A    between atoms: C_13  and  C_15 
REMARK    5  A    between atoms: C_18  and  N_19 
ROOT
ATOM      1  C   UNL d   1      22.833 -18.053  -0.637  0.00  0.00     0.032 A 
ATOM      2  C   UNL d   1      23.826 -18.979  -0.280  0.00  0.00     0.019 A 
ATOM      3  C   UNL d   1      25.170 -18.575  -0.145  0.00  0.00     0.030 A 
ATOM      4  C   UNL d   1      25.541 -17.254  -0.428  0.00  0.00     0.035 A 
ATOM      5  C   UNL d   1      24.526 -16.355  -0.784  0.00  0.00     0.030 A 
ATOM      6  C   UNL d   1      23.191 -16.739  -0.897  0.00  0.00     0.019 A 
ENDROOT
BRANCH   4   7
ATOM      7  N   UNL d   1      26.913 -16.863  -0.375  0.00  0.00    -0.323 N 
ATOM      8  C   UNL d   1      27.605 -16.280  -1.430  0.00  0.00     0.256 C 
ATOM      9  O   UNL d   1      27.138 -15.959  -2.524  0.00  0.00    -0.267 OA
ATOM     10  H   UNL d   1      27.410 -17.057   0.488  0.00  0.00     0.169 HD
BRANCH   8  11
ATOM     11  C   UNL d   1      29.060 -16.028  -1.300  0.00  0.00     0.032 A 
ATOM     12  C   UNL d   1      29.658 -15.171  -2.246  0.00  0.00     0.019 A 
ATOM     13  C   UNL d   1      31.047 -15.090  -2.362  0.00  0.00     0.037 A 
ATOM     14  C   UNL d   1      31.846 -15.819  -1.477  0.00  0.00     0.102 A 
ATOM     15  C   UNL d   1      31.261 -16.675  -0.528  0.00  0.00     0.037 A 
ATOM     16  C   UNL d   1      29.865 -16.784  -0.443  0.00  0.00     0.019 A 
BRANCH  14  17
ATOM     17  N   UNL d   1      33.305 -15.648  -1.508  0.00  0.00    -0.116 N 
ATOM     18  O   UNL d   1      33.770 -14.785  -2.266  0.00  0.00    -0.532 OA
ATOM     19  O   UNL d   1      33.983 -16.357  -0.752  0.00  0.00    -0.532 OA
ENDBRANCH  14  17
ENDBRANCH   8  11
ENDBRANCH   4   7
BRANCH   1  20
ATOM     20  C   UNL d   1      21.403 -18.412  -0.517  0.00  0.00     0.252 C 
ATOM     21  N   UNL d   1      21.061 -19.507   0.261  0.00  0.00    -0.349 N 
ATOM     22  H   UNL d   1      21.781 -19.980   0.796  0.00  0.00     0.163 HD
ATOM     23  O   UNL d   1      20.598 -17.732  -1.153  0.00  0.00    -0.268 OA
BRANCH  21  24
ATOM     24  C   UNL d   1      19.670 -19.984   0.388  0.00  0.00     0.022 C 
ATOM     25  C   UNL d   1      19.638 -21.510   0.605  0.00  0.00     0.037 C 
ATOM     26  C   UNL d   1      18.881 -19.677  -0.895  0.00  0.00     0.037 C 
ATOM     27  C   UNL d   1      18.993 -19.325   1.601  0.00  0.00     0.037 C 
ENDBRANCH  21  24
ENDBRANCH   1  20
TORSDOF 5
ENDMDL
MODEL 5
REMARK VINA RESULT:    -6.944      3.148     10.152
REMARK INTER + INTRA:          -9.245
REMARK INTER:                  -8.435
REMARK INTRA:                  -0.809
REMARK CONF_INDEPENDENT:        1.492
REMARK UNBOUND:                -0.809
REMARK  5 active torsions:
REMARK  status: ('A' for Active; 'I' for Inactive)
REMARK    1  A    between atoms: C_2  and  N_5 
REMARK       I    between atoms: N_5  and  C_6 
REMARK    2  A    between atoms: C_6  and  C_8 
REMARK    3  A    between atoms: C_11  and  N_12 
REMARK       I    between atoms: N_12  and  C_13 
REMARK    4  A    between atoms: C_13  and  C_15 
REMARK    5  A    between atoms: C_18  and  N_19 
ROOT
ATOM      1  C   UNL d   1      22.465 -17.982  -0.353  0.00  0.00     0.032 A 
ATOM      2  C   UNL d   1      22.477 -16.682  -0.887  0.00  0.00     0.019 A 
ATOM      3  C   UNL d   1      23.646 -16.158  -1.474  0.00  0.00     0.030 A 
ATOM      4  C   UNL d   1      24.832 -16.905  -1.475  0.00  0.00     0.035 A 
ATOM      5  C   UNL d   1      24.787 -18.196  -0.932  0.00  0.00     0.030 A 
ATOM      6  C   UNL d   1      23.629 -18.734  -0.371  0.00  0.00     0.019 A 
ENDROOT
BRANCH   4   7
ATOM      7  N   UNL d   1      26.038 -16.342  -1.992  0.00  0.00    -0.323 N 
ATOM      8  C   UNL d   1      26.118 -15.598  -3.164  0.00  0.00     0.256 C 
ATOM      9  O   UNL d   1      25.176 -15.263  -3.885  0.00  0.00    -0.267 OA
ATOM     10  H   UNL d   1      26.888 -16.530  -1.472  0.00  0.00     0.169 HD
BRANCH   8  11
ATOM     11  C   UNL d   1      27.444 -15.166  -3.666  0.00  0.00     0.032 A 
ATOM     12  C   UNL d   1      27.506 -14.657  -4.978  0.00  0.00     0.019 A 
ATOM     13  C   UNL d   1      28.733 -14.481  -5.622  0.00  0.00     0.037 A 
ATOM     14  C   UNL d   1      29.912 -14.749  -4.920  0.00  0.00     0.102 A 
ATOM     15  C   UNL d   1      29.862 -15.256  -3.610  0.00  0.00     0.037 A 
ATOM     16  C   UNL d   1      28.625 -15.470  -2.983  0.00  0.00     0.019 A 
BRANCH  14  17
ATOM     17  N   UNL d   1      31.210 -14.452  -5.541  0.00  0.00    -0.116 N 
ATOM     18  O   UNL d   1      31.259 -14.395  -6.779  0.00  0.00    -0.532 OA
ATOM     19  O   UNL d   1      32.172 -14.245  -4.790  0.00  0.00    -0.532 OA
ENDBRANCH  14  17
ENDBRANCH   8  11
ENDBRANCH   4   7
BRANCH   1  20
ATOM     20  C   UNL d   1      21.184 -18.623   0.014  0.00  0.00     0.252 C 
ATOM     21  N   UNL d   1      21.063 -19.180   1.277  0.00  0.00    -0.349 N 
ATOM     22  H   UNL d   1      21.814 -19.060   1.946  0.00  0.00     0.163 HD
ATOM     23  O   UNL d   1      20.306 -18.658  -0.850  0.00  0.00    -0.268 OA
BRANCH  21  24
ATOM     24  C   UNL d   1      19.849 -19.900   1.711  0.00  0.00     0.022 C 
ATOM     25  C   UNL d   1      18.634 -18.951   1.730  0.00  0.00     0.037 C 
ATOM     26  C   UNL d   1      20.035 -20.450   3.134  0.00  0.00     0.037 C 
ATOM     27  C   UNL d   1      19.534 -21.044   0.733  0.00  0.00     0.037 C 
ENDBRANCH  21  24
ENDBRANCH   1  20
TORSDOF 5
ENDMDL
MODEL 6
REMARK VINA RESULT:    -5.880      2.486      3.728
REMARK INTER + INTRA:          -8.215
REMARK INTER:                  -7.371
REMARK INTRA:                  -0.843
REMARK CONF_INDEPENDENT:        1.492
REMARK UNBOUND:                -0.843
REMARK  5 active torsions:
REMARK  status: ('A' for Active; 'I' for Inactive)
REMARK    1  A    between atoms: C_2  and  N_5 
REMARK       I    between atoms: N_5  and  C_6 
REMARK    2  A    between atoms: C_6  and  C_8 
REMARK    3  A    between atoms: C_11  and  N_12 
REMARK       I    between atoms: N_12  and  C_13 
REMARK    4  A    between atoms: C_13  and  C_15 
REMARK    5  A    between atoms: C_18  and  N_19 
ROOT
ATOM      1  C   UNL d   1      30.463 -14.820   0.237  0.00  0.00     0.032 A 
ATOM      2  C   UNL d   1      29.526 -14.252   1.115  0.00  0.00     0.019 A 
ATOM      3  C   UNL d   1      28.187 -14.691   1.119  0.00  0.00     0.030 A 
ATOM      4  C   UNL d   1      27.759 -15.660   0.200  0.00  0.00     0.035 A 
ATOM      5  C   UNL d   1      28.719 -16.205  -0.664  0.00  0.00     0.030 A 
ATOM      6  C   UNL d   1      30.051 -15.794  -0.659  0.00  0.00     0.019 A 
ENDROOT
BRANCH   4   7
ATOM      7  N   UNL d   1      26.385 -16.045   0.146  0.00  0.00    -0.323 N 
ATOM      8  C   UNL d   1      25.935 -17.359   0.202  0.00  0.00     0.256 C 
ATOM      9  O   UNL d   1      26.628 -18.364   0.367  0.00  0.00    -0.267 OA
ATOM     10  H   UNL d   1      25.707 -15.299   0.031  0.00  0.00     0.169 HD
BRANCH   8  11
ATOM     11  C   UNL d   1      24.493 -17.646   0.015  0.00  0.00     0.032 A 
ATOM     12  C   UNL d   1      24.119 -18.991  -0.176  0.00  0.00     0.019 A 
ATOM     13  C   UNL d   1      22.837 -19.322  -0.622  0.00  0.00     0.037 A 
ATOM     14  C   UNL d   1      21.900 -18.302  -0.811  0.00  0.00     0.102 A 
ATOM     15  C   UNL d   1      22.262 -16.957  -0.622  0.00  0.00     0.037 A 
ATOM     16  C   UNL d   1      23.563 -16.628  -0.213  0.00  0.00     0.019 A 
BRANCH  14  17
ATOM     17  N   UNL d   1      20.514 -18.646  -1.161  0.00  0.00    -0.116 N 
ATOM     18  O   UNL d   1      20.306 -19.753  -1.677  0.00  0.00    -0.532 OA
ATOM     19  O   UNL d   1      19.632 -17.819  -0.890  0.00  0.00    -0.532 OA
ENDBRANCH  14  17
ENDBRANCH   8  11
ENDBRANCH   4   7
BRANCH   1  20
ATOM     20  C   UNL d   1      31.907 -14.554   0.416  0.00  0.00     0.252 C 
ATOM     21  N   UNL d   1      32.788 -15.623   0.358  0.00  0.00    -0.349 N 
ATOM     22  H   UNL d   1      32.438 -16.541   0.109  0.00  0.00     0.163 HD
ATOM     23  O   UNL d   1      32.239 -13.390   0.646  0.00  0.00    -0.268 OA
BRANCH  21  24
ATOM     24  C   UNL d   1      34.237 -15.467   0.591  0.00  0.00     0.022 C 
ATOM     25  C   UNL d   1      34.950 -16.831   0.497  0.00  0.00     0.037 C 
ATOM     26  C   UNL d   1      34.494 -14.902   1.997  0.00  0.00     0.037 C 
ATOM     27  C   UNL d   1      34.849 -14.545  -0.476  0.00  0.00     0.037 C 
ENDBRANCH  21  24
ENDBRANCH   1  20
TORSDOF 5
ENDMDL
MODEL 7
REMARK VINA RESULT:    -5.532      2.658      3.693
REMARK INTER + INTRA:          -7.751
REMARK INTER:                  -7.024
REMARK INTRA:                  -0.727
REMARK CONF_INDEPENDENT:        1.492
REMARK UNBOUND:                -0.727
REMARK  5 active torsions:
REMARK  status: ('A' for Active; 'I' for Inactive)
REMARK    1  A    between atoms: C_2  and  N_5 
REMARK       I    between atoms: N_5  and  C_6 
REMARK    2  A    between atoms: C_6  and  C_8 
REMARK    3  A    between atoms: C_11  and  N_12 
REMARK       I    between atoms: N_12  and  C_13 
REMARK    4  A    between atoms: C_13  and  C_15 
REMARK    5  A    between atoms: C_18  and  N_19 
ROOT
ATOM      1  C   UNL d   1      30.474 -15.472  -1.869  0.00  0.00     0.032 A 
ATOM      2  C   UNL d   1      29.971 -15.873  -0.620  0.00  0.00     0.019 A 
ATOM      3  C   UNL d   1      28.624 -16.264  -0.481  0.00  0.00     0.030 A 
ATOM      4  C   UNL d   1      27.752 -16.197  -1.577  0.00  0.00     0.035 A 
ATOM      5  C   UNL d   1      28.286 -15.790  -2.808  0.00  0.00     0.030 A 
ATOM      6  C   UNL d   1      29.623 -15.424  -2.961  0.00  0.00     0.019 A 
ENDROOT
BRANCH   4   7
ATOM      7  N   UNL d   1      26.369 -16.511  -1.418  0.00  0.00    -0.323 N 
ATOM      8  C   UNL d   1      25.844 -17.223  -0.346  0.00  0.00     0.256 C 
ATOM      9  O   UNL d   1      26.464 -17.627   0.640  0.00  0.00    -0.267 OA
ATOM     10  H   UNL d   1      25.745 -16.212  -2.160  0.00  0.00     0.169 HD
BRANCH   8  11
ATOM     11  C   UNL d   1      24.409 -17.595  -0.348  0.00  0.00     0.032 A 
ATOM     12  C   UNL d   1      24.093 -18.965  -0.258  0.00  0.00     0.019 A 
ATOM     13  C   UNL d   1      22.799 -19.421  -0.520  0.00  0.00     0.037 A 
ATOM     14  C   UNL d   1      21.796 -18.491  -0.805  0.00  0.00     0.102 A 
ATOM     15  C   UNL d   1      22.099 -17.121  -0.895  0.00  0.00     0.037 A 
ATOM     16  C   UNL d   1      23.410 -16.673  -0.671  0.00  0.00     0.019 A 
BRANCH  14  17
ATOM     17  N   UNL d   1      20.408 -18.945  -0.961  0.00  0.00    -0.116 N 
ATOM     18  O   UNL d   1      20.218 -20.060  -1.469  0.00  0.00    -0.532 OA
ATOM     19  O   UNL d   1      19.509 -18.200  -0.547  0.00  0.00    -0.532 OA
ENDBRANCH  14  17
ENDBRANCH   8  11
ENDBRANCH   4   7
BRANCH   1  20
ATOM     20  C   UNL d   1      31.932 -15.322  -2.070  0.00  0.00     0.252 C 
ATOM     21  N   UNL d   1      32.556 -14.194  -1.562  0.00  0.00    -0.349 N 
ATOM     22  H   UNL d   1      32.023 -13.546  -0.993  0.00  0.00     0.163 HD
ATOM     23  O   UNL d   1      32.502 -16.202  -2.717  0.00  0.00    -0.268 OA
BRANCH  21  24
ATOM     24  C   UNL d   1      33.992 -13.923  -1.769  0.00  0.00     0.022 C 
ATOM     25  C   UNL d   1      34.852 -14.928  -0.975  0.00  0.00     0.037 C 
ATOM     26  C   UNL d   1      34.347 -12.512  -1.274  0.00  0.00     0.037 C 
ATOM     27  C   UNL d   1      34.350 -14.074  -3.256  0.00  0.00     0.037 C 
ENDBRANCH  21  24
ENDBRANCH   1  20
TORSDOF 5
ENDMDL
MODEL 8
REMARK VINA RESULT:    -5.101      6.402      9.250
REMARK INTER + INTRA:          -7.422
REMARK INTER:                  -6.593
REMARK INTRA:                  -0.830
REMARK CONF_INDEPENDENT:        1.492
REMARK UNBOUND:                -0.830
REMARK  5 active torsions:
REMARK  status: ('A' for Active; 'I' for Inactive)
REMARK    1  A    between atoms: C_2  and  N_5 
REMARK       I    between atoms: N_5  and  C_6 
REMARK    2  A    between atoms: C_6  and  C_8 
REMARK    3  A    between atoms: C_11  and  N_12 
REMARK       I    between atoms: N_12  and  C_13 
REMARK    4  A    between atoms: C_13  and  C_15 
REMARK    5  A    between atoms: C_18  and  N_19 
ROOT
ATOM      1  C   UNL d   1      28.430 -14.956   0.854  0.00  0.00     0.032 A 
ATOM      2  C   UNL d   1      29.604 -14.691   0.129  0.00  0.00     0.019 A 
ATOM      3  C   UNL d   1      29.759 -15.173  -1.186  0.00  0.00     0.030 A 
ATOM      4  C   UNL d   1      28.769 -15.978  -1.765  0.00  0.00     0.035 A 
ATOM      5  C   UNL d   1      27.612 -16.226  -1.013  0.00  0.00     0.030 A 
ATOM      6  C   UNL d   1      27.438 -15.734   0.280  0.00  0.00     0.019 A 
ENDROOT
BRANCH   4   7
ATOM      7  N   UNL d   1      28.962 -16.537  -3.064  0.00  0.00    -0.323 N 
ATOM      8  C   UNL d   1      30.048 -17.328  -3.425  0.00  0.00     0.256 C 
ATOM      9  O   UNL d   1      30.953 -17.712  -2.682  0.00  0.00    -0.267 OA
ATOM     10  H   UNL d   1      28.267 -16.310  -3.767  0.00  0.00     0.169 HD
BRANCH   8  11
ATOM     11  C   UNL d   1      30.205 -17.753  -4.836  0.00  0.00     0.032 A 
ATOM     12  C   UNL d   1      30.405 -19.126  -5.081  0.00  0.00     0.019 A 
ATOM     13  C   UNL d   1      30.825 -19.577  -6.335  0.00  0.00     0.037 A 
ATOM     14  C   UNL d   1      30.979 -18.653  -7.372  0.00  0.00     0.102 A 
ATOM     15  C   UNL d   1      30.780 -17.280  -7.139  0.00  0.00     0.037 A 
ATOM     16  C   UNL d   1      30.398 -16.829  -5.866  0.00  0.00     0.019 A 
BRANCH  14  17
ATOM     17  N   UNL d   1      31.301 -19.127  -8.725  0.00  0.00    -0.116 N 
ATOM     18  O   UNL d   1      32.457 -18.953  -9.138  0.00  0.00    -0.532 OA
ATOM     19  O   UNL d   1      30.405 -19.699  -9.361  0.00  0.00    -0.532 OA
ENDBRANCH  14  17
ENDBRANCH   8  11
ENDBRANCH   4   7
BRANCH   1  20
ATOM     20  C   UNL d   1      28.157 -14.234   2.116  0.00  0.00     0.252 C 
ATOM     21  N   UNL d   1      28.793 -14.658   3.271  0.00  0.00    -0.349 N 
ATOM     22  H   UNL d   1      29.492 -15.390   3.212  0.00  0.00     0.163 HD
ATOM     23  O   UNL d   1      27.341 -13.312   2.069  0.00  0.00    -0.268 OA
BRANCH  21  24
ATOM     24  C   UNL d   1      28.534 -14.045   4.588  0.00  0.00     0.022 C 
ATOM     25  C   UNL d   1      29.263 -14.825   5.702  0.00  0.00     0.037 C 
ATOM     26  C   UNL d   1      27.030 -14.075   4.905  0.00  0.00     0.037 C 
ATOM     27  C   UNL d   1      29.056 -12.600   4.611  0.00  0.00     0.037 C 
ENDBRANCH  21  24
ENDBRANCH   1  20
TORSDOF 5
ENDMDL
MODEL 9
REMARK VINA RESULT:    -5.072      6.290      9.508
REMARK INTER + INTRA:          -7.410
REMARK INTER:                  -6.564
REMARK INTRA:                  -0.847
REMARK CONF_INDEPENDENT:        1.492
REMARK UNBOUND:                -0.847
REMARK  5 active torsions:
REMARK  status: ('A' for Active; 'I' for Inactive)
REMARK    1  A    between atoms: C_2  and  N_5 
REMARK       I    between atoms: N_5  and  C_6 
REMARK    2  A    between atoms: C_6  and  C_8 
REMARK    3  A    between atoms: C_11  and  N_12 
REMARK       I    between atoms: N_12  and  C_13 
REMARK    4  A    between atoms: C_13  and  C_15 
REMARK    5  A    between atoms: C_18  and  N_19 
ROOT
ATOM      1  C   UNL d   1      28.073 -15.205  -1.233  0.00  0.00     0.032 A 
ATOM      2  C   UNL d   1      27.369 -16.054  -0.363  0.00  0.00     0.019 A 
ATOM      3  C   UNL d   1      27.406 -15.844   1.031  0.00  0.00     0.030 A 
ATOM      4  C   UNL d   1      28.198 -14.821   1.570  0.00  0.00     0.035 A 
ATOM      5  C   UNL d   1      28.890 -13.994   0.674  0.00  0.00     0.030 A 
ATOM      6  C   UNL d   1      28.841 -14.179  -0.707  0.00  0.00     0.019 A 
ENDROOT
BRANCH   4   7
ATOM      7  N   UNL d   1      28.304 -14.661   2.984  0.00  0.00    -0.323 N 
ATOM      8  C   UNL d   1      27.728 -13.619   3.702  0.00  0.00     0.256 C 
ATOM      9  O   UNL d   1      27.003 -12.731   3.250  0.00  0.00    -0.267 OA
ATOM     10  H   UNL d   1      28.863 -15.347   3.481  0.00  0.00     0.169 HD
BRANCH   8  11
ATOM     11  C   UNL d   1      28.006 -13.489   5.152  0.00  0.00     0.032 A 
ATOM     12  C   UNL d   1      27.780 -12.231   5.745  0.00  0.00     0.019 A 
ATOM     13  C   UNL d   1      28.261 -11.945   7.025  0.00  0.00     0.037 A 
ATOM     14  C   UNL d   1      28.913 -12.950   7.745  0.00  0.00     0.102 A 
ATOM     15  C   UNL d   1      29.143 -14.209   7.164  0.00  0.00     0.037 A 
ATOM     16  C   UNL d   1      28.693 -14.477   5.862  0.00  0.00     0.019 A 
BRANCH  14  17
ATOM     17  N   UNL d   1      29.315 -12.702   9.137  0.00  0.00    -0.116 N 
ATOM     18  O   UNL d   1      30.085 -11.755   9.355  0.00  0.00    -0.532 OA
ATOM     19  O   UNL d   1      28.837 -13.435  10.012  0.00  0.00    -0.532 OA
ENDBRANCH  14  17
ENDBRANCH   8  11
ENDBRANCH   4   7
BRANCH   1  20
ATOM     20  C   UNL d   1      27.821 -15.259  -2.689  0.00  0.00     0.252 C 
ATOM     21  N   UNL d   1      27.027 -14.276  -3.259  0.00  0.00    -0.349 N 
ATOM     22  H   UNL d   1      26.713 -13.500  -2.688  0.00  0.00     0.163 HD
ATOM     23  O   UNL d   1      28.305 -16.208  -3.308  0.00  0.00    -0.268 OA
BRANCH  21  24
ATOM     24  C   UNL d   1      26.664 -14.282  -4.690  0.00  0.00     0.022 C 
ATOM     25  C   UNL d   1      25.743 -13.090  -5.020  0.00  0.00     0.037 C 
ATOM     26  C   UNL d   1      25.905 -15.572  -5.042  0.00  0.00     0.037 C 
ATOM     27  C   UNL d   1      27.927 -14.151  -5.557  0.00  0.00     0.037 C 
ENDBRANCH  21  24
ENDBRANCH   1  20
TORSDOF 5
ENDMDL
