MODEL 1
REMARK VINA RESULT:    -7.880      0.000      0.000
REMARK INTER + INTRA:         -10.746
REMARK INTER:                  -9.073
REMARK INTRA:                  -1.672
REMARK CONF_INDEPENDENT:        1.193
REMARK UNBOUND:                -1.672
REMARK  4 active torsions:
REMARK  status: ('A' for Active; 'I' for Inactive)
REMARK    1  A    between atoms: C_5  and  C_6 
REMARK       I    between atoms: C_6  and  N_8 
REMARK    2  A    between atoms: N_8  and  N_9 
REMARK       I    between atoms: N_9  and  C_10 
REMARK    3  A    between atoms: C_10  and  C_12 
REMARK    4  A    between atoms: C_17  and  O_18 
ROOT
ATOM      1  C   UNL d   1      24.316 -17.980  -0.335  0.00  0.00     0.272 C 
ATOM      2  O   UNL d   1      24.727 -18.498   0.706  0.00  0.00    -0.266 OA
ATOM      3  N   UNL d   1      23.015 -18.176  -0.793  0.00  0.00    -0.263 N 
ATOM      4  H   UNL d   1      22.632 -17.772  -1.643  0.00  0.00     0.190 HD
ENDROOT
BRANCH   1   5
ATOM      5  C   UNL d   1      25.248 -17.099  -1.136  0.00  0.00     0.066 A 
ATOM      6  C   UNL d   1      24.776 -16.188  -2.095  0.00  0.00     0.020 A 
ATOM      7  C   UNL d   1      25.659 -15.362  -2.815  0.00  0.00     0.008 A 
ATOM      8  C   UNL d   1      27.037 -15.415  -2.589  0.00  0.00    -0.059 A 
ATOM      9  C   UNL d   1      28.002 -14.530  -3.326  0.00  0.00     0.048 C 
ATOM     10  C   UNL d   1      27.519 -16.325  -1.645  0.00  0.00     0.044 A 
ATOM     11  C   UNL d   1      26.643 -17.157  -0.935  0.00  0.00     0.082 A 
BRANCH  11  12
ATOM     12  O   UNL d   1      27.257 -18.011  -0.055  0.00  0.00    -0.360 OA
ATOM     13  H   UNL d   1      26.757 -17.997   0.788  0.00  0.00     0.217 HD
ENDBRANCH  11  12
ENDBRANCH   1   5
BRANCH   3  14
ATOM     14  N   UNL d   1      22.093 -18.953  -0.034  0.00  0.00    -0.263 N 
ATOM     15  C   UNL d   1      20.742 -18.906  -0.359  0.00  0.00     0.270 C 
ATOM     16  O   UNL d   1      20.316 -18.187  -1.268  0.00  0.00    -0.266 OA
ATOM     17  H   UNL d   1      22.484 -19.628   0.619  0.00  0.00     0.190 HD
BRANCH  15  18
ATOM     18  C   UNL d   1      19.853 -19.769   0.429  0.00  0.00     0.040 A 
ATOM     19  C   UNL d   1      19.877 -19.974   1.854  0.00  0.00     0.024 A 
ATOM     20  C   UNL d   1      18.877 -20.814   2.300  0.00  0.00     0.050 A 
ATOM     21  S   UNL d   1      17.899 -21.378   1.019  0.00  0.00    -0.113 SA
ATOM     22  C   UNL d   1      18.791 -20.468  -0.128  0.00  0.00     0.066 A 
ENDBRANCH  15  18
ENDBRANCH   3  14
TORSDOF 4
ENDMDL
MODEL 2
REMARK VINA RESULT:    -7.621      0.933      1.545
REMARK INTER + INTRA:         -10.567
REMARK INTER:                  -8.814
REMARK INTRA:                  -1.753
REMARK CONF_INDEPENDENT:        1.193
REMARK UNBOUND:                -1.753
REMARK  4 active torsions:
REMARK  status: ('A' for Active; 'I' for Inactive)
REMARK    1  A    between atoms: C_5  and  C_6 
REMARK       I    between atoms: C_6  and  N_8 
REMARK    2  A    between atoms: N_8  and  N_9 
REMARK       I    between atoms: N_9  and  C_10 
REMARK    3  A    between atoms: C_10  and  C_12 
REMARK    4  A    between atoms: C_17  and  O_18 
ROOT
ATOM      1  C   UNL d   1      24.470 -17.977  -0.130  0.00  0.00     0.272 C 
ATOM      2  O   UNL d   1      24.844 -18.523   0.910  0.00  0.00    -0.266 OA
ATOM      3  N   UNL d   1      23.175 -18.129  -0.620  0.00  0.00    -0.263 N 
ATOM      4  H   UNL d   1      22.822 -17.700  -1.471  0.00  0.00     0.190 HD
ENDROOT
BRANCH   1   5
ATOM      5  C   UNL d   1      25.443 -17.109  -0.896  0.00  0.00     0.066 A 
ATOM      6  C   UNL d   1      26.833 -17.298  -0.821  0.00  0.00     0.020 A 
ATOM      7  C   UNL d   1      27.721 -16.493  -1.558  0.00  0.00     0.008 A 
ATOM      8  C   UNL d   1      27.245 -15.485  -2.401  0.00  0.00    -0.059 A 
ATOM      9  C   UNL d   1      28.167 -14.626  -3.218  0.00  0.00     0.048 C 
ATOM     10  C   UNL d   1      25.865 -15.281  -2.477  0.00  0.00     0.044 A 
ATOM     11  C   UNL d   1      24.979 -16.073  -1.733  0.00  0.00     0.082 A 
BRANCH  11  12
ATOM     12  O   UNL d   1      23.656 -15.749  -1.893  0.00  0.00    -0.360 OA
ATOM     13  H   UNL d   1      23.603 -14.852  -2.284  0.00  0.00     0.217 HD
ENDBRANCH  11  12
ENDBRANCH   1   5
BRANCH   3  14
ATOM     14  N   UNL d   1      22.215 -18.893   0.106  0.00  0.00    -0.263 N 
ATOM     15  C   UNL d   1      20.888 -18.879  -0.308  0.00  0.00     0.270 C 
ATOM     16  O   UNL d   1      20.514 -18.201  -1.270  0.00  0.00    -0.266 OA
ATOM     17  H   UNL d   1      22.571 -19.536   0.809  0.00  0.00     0.190 HD
BRANCH  15  18
ATOM     18  C   UNL d   1      19.961 -19.727   0.452  0.00  0.00     0.040 A 
ATOM     19  C   UNL d   1      19.902 -19.890   1.881  0.00  0.00     0.024 A 
ATOM     20  C   UNL d   1      18.884 -20.725   2.292  0.00  0.00     0.050 A 
ATOM     21  S   UNL d   1      17.988 -21.336   0.973  0.00  0.00    -0.113 SA
ATOM     22  C   UNL d   1      18.940 -20.452  -0.145  0.00  0.00     0.066 A 
ENDBRANCH  15  18
ENDBRANCH   3  14
TORSDOF 4
ENDMDL
MODEL 3
REMARK VINA RESULT:    -7.297      3.145      8.050
REMARK INTER + INTRA:         -10.164
REMARK INTER:                  -8.490
REMARK INTRA:                  -1.674
REMARK CONF_INDEPENDENT:        1.193
REMARK UNBOUND:                -1.674
REMARK  4 active torsions:
REMARK  status: ('A' for Active; 'I' for Inactive)
REMARK    1  A    between atoms: C_5  and  C_6 
REMARK       I    between atoms: C_6  and  N_8 
REMARK    2  A    between atoms: N_8  and  N_9 
REMARK       I    between atoms: N_9  and  C_10 
REMARK    3  A    between atoms: C_10  and  C_12 
REMARK    4  A    between atoms: C_17  and  O_18 
ROOT
ATOM      1  C   UNL d   1      21.952 -18.224  -0.313  0.00  0.00     0.272 C 
ATOM      2  O   UNL d   1      21.674 -17.363  -1.152  0.00  0.00    -0.266 OA
ATOM      3  N   UNL d   1      23.252 -18.408   0.152  0.00  0.00    -0.263 N 
ATOM      4  H   UNL d   1      23.529 -19.103   0.840  0.00  0.00     0.190 HD
ENDROOT
BRANCH   1   5
ATOM      5  C   UNL d   1      20.849 -19.103   0.232  0.00  0.00     0.066 A 
ATOM      6  C   UNL d   1      20.655 -19.291   1.609  0.00  0.00     0.020 A 
ATOM      7  C   UNL d   1      19.609 -20.097   2.096  0.00  0.00     0.008 A 
ATOM      8  C   UNL d   1      18.721 -20.727   1.221  0.00  0.00    -0.059 A 
ATOM      9  C   UNL d   1      17.581 -21.574   1.711  0.00  0.00     0.048 C 
ATOM     10  C   UNL d   1      18.910 -20.556  -0.153  0.00  0.00     0.044 A 
ATOM     11  C   UNL d   1      19.959 -19.764  -0.640  0.00  0.00     0.082 A 
BRANCH  11  12
ATOM     12  O   UNL d   1      20.035 -19.700  -2.009  0.00  0.00    -0.360 OA
ATOM     13  H   UNL d   1      20.330 -18.799  -2.260  0.00  0.00     0.217 HD
ENDBRANCH  11  12
ENDBRANCH   1   5
BRANCH   3  14
ATOM     14  N   UNL d   1      24.306 -17.560  -0.297  0.00  0.00    -0.263 N 
ATOM     15  C   UNL d   1      25.580 -17.730   0.231  0.00  0.00     0.270 C 
ATOM     16  O   UNL d   1      25.818 -18.575   1.099  0.00  0.00    -0.266 OA
ATOM     17  H   UNL d   1      24.111 -16.964  -1.098  0.00  0.00     0.190 HD
BRANCH  15  18
ATOM     18  C   UNL d   1      26.630 -16.858  -0.312  0.00  0.00     0.040 A 
ATOM     19  C   UNL d   1      28.015 -17.189  -0.521  0.00  0.00     0.024 A 
ATOM     20  C   UNL d   1      28.739 -16.164  -1.094  0.00  0.00     0.050 A 
ATOM     21  S   UNL d   1      27.775 -14.785  -1.382  0.00  0.00    -0.113 SA
ATOM     22  C   UNL d   1      26.379 -15.574  -0.775  0.00  0.00     0.066 A 
ENDBRANCH  15  18
ENDBRANCH   3  14
TORSDOF 4
ENDMDL
MODEL 4
REMARK VINA RESULT:    -6.254      2.077      2.729
REMARK INTER + INTRA:          -9.172
REMARK INTER:                  -7.447
REMARK INTRA:                  -1.725
REMARK CONF_INDEPENDENT:        1.193
REMARK UNBOUND:                -1.725
REMARK  4 active torsions:
REMARK  status: ('A' for Active; 'I' for Inactive)
REMARK    1  A    between atoms: C_5  and  C_6 
REMARK       I    between atoms: C_6  and  N_8 
REMARK    2  A    between atoms: N_8  and  N_9 
REMARK       I    between atoms: N_9  and  C_10 
REMARK    3  A    between atoms: C_10  and  C_12 
REMARK    4  A    between atoms: C_17  and  O_18 
ROOT
ATOM      1  C   UNL d   1      24.405 -16.013  -1.847  0.00  0.00     0.272 C 
ATOM      2  O   UNL d   1      23.487 -15.206  -2.018  0.00  0.00    -0.266 OA
ATOM      3  N   UNL d   1      24.188 -17.268  -1.284  0.00  0.00    -0.263 N 
ATOM      4  H   UNL d   1      24.910 -17.965  -1.122  0.00  0.00     0.190 HD
ENDROOT
BRANCH   1   5
ATOM      5  C   UNL d   1      25.807 -15.632  -2.265  0.00  0.00     0.066 A 
ATOM      6  C   UNL d   1      26.935 -15.987  -1.509  0.00  0.00     0.020 A 
ATOM      7  C   UNL d   1      28.234 -15.641  -1.926  0.00  0.00     0.008 A 
ATOM      8  C   UNL d   1      28.442 -14.941  -3.117  0.00  0.00    -0.059 A 
ATOM      9  C   UNL d   1      29.817 -14.577  -3.601  0.00  0.00     0.048 C 
ATOM     10  C   UNL d   1      27.326 -14.573  -3.874  0.00  0.00     0.044 A 
ATOM     11  C   UNL d   1      26.031 -14.906  -3.453  0.00  0.00     0.082 A 
BRANCH  11  12
ATOM     12  O   UNL d   1      25.032 -14.466  -4.285  0.00  0.00    -0.360 OA
ATOM     13  H   UNL d   1      24.179 -14.542  -3.808  0.00  0.00     0.217 HD
ENDBRANCH  11  12
ENDBRANCH   1   5
BRANCH   3  14
ATOM     14  N   UNL d   1      22.870 -17.682  -0.931  0.00  0.00    -0.263 N 
ATOM     15  C   UNL d   1      22.658 -19.000  -0.543  0.00  0.00     0.270 C 
ATOM     16  O   UNL d   1      23.573 -19.829  -0.523  0.00  0.00    -0.266 OA
ATOM     17  H   UNL d   1      22.167 -16.954  -0.833  0.00  0.00     0.190 HD
BRANCH  15  18
ATOM     18  C   UNL d   1      21.288 -19.347  -0.143  0.00  0.00     0.040 A 
ATOM     19  C   UNL d   1      20.737 -19.325   1.186  0.00  0.00     0.024 A 
ATOM     20  C   UNL d   1      19.400 -19.661   1.227  0.00  0.00     0.050 A 
ATOM     21  S   UNL d   1      18.784 -20.018  -0.325  0.00  0.00    -0.113 SA
ATOM     22  C   UNL d   1      20.298 -19.685  -1.055  0.00  0.00     0.066 A 
ENDBRANCH  15  18
ENDBRANCH   3  14
TORSDOF 4
ENDMDL
MODEL 5
REMARK VINA RESULT:    -5.682      4.502      6.517
REMARK INTER + INTRA:          -8.573
REMARK INTER:                  -6.876
REMARK INTRA:                  -1.698
REMARK CONF_INDEPENDENT:        1.193
REMARK UNBOUND:                -1.698
REMARK  4 active torsions:
REMARK  status: ('A' for Active; 'I' for Inactive)
REMARK    1  A    between atoms: C_5  and  C_6 
REMARK       I    between atoms: C_6  and  N_8 
REMARK    2  A    between atoms: N_8  and  N_9 
REMARK       I    between atoms: N_9  and  C_10 
REMARK    3  A    between atoms: C_10  and  C_12 
REMARK    4  A    between atoms: C_17  and  O_18 
ROOT
ATOM      1  C   UNL d   1      27.168 -14.548  -4.963  0.00  0.00     0.272 C 
ATOM      2  O   UNL d   1      27.836 -15.575  -5.107  0.00  0.00    -0.266 OA
ATOM      3  N   UNL d   1      26.204 -14.429  -3.965  0.00  0.00    -0.263 N 
ATOM      4  H   UNL d   1      25.629 -13.606  -3.808  0.00  0.00     0.190 HD
ENDROOT
BRANCH   1   5
ATOM      5  C   UNL d   1      27.405 -13.380  -5.893  0.00  0.00     0.066 A 
ATOM      6  C   UNL d   1      28.364 -13.423  -6.918  0.00  0.00     0.020 A 
ATOM      7  C   UNL d   1      28.555 -12.332  -7.787  0.00  0.00     0.008 A 
ATOM      8  C   UNL d   1      27.784 -11.173  -7.663  0.00  0.00    -0.059 A 
ATOM      9  C   UNL d   1      27.949 -10.002  -8.590  0.00  0.00     0.048 C 
ATOM     10  C   UNL d   1      26.833 -11.114  -6.642  0.00  0.00     0.044 A 
ATOM     11  C   UNL d   1      26.651 -12.195  -5.767  0.00  0.00     0.082 A 
BRANCH  11  12
ATOM     12  O   UNL d   1      25.696 -11.991  -4.803  0.00  0.00    -0.360 OA
ATOM     13  H   UNL d   1      24.955 -11.490  -5.203  0.00  0.00     0.217 HD
ENDBRANCH  11  12
ENDBRANCH   1   5
BRANCH   3  14
ATOM     14  N   UNL d   1      25.994 -15.488  -3.035  0.00  0.00    -0.263 N 
ATOM     15  C   UNL d   1      24.790 -15.550  -2.342  0.00  0.00     0.270 C 
ATOM     16  O   UNL d   1      23.910 -14.697  -2.490  0.00  0.00    -0.266 OA
ATOM     17  H   UNL d   1      26.678 -16.242  -3.029  0.00  0.00     0.190 HD
BRANCH  15  18
ATOM     18  C   UNL d   1      24.619 -16.695  -1.439  0.00  0.00     0.040 A 
ATOM     19  C   UNL d   1      25.605 -17.267  -0.560  0.00  0.00     0.024 A 
ATOM     20  C   UNL d   1      25.119 -18.311   0.199  0.00  0.00     0.050 A 
ATOM     21  S   UNL d   1      23.476 -18.631  -0.135  0.00  0.00    -0.113 SA
ATOM     22  C   UNL d   1      23.405 -17.346  -1.268  0.00  0.00     0.066 A 
ENDBRANCH  15  18
ENDBRANCH   3  14
TORSDOF 4
ENDMDL
MODEL 6
REMARK VINA RESULT:    -5.672      4.794      8.655
REMARK INTER + INTRA:          -8.564
REMARK INTER:                  -6.866
REMARK INTRA:                  -1.699
REMARK CONF_INDEPENDENT:        1.193
REMARK UNBOUND:                -1.699
REMARK  4 active torsions:
REMARK  status: ('A' for Active; 'I' for Inactive)
REMARK    1  A    between atoms: C_5  and  C_6 
REMARK       I    between atoms: C_6  and  N_8 
REMARK    2  A    between atoms: N_8  and  N_9 
REMARK       I    between atoms: N_9  and  C_10 
REMARK    3  A    between atoms: C_10  and  C_12 
REMARK    4  A    between atoms: C_17  and  O_18 
ROOT
ATOM      1  C   UNL d   1      25.989 -16.193  -1.701  0.00  0.00     0.272 C 
ATOM      2  O   UNL d   1      26.966 -15.949  -0.989  0.00  0.00    -0.266 OA
ATOM      3  N   UNL d   1      25.962 -15.868  -3.055  0.00  0.00    -0.263 N 
ATOM      4  H   UNL d   1      25.182 -16.047  -3.681  0.00  0.00     0.190 HD
ENDROOT
BRANCH   1   5
ATOM      5  C   UNL d   1      24.784 -16.872  -1.089  0.00  0.00     0.066 A 
ATOM      6  C   UNL d   1      23.480 -16.384  -1.270  0.00  0.00     0.020 A 
ATOM      7  C   UNL d   1      22.369 -17.043  -0.709  0.00  0.00     0.008 A 
ATOM      8  C   UNL d   1      22.531 -18.212   0.038  0.00  0.00    -0.059 A 
ATOM      9  C   UNL d   1      21.363 -18.950   0.629  0.00  0.00     0.048 C 
ATOM     10  C   UNL d   1      23.825 -18.702   0.233  0.00  0.00     0.044 A 
ATOM     11  C   UNL d   1      24.933 -18.040  -0.314  0.00  0.00     0.082 A 
BRANCH  11  12
ATOM     12  O   UNL d   1      26.142 -18.623  -0.027  0.00  0.00    -0.360 OA
ATOM     13  H   UNL d   1      26.845 -17.950  -0.147  0.00  0.00     0.217 HD
ENDBRANCH  11  12
ENDBRANCH   1   5
BRANCH   3  14
ATOM     14  N   UNL d   1      27.102 -15.279  -3.678  0.00  0.00    -0.263 N 
ATOM     15  C   UNL d   1      27.131 -15.166  -5.063  0.00  0.00     0.270 C 
ATOM     16  O   UNL d   1      26.211 -15.587  -5.770  0.00  0.00    -0.266 OA
ATOM     17  H   UNL d   1      27.781 -14.829  -3.069  0.00  0.00     0.190 HD
BRANCH  15  18
ATOM     18  C   UNL d   1      28.311 -14.505  -5.636  0.00  0.00     0.040 A 
ATOM     19  C   UNL d   1      29.513 -15.132  -6.118  0.00  0.00     0.024 A 
ATOM     20  C   UNL d   1      30.422 -14.236  -6.643  0.00  0.00     0.050 A 
ATOM     21  S   UNL d   1      29.855 -12.628  -6.557  0.00  0.00    -0.113 SA
ATOM     22  C   UNL d   1      28.376 -13.135  -5.853  0.00  0.00     0.066 A 
ENDBRANCH  15  18
ENDBRANCH   3  14
TORSDOF 4
ENDMDL
MODEL 7
REMARK VINA RESULT:    -5.630      6.329      8.302
REMARK INTER + INTRA:          -8.553
REMARK INTER:                  -6.823
REMARK INTRA:                  -1.730
REMARK CONF_INDEPENDENT:        1.193
REMARK UNBOUND:                -1.730
REMARK  4 active torsions:
REMARK  status: ('A' for Active; 'I' for Inactive)
REMARK    1  A    between atoms: C_5  and  C_6 
REMARK       I    between atoms: C_6  and  N_8 
REMARK    2  A    between atoms: N_8  and  N_9 
REMARK       I    between atoms: N_9  and  C_10 
REMARK    3  A    between atoms: C_10  and  C_12 
REMARK    4  A    between atoms: C_17  and  O_18 
ROOT
ATOM      1  C   UNL d   1      25.895 -10.708  -3.354  0.00  0.00     0.272 C 
ATOM      2  O   UNL d   1      26.587 -10.549  -2.345  0.00  0.00    -0.266 OA
ATOM      3  N   UNL d   1      25.352 -11.946  -3.689  0.00  0.00    -0.263 N 
ATOM      4  H   UNL d   1      24.779 -12.126  -4.509  0.00  0.00     0.190 HD
ENDROOT
BRANCH   1   5
ATOM      5  C   UNL d   1      25.624  -9.523  -4.253  0.00  0.00     0.066 A 
ATOM      6  C   UNL d   1      25.619  -8.205  -3.771  0.00  0.00     0.020 A 
ATOM      7  C   UNL d   1      25.384  -7.114  -4.629  0.00  0.00     0.008 A 
ATOM      8  C   UNL d   1      25.161  -7.309  -5.994  0.00  0.00    -0.059 A 
ATOM      9  C   UNL d   1      24.931  -6.164  -6.938  0.00  0.00     0.048 C 
ATOM     10  C   UNL d   1      25.154  -8.618  -6.484  0.00  0.00     0.044 A 
ATOM     11  C   UNL d   1      25.375  -9.707  -5.629  0.00  0.00     0.082 A 
BRANCH  11  12
ATOM     12  O   UNL d   1      25.322 -10.932  -6.244  0.00  0.00    -0.360 OA
ATOM     13  H   UNL d   1      24.473 -11.360  -6.006  0.00  0.00     0.217 HD
ENDBRANCH  11  12
ENDBRANCH   1   5
BRANCH   3  14
ATOM     14  N   UNL d   1      25.540 -13.071  -2.835  0.00  0.00    -0.263 N 
ATOM     15  C   UNL d   1      25.036 -14.307  -3.224  0.00  0.00     0.270 C 
ATOM     16  O   UNL d   1      24.406 -14.450  -4.276  0.00  0.00    -0.266 OA
ATOM     17  H   UNL d   1      26.169 -12.952  -2.044  0.00  0.00     0.190 HD
BRANCH  15  18
ATOM     18  C   UNL d   1      25.310 -15.433  -2.323  0.00  0.00     0.040 A 
ATOM     19  C   UNL d   1      26.597 -15.951  -1.942  0.00  0.00     0.024 A 
ATOM     20  C   UNL d   1      26.520 -16.991  -1.039  0.00  0.00     0.050 A 
ATOM     21  S   UNL d   1      24.905 -17.371  -0.639  0.00  0.00    -0.113 SA
ATOM     22  C   UNL d   1      24.310 -16.118  -1.646  0.00  0.00     0.066 A 
ENDBRANCH  15  18
ENDBRANCH   3  14
TORSDOF 4
ENDMDL
MODEL 8
REMARK VINA RESULT:    -5.528      6.061      9.118
REMARK INTER + INTRA:          -8.500
REMARK INTER:                  -6.721
REMARK INTRA:                  -1.779
REMARK CONF_INDEPENDENT:        1.193
REMARK UNBOUND:                -1.779
REMARK  4 active torsions:
REMARK  status: ('A' for Active; 'I' for Inactive)
REMARK    1  A    between atoms: C_5  and  C_6 
REMARK       I    between atoms: C_6  and  N_8 
REMARK    2  A    between atoms: N_8  and  N_9 
REMARK       I    between atoms: N_9  and  C_10 
REMARK    3  A    between atoms: C_10  and  C_12 
REMARK    4  A    between atoms: C_17  and  O_18 
ROOT
ATOM      1  C   UNL d   1      25.127 -14.210  -3.089  0.00  0.00     0.272 C 
ATOM      2  O   UNL d   1      24.405 -14.450  -4.060  0.00  0.00    -0.266 OA
ATOM      3  N   UNL d   1      25.651 -12.942  -2.854  0.00  0.00    -0.263 N 
ATOM      4  H   UNL d   1      26.250 -12.697  -2.071  0.00  0.00     0.190 HD
ENDROOT
BRANCH   1   5
ATOM      5  C   UNL d   1      25.450 -15.325  -2.120  0.00  0.00     0.066 A 
ATOM      6  C   UNL d   1      24.596 -16.424  -1.933  0.00  0.00     0.020 A 
ATOM      7  C   UNL d   1      24.924 -17.462  -1.041  0.00  0.00     0.008 A 
ATOM      8  C   UNL d   1      26.121 -17.437  -0.321  0.00  0.00    -0.059 A 
ATOM      9  C   UNL d   1      26.510 -18.541   0.620  0.00  0.00     0.048 C 
ATOM     10  C   UNL d   1      26.975 -16.344  -0.491  0.00  0.00     0.044 A 
ATOM     11  C   UNL d   1      26.644 -15.303  -1.369  0.00  0.00     0.082 A 
BRANCH  11  12
ATOM     12  O   UNL d   1      27.566 -14.288  -1.422  0.00  0.00    -0.360 OA
ATOM     13  H   UNL d   1      28.302 -14.509  -0.814  0.00  0.00     0.217 HD
ENDBRANCH  11  12
ENDBRANCH   1   5
BRANCH   3  14
ATOM     14  N   UNL d   1      25.322 -11.854  -3.715  0.00  0.00    -0.263 N 
ATOM     15  C   UNL d   1      25.913 -10.616  -3.495  0.00  0.00     0.270 C 
ATOM     16  O   UNL d   1      26.694 -10.425  -2.558  0.00  0.00    -0.266 OA
ATOM     17  H   UNL d   1      24.780 -12.072  -4.548  0.00  0.00     0.190 HD
BRANCH  15  18
ATOM     18  C   UNL d   1      25.570  -9.554  -4.449  0.00  0.00     0.040 A 
ATOM     19  C   UNL d   1      25.530  -9.652  -5.884  0.00  0.00     0.024 A 
ATOM     20  C   UNL d   1      25.123  -8.485  -6.499  0.00  0.00     0.050 A 
ATOM     21  S   UNL d   1      24.791  -7.251  -5.368  0.00  0.00    -0.113 SA
ATOM     22  C   UNL d   1      25.155  -8.290  -4.054  0.00  0.00     0.066 A 
ENDBRANCH  15  18
ENDBRANCH   3  14
TORSDOF 4
ENDMDL
MODEL 9
REMARK VINA RESULT:    -5.516      2.847      4.467
REMARK INTER + INTRA:          -8.451
REMARK INTER:                  -6.709
REMARK INTRA:                  -1.741
REMARK CONF_INDEPENDENT:        1.193
REMARK UNBOUND:                -1.741
REMARK  4 active torsions:
REMARK  status: ('A' for Active; 'I' for Inactive)
REMARK    1  A    between atoms: C_5  and  C_6 
REMARK       I    between atoms: C_6  and  N_8 
REMARK    2  A    between atoms: N_8  and  N_9 
REMARK       I    between atoms: N_9  and  C_10 
REMARK    3  A    between atoms: C_10  and  C_12 
REMARK    4  A    between atoms: C_17  and  O_18 
ROOT
ATOM      1  C   UNL d   1      26.098 -15.402  -3.310  0.00  0.00     0.272 C 
ATOM      2  O   UNL d   1      25.146 -15.014  -3.992  0.00  0.00    -0.266 OA
ATOM      3  N   UNL d   1      25.938 -16.315  -2.271  0.00  0.00    -0.263 N 
ATOM      4  H   UNL d   1      26.689 -16.662  -1.682  0.00  0.00     0.190 HD
ENDROOT
BRANCH   1   5
ATOM      5  C   UNL d   1      27.482 -14.876  -3.613  0.00  0.00     0.066 A 
ATOM      6  C   UNL d   1      28.351 -14.431  -2.603  0.00  0.00     0.020 A 
ATOM      7  C   UNL d   1      29.644 -13.964  -2.905  0.00  0.00     0.008 A 
ATOM      8  C   UNL d   1      30.109 -13.940  -4.222  0.00  0.00    -0.059 A 
ATOM      9  C   UNL d   1      31.492 -13.469  -4.573  0.00  0.00     0.048 C 
ATOM     10  C   UNL d   1      29.251 -14.371  -5.237  0.00  0.00     0.044 A 
ATOM     11  C   UNL d   1      27.958 -14.824  -4.940  0.00  0.00     0.082 A 
BRANCH  11  12
ATOM     12  O   UNL d   1      27.221 -15.199  -6.035  0.00  0.00    -0.360 OA
ATOM     13  H   UNL d   1      26.281 -14.983  -5.863  0.00  0.00     0.217 HD
ENDBRANCH  11  12
ENDBRANCH   1   5
BRANCH   3  14
ATOM     14  N   UNL d   1      24.656 -16.875  -1.994  0.00  0.00    -0.263 N 
ATOM     15  C   UNL d   1      24.532 -17.799  -0.963  0.00  0.00     0.270 C 
ATOM     16  O   UNL d   1      25.505 -18.170  -0.300  0.00  0.00    -0.266 OA
ATOM     17  H   UNL d   1      23.857 -16.459  -2.467  0.00  0.00     0.190 HD
BRANCH  15  18
ATOM     18  C   UNL d   1      23.176 -18.298  -0.698  0.00  0.00     0.040 A 
ATOM     19  C   UNL d   1      22.280 -18.924  -1.634  0.00  0.00     0.024 A 
ATOM     20  C   UNL d   1      21.090 -19.325  -1.063  0.00  0.00     0.050 A 
ATOM     21  S   UNL d   1      21.022 -18.950   0.602  0.00  0.00    -0.113 SA
ATOM     22  C   UNL d   1      22.602 -18.285   0.566  0.00  0.00     0.066 A 
ENDBRANCH  15  18
ENDBRANCH   3  14
TORSDOF 4
ENDMDL
