MODEL 1
REMARK VINA RESULT:    -6.504      0.000      0.000
REMARK INTER + INTRA:          -8.374
REMARK INTER:                  -7.995
REMARK INTRA:                  -0.379
REMARK CONF_INDEPENDENT:        1.492
REMARK UNBOUND:                -0.379
REMARK  5 active torsions:
REMARK  status: ('A' for Active; 'I' for Inactive)
REMARK       I    between atoms: C_2  and  N_3 
REMARK       I    between atoms: C_2  and  N_16 
REMARK    1  A    between atoms: N_3  and  N_4 
REMARK    2  A    between atoms: N_4  and  C_5 
REMARK    3  A    between atoms: C_8  and  O_9 
REMARK    4  A    between atoms: O_9  and  C_10 
REMARK    5  A    between atoms: N_16  and  C_17 
ROOT
ATOM      1  C   UNL d   1      23.443 -18.453  -0.540  0.00  0.00     0.048 A 
ATOM      2  C   UNL d   1      24.826 -18.287  -0.650  0.00  0.00     0.034 A 
ATOM      3  C   UNL d   1      25.394 -17.043  -0.976  0.00  0.00     0.039 A 
ATOM      4  C   UNL d   1      24.588 -15.949  -1.300  0.00  0.00     0.078 A 
ATOM      5  C   UNL d   1      23.206 -16.111  -1.242  0.00  0.00     0.039 A 
ATOM      6  C   UNL d   1      22.643 -17.354  -0.888  0.00  0.00     0.034 A 
ENDROOT
BRANCH   1   7
ATOM      7  N   UNL d   1      22.934 -19.700  -0.145  0.00  0.00    -0.297 N 
ATOM      8  H   UNL d   1      23.524 -20.521  -0.035  0.00  0.00     0.187 HD
BRANCH   7   9
ATOM      9  N   UNL d   1      21.590 -19.809   0.134  0.00  0.00    -0.251 N 
ATOM     10  C   UNL d   1      20.613 -19.604  -0.802  0.00  0.00     0.335 C 
ATOM     11  O   UNL d   1      20.820 -19.569  -2.020  0.00  0.00    -0.246 OA
ATOM     12  N   UNL d   1      19.329 -19.472  -0.322  0.00  0.00    -0.337 N 
ATOM     13  H   UNL d   1      18.650 -19.411  -1.079  0.00  0.00     0.164 HD
ATOM     14  H   UNL d   1      21.367 -19.670   1.091  0.00  0.00     0.191 HD
BRANCH  12  15
ATOM     15  C   UNL d   1      18.799 -19.434   1.013  0.00  0.00     0.086 A 
ATOM     16  C   UNL d   1      18.080 -20.535   1.756  0.00  0.00     0.027 A 
ATOM     17  C   UNL d   1      19.487 -20.178   2.127  0.00  0.00     0.027 A 
ENDBRANCH  12  15
ENDBRANCH   7   9
ENDBRANCH   1   7
BRANCH   4  18
ATOM     18  O   UNL d   1      25.257 -14.813  -1.665  0.00  0.00    -0.255 OA
BRANCH  18  19
ATOM     19  C   UNL d   1      25.079 -14.343  -2.995  0.00  0.00     0.530 C 
ATOM     20  F   UNL d   1      25.625 -13.117  -3.164  0.00  0.00    -0.144 F 
ATOM     21  F   UNL d   1      25.623 -15.201  -3.885  0.00  0.00    -0.144 F 
ATOM     22  F   UNL d   1      23.757 -14.247  -3.261  0.00  0.00    -0.144 F 
ENDBRANCH  18  19
ENDBRANCH   4  18
TORSDOF 5
ENDMDL
MODEL 2
REMARK VINA RESULT:    -6.157      2.129      2.608
REMARK INTER + INTRA:          -8.178
REMARK INTER:                  -7.648
REMARK INTRA:                  -0.530
REMARK CONF_INDEPENDENT:        1.492
REMARK UNBOUND:                -0.530
REMARK  5 active torsions:
REMARK  status: ('A' for Active; 'I' for Inactive)
REMARK       I    between atoms: C_2  and  N_3 
REMARK       I    between atoms: C_2  and  N_16 
REMARK    1  A    between atoms: N_3  and  N_4 
REMARK    2  A    between atoms: N_4  and  C_5 
REMARK    3  A    between atoms: C_8  and  O_9 
REMARK    4  A    between atoms: O_9  and  C_10 
REMARK    5  A    between atoms: N_16  and  C_17 
ROOT
ATOM      1  C   UNL d   1      23.142 -17.493  -0.682  0.00  0.00     0.048 A 
ATOM      2  C   UNL d   1      23.923 -18.477  -0.069  0.00  0.00     0.034 A 
ATOM      3  C   UNL d   1      25.286 -18.269   0.206  0.00  0.00     0.039 A 
ATOM      4  C   UNL d   1      25.933 -17.105  -0.215  0.00  0.00     0.078 A 
ATOM      5  C   UNL d   1      25.179 -16.134  -0.870  0.00  0.00     0.039 A 
ATOM      6  C   UNL d   1      23.806 -16.337  -1.118  0.00  0.00     0.034 A 
ENDROOT
BRANCH   1   7
ATOM      7  N   UNL d   1      21.771 -17.729  -0.870  0.00  0.00    -0.297 N 
ATOM      8  H   UNL d   1      21.190 -17.131  -1.453  0.00  0.00     0.187 HD
BRANCH   7   9
ATOM      9  N   UNL d   1      21.197 -18.825  -0.267  0.00  0.00    -0.251 N 
ATOM     10  C   UNL d   1      20.334 -19.668  -0.914  0.00  0.00     0.335 C 
ATOM     11  O   UNL d   1      20.191 -19.700  -2.142  0.00  0.00    -0.246 OA
ATOM     12  N   UNL d   1      19.630 -20.545  -0.120  0.00  0.00    -0.337 N 
ATOM     13  H   UNL d   1      19.078 -21.195  -0.677  0.00  0.00     0.164 HD
ATOM     14  H   UNL d   1      21.140 -18.755   0.721  0.00  0.00     0.191 HD
BRANCH  12  15
ATOM     15  C   UNL d   1      19.563 -20.711   1.306  0.00  0.00     0.086 A 
ATOM     16  C   UNL d   1      19.932 -19.708   2.374  0.00  0.00     0.027 A 
ATOM     17  C   UNL d   1      18.491 -20.017   2.104  0.00  0.00     0.027 A 
ENDBRANCH  12  15
ENDBRANCH   7   9
ENDBRANCH   1   7
BRANCH   4  18
ATOM     18  O   UNL d   1      27.273 -17.048   0.051  0.00  0.00    -0.255 OA
BRANCH  18  19
ATOM     19  C   UNL d   1      28.138 -16.645  -1.003  0.00  0.00     0.530 C 
ATOM     20  F   UNL d   1      28.542 -15.364  -0.851  0.00  0.00    -0.144 F 
ATOM     21  F   UNL d   1      29.221 -17.450  -1.071  0.00  0.00    -0.144 F 
ATOM     22  F   UNL d   1      27.477 -16.734  -2.179  0.00  0.00    -0.144 F 
ENDBRANCH  18  19
ENDBRANCH   4  18
TORSDOF 5
ENDMDL
MODEL 3
REMARK VINA RESULT:    -6.144      1.429      1.702
REMARK INTER + INTRA:          -8.016
REMARK INTER:                  -7.635
REMARK INTRA:                  -0.381
REMARK CONF_INDEPENDENT:        1.492
REMARK UNBOUND:                -0.381
REMARK  5 active torsions:
REMARK  status: ('A' for Active; 'I' for Inactive)
REMARK       I    between atoms: C_2  and  N_3 
REMARK       I    between atoms: C_2  and  N_16 
REMARK    1  A    between atoms: N_3  and  N_4 
REMARK    2  A    between atoms: N_4  and  C_5 
REMARK    3  A    between atoms: C_8  and  O_9 
REMARK    4  A    between atoms: O_9  and  C_10 
REMARK    5  A    between atoms: N_16  and  C_17 
ROOT
ATOM      1  C   UNL d   1      24.406 -17.442  -0.427  0.00  0.00     0.048 A 
ATOM      2  C   UNL d   1      25.757 -17.587  -0.756  0.00  0.00     0.034 A 
ATOM      3  C   UNL d   1      26.398 -16.702  -1.639  0.00  0.00     0.039 A 
ATOM      4  C   UNL d   1      25.681 -15.702  -2.300  0.00  0.00     0.078 A 
ATOM      5  C   UNL d   1      24.323 -15.574  -2.020  0.00  0.00     0.039 A 
ATOM      6  C   UNL d   1      23.691 -16.447  -1.112  0.00  0.00     0.034 A 
ENDROOT
BRANCH   1   7
ATOM      7  N   UNL d   1      23.834 -18.313   0.513  0.00  0.00    -0.297 N 
ATOM      8  H   UNL d   1      24.300 -18.557   1.384  0.00  0.00     0.187 HD
BRANCH   7   9
ATOM      9  N   UNL d   1      22.584 -18.831   0.262  0.00  0.00    -0.251 N 
ATOM     10  C   UNL d   1      22.098 -19.032  -1.001  0.00  0.00     0.335 C 
ATOM     11  O   UNL d   1      22.798 -19.029  -2.020  0.00  0.00    -0.246 OA
ATOM     12  N   UNL d   1      20.748 -19.288  -1.100  0.00  0.00    -0.337 N 
ATOM     13  H   UNL d   1      20.479 -19.512  -2.056  0.00  0.00     0.164 HD
ATOM     14  H   UNL d   1      21.938 -18.696   1.003  0.00  0.00     0.191 HD
BRANCH  12  15
ATOM     15  C   UNL d   1      19.700 -19.317  -0.118  0.00  0.00     0.086 A 
ATOM     16  C   UNL d   1      18.785 -20.469   0.227  0.00  0.00     0.027 A 
ATOM     17  C   UNL d   1      19.882 -20.077   1.169  0.00  0.00     0.027 A 
ENDBRANCH  12  15
ENDBRANCH   7   9
ENDBRANCH   1   7
BRANCH   4  18
ATOM     18  O   UNL d   1      26.401 -14.948  -3.185  0.00  0.00    -0.255 OA
BRANCH  18  19
ATOM     19  C   UNL d   1      25.842 -14.731  -4.474  0.00  0.00     0.530 C 
ATOM     20  F   UNL d   1      24.707 -14.000  -4.406  0.00  0.00    -0.144 F 
ATOM     21  F   UNL d   1      26.726 -14.110  -5.284  0.00  0.00    -0.144 F 
ATOM     22  F   UNL d   1      25.532 -15.924  -5.031  0.00  0.00    -0.144 F 
ENDBRANCH  18  19
ENDBRANCH   4  18
TORSDOF 5
ENDMDL
MODEL 4
REMARK VINA RESULT:    -6.059      2.397      2.944
REMARK INTER + INTRA:          -8.076
REMARK INTER:                  -7.550
REMARK INTRA:                  -0.525
REMARK CONF_INDEPENDENT:        1.492
REMARK UNBOUND:                -0.525
REMARK  5 active torsions:
REMARK  status: ('A' for Active; 'I' for Inactive)
REMARK       I    between atoms: C_2  and  N_3 
REMARK       I    between atoms: C_2  and  N_16 
REMARK    1  A    between atoms: N_3  and  N_4 
REMARK    2  A    between atoms: N_4  and  C_5 
REMARK    3  A    between atoms: C_8  and  O_9 
REMARK    4  A    between atoms: O_9  and  C_10 
REMARK    5  A    between atoms: N_16  and  C_17 
ROOT
ATOM      1  C   UNL d   1      23.130 -17.526  -0.727  0.00  0.00     0.048 A 
ATOM      2  C   UNL d   1      23.723 -16.380  -1.262  0.00  0.00     0.034 A 
ATOM      3  C   UNL d   1      25.120 -16.229  -1.313  0.00  0.00     0.039 A 
ATOM      4  C   UNL d   1      25.965 -17.180  -0.737  0.00  0.00     0.078 A 
ATOM      5  C   UNL d   1      25.388 -18.306  -0.157  0.00  0.00     0.039 A 
ATOM      6  C   UNL d   1      23.987 -18.465  -0.133  0.00  0.00     0.034 A 
ENDROOT
BRANCH   1   7
ATOM      7  N   UNL d   1      21.733 -17.654  -0.765  0.00  0.00    -0.297 N 
ATOM      8  H   UNL d   1      21.135 -16.977  -1.234  0.00  0.00     0.187 HD
BRANCH   7   9
ATOM      9  N   UNL d   1      21.150 -18.751  -0.171  0.00  0.00    -0.251 N 
ATOM     10  C   UNL d   1      20.354 -19.634  -0.851  0.00  0.00     0.335 C 
ATOM     11  O   UNL d   1      20.291 -19.700  -2.083  0.00  0.00    -0.246 OA
ATOM     12  N   UNL d   1      19.624 -20.510  -0.080  0.00  0.00    -0.337 N 
ATOM     13  H   UNL d   1      19.127 -21.189  -0.654  0.00  0.00     0.164 HD
ATOM     14  H   UNL d   1      21.028 -18.658   0.809  0.00  0.00     0.191 HD
BRANCH  12  15
ATOM     15  C   UNL d   1      19.469 -20.644   1.343  0.00  0.00     0.086 A 
ATOM     16  C   UNL d   1      20.038 -19.755   2.423  0.00  0.00     0.027 A 
ATOM     17  C   UNL d   1      18.576 -19.700   2.103  0.00  0.00     0.027 A 
ENDBRANCH  12  15
ENDBRANCH   7   9
ENDBRANCH   1   7
BRANCH   4  18
ATOM     18  O   UNL d   1      27.301 -16.889  -0.790  0.00  0.00    -0.255 OA
BRANCH  18  19
ATOM     19  C   UNL d   1      27.823 -16.005   0.193  0.00  0.00     0.530 C 
ATOM     20  F   UNL d   1      27.472 -14.723  -0.057  0.00  0.00    -0.144 F 
ATOM     21  F   UNL d   1      27.397 -16.353   1.427  0.00  0.00    -0.144 F 
ATOM     22  F   UNL d   1      29.173 -16.074   0.182  0.00  0.00    -0.144 F 
ENDBRANCH  18  19
ENDBRANCH   4  18
TORSDOF 5
ENDMDL
MODEL 5
REMARK VINA RESULT:    -6.007      1.619      2.299
REMARK INTER + INTRA:          -7.758
REMARK INTER:                  -7.499
REMARK INTRA:                  -0.259
REMARK CONF_INDEPENDENT:        1.492
REMARK UNBOUND:                -0.259
REMARK  5 active torsions:
REMARK  status: ('A' for Active; 'I' for Inactive)
REMARK       I    between atoms: C_2  and  N_3 
REMARK       I    between atoms: C_2  and  N_16 
REMARK    1  A    between atoms: N_3  and  N_4 
REMARK    2  A    between atoms: N_4  and  C_5 
REMARK    3  A    between atoms: C_8  and  O_9 
REMARK    4  A    between atoms: O_9  and  C_10 
REMARK    5  A    between atoms: N_16  and  C_17 
ROOT
ATOM      1  C   UNL d   1      24.693 -17.537  -0.458  0.00  0.00     0.048 A 
ATOM      2  C   UNL d   1      24.364 -17.434  -1.812  0.00  0.00     0.034 A 
ATOM      3  C   UNL d   1      25.159 -16.699  -2.708  0.00  0.00     0.039 A 
ATOM      4  C   UNL d   1      26.255 -15.961  -2.256  0.00  0.00     0.078 A 
ATOM      5  C   UNL d   1      26.569 -16.014  -0.901  0.00  0.00     0.039 A 
ATOM      6  C   UNL d   1      25.784 -16.775  -0.011  0.00  0.00     0.034 A 
ENDROOT
BRANCH   1   7
ATOM      7  N   UNL d   1      23.903 -18.341   0.379  0.00  0.00    -0.297 N 
ATOM      8  H   UNL d   1      24.157 -18.540   1.343  0.00  0.00     0.187 HD
BRANCH   7   9
ATOM      9  N   UNL d   1      22.724 -18.854  -0.115  0.00  0.00    -0.251 N 
ATOM     10  C   UNL d   1      21.713 -18.069  -0.601  0.00  0.00     0.335 C 
ATOM     11  O   UNL d   1      21.845 -16.876  -0.895  0.00  0.00    -0.246 OA
ATOM     12  N   UNL d   1      20.501 -18.692  -0.796  0.00  0.00    -0.337 N 
ATOM     13  H   UNL d   1      19.827 -18.070  -1.240  0.00  0.00     0.164 HD
ATOM     14  H   UNL d   1      22.499 -19.752   0.239  0.00  0.00     0.191 HD
BRANCH  12  15
ATOM     15  C   UNL d   1      20.048 -20.027  -0.517  0.00  0.00     0.086 A 
ATOM     16  C   UNL d   1      20.073 -20.756   0.805  0.00  0.00     0.027 A 
ATOM     17  C   UNL d   1      18.775 -20.254   0.252  0.00  0.00     0.027 A 
ENDBRANCH  12  15
ENDBRANCH   7   9
ENDBRANCH   1   7
BRANCH   4  18
ATOM     18  O   UNL d   1      26.909 -15.233  -3.212  0.00  0.00    -0.255 OA
BRANCH  18  19
ATOM     19  C   UNL d   1      26.127 -14.647  -4.245  0.00  0.00     0.530 C 
ATOM     20  F   UNL d   1      25.703 -15.575  -5.132  0.00  0.00    -0.144 F 
ATOM     21  F   UNL d   1      25.059 -13.998  -3.731  0.00  0.00    -0.144 F 
ATOM     22  F   UNL d   1      26.879 -13.746  -4.916  0.00  0.00    -0.144 F 
ENDBRANCH  18  19
ENDBRANCH   4  18
TORSDOF 5
ENDMDL
MODEL 6
REMARK VINA RESULT:    -5.749      4.322      7.447
REMARK INTER + INTRA:          -7.752
REMARK INTER:                  -7.241
REMARK INTRA:                  -0.512
REMARK CONF_INDEPENDENT:        1.492
REMARK UNBOUND:                -0.512
REMARK  5 active torsions:
REMARK  status: ('A' for Active; 'I' for Inactive)
REMARK       I    between atoms: C_2  and  N_3 
REMARK       I    between atoms: C_2  and  N_16 
REMARK    1  A    between atoms: N_3  and  N_4 
REMARK    2  A    between atoms: N_4  and  C_5 
REMARK    3  A    between atoms: C_8  and  O_9 
REMARK    4  A    between atoms: O_9  and  C_10 
REMARK    5  A    between atoms: N_16  and  C_17 
ROOT
ATOM      1  C   UNL d   1      24.166 -17.083  -0.428  0.00  0.00     0.048 A 
ATOM      2  C   UNL d   1      22.889 -16.571  -0.673  0.00  0.00     0.034 A 
ATOM      3  C   UNL d   1      21.788 -17.417  -0.895  0.00  0.00     0.039 A 
ATOM      4  C   UNL d   1      21.951 -18.801  -0.977  0.00  0.00     0.078 A 
ATOM      5  C   UNL d   1      23.226 -19.325  -0.782  0.00  0.00     0.039 A 
ATOM      6  C   UNL d   1      24.322 -18.474  -0.533  0.00  0.00     0.034 A 
ENDROOT
BRANCH   1   7
ATOM      7  N   UNL d   1      25.215 -16.195  -0.145  0.00  0.00    -0.297 N 
ATOM      8  H   UNL d   1      25.070 -15.320   0.354  0.00  0.00     0.187 HD
BRANCH   7   9
ATOM      9  N   UNL d   1      26.493 -16.534  -0.529  0.00  0.00    -0.251 N 
ATOM     10  C   UNL d   1      27.269 -17.426   0.160  0.00  0.00     0.335 C 
ATOM     11  O   UNL d   1      26.832 -18.205   1.014  0.00  0.00    -0.246 OA
ATOM     12  N   UNL d   1      28.604 -17.455  -0.173  0.00  0.00    -0.337 N 
ATOM     13  H   UNL d   1      29.097 -18.200   0.316  0.00  0.00     0.164 HD
ATOM     14  H   UNL d   1      26.941 -15.842  -1.082  0.00  0.00     0.191 HD
BRANCH  12  15
ATOM     15  C   UNL d   1      29.388 -16.661  -1.080  0.00  0.00     0.086 A 
ATOM     16  C   UNL d   1      30.198 -17.134  -2.263  0.00  0.00     0.027 A 
ATOM     17  C   UNL d   1      28.906 -16.409  -2.483  0.00  0.00     0.027 A 
ENDBRANCH  12  15
ENDBRANCH   7   9
ENDBRANCH   1   7
BRANCH   4  18
ATOM     18  O   UNL d   1      20.818 -19.512  -1.263  0.00  0.00    -0.255 OA
BRANCH  18  19
ATOM     19  C   UNL d   1      19.946 -19.825  -0.185  0.00  0.00     0.530 C 
ATOM     20  F   UNL d   1      18.649 -19.665  -0.533  0.00  0.00    -0.144 F 
ATOM     21  F   UNL d   1      20.142 -21.093   0.240  0.00  0.00    -0.144 F 
ATOM     22  F   UNL d   1      20.202 -18.994   0.850  0.00  0.00    -0.144 F 
ENDBRANCH  18  19
ENDBRANCH   4  18
TORSDOF 5
ENDMDL
MODEL 7
REMARK VINA RESULT:    -5.645      4.290      7.600
REMARK INTER + INTRA:          -7.682
REMARK INTER:                  -7.137
REMARK INTRA:                  -0.545
REMARK CONF_INDEPENDENT:        1.492
REMARK UNBOUND:                -0.545
REMARK  5 active torsions:
REMARK  status: ('A' for Active; 'I' for Inactive)
REMARK       I    between atoms: C_2  and  N_3 
REMARK       I    between atoms: C_2  and  N_16 
REMARK    1  A    between atoms: N_3  and  N_4 
REMARK    2  A    between atoms: N_4  and  C_5 
REMARK    3  A    between atoms: C_8  and  O_9 
REMARK    4  A    between atoms: O_9  and  C_10 
REMARK    5  A    between atoms: N_16  and  C_17 
ROOT
ATOM      1  C   UNL d   1      25.305 -16.268  -1.495  0.00  0.00     0.048 A 
ATOM      2  C   UNL d   1      23.945 -15.970  -1.618  0.00  0.00     0.034 A 
ATOM      3  C   UNL d   1      22.969 -16.674  -0.891  0.00  0.00     0.039 A 
ATOM      4  C   UNL d   1      23.316 -17.766  -0.094  0.00  0.00     0.078 A 
ATOM      5  C   UNL d   1      24.663 -18.107   0.002  0.00  0.00     0.039 A 
ATOM      6  C   UNL d   1      25.641 -17.380  -0.707  0.00  0.00     0.034 A 
ENDROOT
BRANCH   1   7
ATOM      7  N   UNL d   1      26.241 -15.488  -2.190  0.00  0.00    -0.297 N 
ATOM      8  H   UNL d   1      27.144 -15.852  -2.484  0.00  0.00     0.187 HD
BRANCH   7   9
ATOM      9  N   UNL d   1      25.913 -14.190  -2.514  0.00  0.00    -0.251 N 
ATOM     10  C   UNL d   1      25.320 -13.842  -3.697  0.00  0.00     0.335 C 
ATOM     11  O   UNL d   1      24.780 -14.649  -4.463  0.00  0.00    -0.246 OA
ATOM     12  N   UNL d   1      25.307 -12.499  -3.999  0.00  0.00    -0.337 N 
ATOM     13  H   UNL d   1      24.774 -12.310  -4.846  0.00  0.00     0.164 HD
ATOM     14  H   UNL d   1      26.455 -13.510  -2.036  0.00  0.00     0.191 HD
BRANCH  12  15
ATOM     15  C   UNL d   1      25.874 -11.357  -3.335  0.00  0.00     0.086 A 
ATOM     16  C   UNL d   1      27.089 -10.557  -3.743  0.00  0.00     0.027 A 
ATOM     17  C   UNL d   1      25.718  -9.979  -3.921  0.00  0.00     0.027 A 
ENDBRANCH  12  15
ENDBRANCH   7   9
ENDBRANCH   1   7
BRANCH   4  18
ATOM     18  O   UNL d   1      22.272 -18.411   0.509  0.00  0.00    -0.255 OA
BRANCH  18  19
ATOM     19  C   UNL d   1      21.394 -19.163  -0.320  0.00  0.00     0.530 C 
ATOM     20  F   UNL d   1      20.182 -18.572  -0.423  0.00  0.00    -0.144 F 
ATOM     21  F   UNL d   1      21.919 -19.325  -1.554  0.00  0.00    -0.144 F 
ATOM     22  F   UNL d   1      21.212 -20.388   0.220  0.00  0.00    -0.144 F 
ENDBRANCH  18  19
ENDBRANCH   4  18
TORSDOF 5
ENDMDL
MODEL 8
REMARK VINA RESULT:    -5.583      4.071      7.337
REMARK INTER + INTRA:          -7.647
REMARK INTER:                  -7.074
REMARK INTRA:                  -0.573
REMARK CONF_INDEPENDENT:        1.492
REMARK UNBOUND:                -0.573
REMARK  5 active torsions:
REMARK  status: ('A' for Active; 'I' for Inactive)
REMARK       I    between atoms: C_2  and  N_3 
REMARK       I    between atoms: C_2  and  N_16 
REMARK    1  A    between atoms: N_3  and  N_4 
REMARK    2  A    between atoms: N_4  and  C_5 
REMARK    3  A    between atoms: C_8  and  O_9 
REMARK    4  A    between atoms: O_9  and  C_10 
REMARK    5  A    between atoms: N_16  and  C_17 
ROOT
ATOM      1  C   UNL d   1      24.190 -16.787  -0.867  0.00  0.00     0.048 A 
ATOM      2  C   UNL d   1      24.437 -18.162  -0.823  0.00  0.00     0.034 A 
ATOM      3  C   UNL d   1      23.392 -19.100  -0.888  0.00  0.00     0.039 A 
ATOM      4  C   UNL d   1      22.058 -18.688  -0.899  0.00  0.00     0.078 A 
ATOM      5  C   UNL d   1      21.792 -17.321  -0.895  0.00  0.00     0.039 A 
ATOM      6  C   UNL d   1      22.845 -16.384  -0.857  0.00  0.00     0.034 A 
ENDROOT
BRANCH   1   7
ATOM      7  N   UNL d   1      25.275 -15.897  -0.868  0.00  0.00    -0.297 N 
ATOM      8  H   UNL d   1      25.716 -15.574  -0.011  0.00  0.00     0.187 HD
BRANCH   7   9
ATOM      9  N   UNL d   1      25.781 -15.469  -2.075  0.00  0.00    -0.251 N 
ATOM     10  C   UNL d   1      25.011 -14.878  -3.041  0.00  0.00     0.335 C 
ATOM     11  O   UNL d   1      23.877 -14.427  -2.841  0.00  0.00    -0.246 OA
ATOM     12  N   UNL d   1      25.584 -14.760  -4.287  0.00  0.00    -0.337 N 
ATOM     13  H   UNL d   1      24.989 -14.234  -4.925  0.00  0.00     0.164 HD
ATOM     14  H   UNL d   1      26.609 -15.940  -2.351  0.00  0.00     0.191 HD
BRANCH  12  15
ATOM     15  C   UNL d   1      26.841 -15.212  -4.816  0.00  0.00     0.086 A 
ATOM     16  C   UNL d   1      27.737 -14.507  -5.806  0.00  0.00     0.027 A 
ATOM     17  C   UNL d   1      28.130 -14.580  -4.362  0.00  0.00     0.027 A 
ENDBRANCH  12  15
ENDBRANCH   7   9
ENDBRANCH   1   7
BRANCH   4  18
ATOM     18  O   UNL d   1      21.131 -19.694  -0.894  0.00  0.00    -0.255 OA
BRANCH  18  19
ATOM     19  C   UNL d   1      19.917 -19.469  -0.189  0.00  0.00     0.530 C 
ATOM     20  F   UNL d   1      20.149 -19.044   1.073  0.00  0.00    -0.144 F 
ATOM     21  F   UNL d   1      19.148 -18.564  -0.832  0.00  0.00    -0.144 F 
ATOM     22  F   UNL d   1      19.224 -20.627  -0.115  0.00  0.00    -0.144 F 
ENDBRANCH  18  19
ENDBRANCH   4  18
TORSDOF 5
ENDMDL
MODEL 9
REMARK VINA RESULT:    -5.313      4.149      7.306
REMARK INTER + INTRA:          -7.568
REMARK INTER:                  -6.804
REMARK INTRA:                  -0.764
REMARK CONF_INDEPENDENT:        1.492
REMARK UNBOUND:                -0.764
REMARK  5 active torsions:
REMARK  status: ('A' for Active; 'I' for Inactive)
REMARK       I    between atoms: C_2  and  N_3 
REMARK       I    between atoms: C_2  and  N_16 
REMARK    1  A    between atoms: N_3  and  N_4 
REMARK    2  A    between atoms: N_4  and  C_5 
REMARK    3  A    between atoms: C_8  and  O_9 
REMARK    4  A    between atoms: O_9  and  C_10 
REMARK    5  A    between atoms: N_16  and  C_17 
ROOT
ATOM      1  C   UNL d   1      24.333 -17.118  -0.426  0.00  0.00     0.048 A 
ATOM      2  C   UNL d   1      23.086 -16.570  -0.738  0.00  0.00     0.034 A 
ATOM      3  C   UNL d   1      21.945 -17.377  -0.894  0.00  0.00     0.039 A 
ATOM      4  C   UNL d   1      22.039 -18.770  -0.840  0.00  0.00     0.078 A 
ATOM      5  C   UNL d   1      23.285 -19.334  -0.577  0.00  0.00     0.039 A 
ATOM      6  C   UNL d   1      24.420 -18.518  -0.395  0.00  0.00     0.034 A 
ENDROOT
BRANCH   1   7
ATOM      7  N   UNL d   1      25.422 -16.259  -0.214  0.00  0.00    -0.297 N 
ATOM      8  H   UNL d   1      25.897 -16.191   0.683  0.00  0.00     0.187 HD
BRANCH   7   9
ATOM      9  N   UNL d   1      25.886 -15.504  -1.267  0.00  0.00    -0.251 N 
ATOM     10  C   UNL d   1      26.543 -14.314  -1.101  0.00  0.00     0.335 C 
ATOM     11  O   UNL d   1      27.019 -13.931  -0.026  0.00  0.00    -0.246 OA
ATOM     12  N   UNL d   1      26.697 -13.542  -2.231  0.00  0.00    -0.337 N 
ATOM     13  H   UNL d   1      27.269 -12.720  -2.047  0.00  0.00     0.164 HD
ATOM     14  H   UNL d   1      25.404 -15.665  -2.118  0.00  0.00     0.191 HD
BRANCH  12  15
ATOM     15  C   UNL d   1      26.230 -13.706  -3.580  0.00  0.00     0.086 A 
ATOM     16  C   UNL d   1      25.893 -14.994  -4.294  0.00  0.00     0.027 A 
ATOM     17  C   UNL d   1      24.796 -14.075  -3.850  0.00  0.00     0.027 A 
ENDBRANCH  12  15
ENDBRANCH   7   9
ENDBRANCH   1   7
BRANCH   4  18
ATOM     18  O   UNL d   1      20.875 -19.448  -1.074  0.00  0.00    -0.255 OA
BRANCH  18  19
ATOM     19  C   UNL d   1      20.052 -19.750   0.046  0.00  0.00     0.530 C 
ATOM     20  F   UNL d   1      20.548 -19.215   1.184  0.00  0.00    -0.144 F 
ATOM     21  F   UNL d   1      18.793 -19.302  -0.148  0.00  0.00    -0.144 F 
ATOM     22  F   UNL d   1      19.998 -21.091   0.209  0.00  0.00    -0.144 F 
ENDBRANCH  18  19
ENDBRANCH   4  18
TORSDOF 5
ENDMDL
