MODEL 1
REMARK VINA RESULT:   -18.402      0.000      0.000
REMARK INTER + INTRA:         -20.598
REMARK INTER:                 -19.596
REMARK INTRA:                  -1.002
REMARK CONF_INDEPENDENT:        1.193
REMARK UNBOUND:                -1.002
REMARK  4 active torsions:
REMARK  status: ('A' for Active; 'I' for Inactive)
REMARK    1  A    between atoms: C_2  and  N_3 
REMARK    2  A    between atoms: C_2  and  C_12 
REMARK       I    between atoms: N_3  and  C_4 
REMARK    3  A    between atoms: C_4  and  C_6 
REMARK       I    between atoms: C_12  and  N_14 
REMARK    4  A    between atoms: N_14  and  C_15 
ROOT
ATOM      1  C   UNL d   1      22.670 -17.566   0.098  0.00  0.00     0.244 C 
ATOM      2  O   UNL d   1      21.721 -17.083  -0.536  0.00  0.00    -0.271 OA
ATOM      3  N   UNL d   1      22.468 -18.473   1.106  0.00  0.00    -0.323 N 
ATOM      4  H   UNL d   1      23.201 -18.575   1.802  0.00  0.00     0.169 HD
ENDROOT
BRANCH   1   5
ATOM      5  C   UNL d   1      24.131 -17.105  -0.185  0.00  0.00     0.173 C 
ATOM      6  C   UNL d   1      24.932 -18.402  -0.395  0.00  0.00     0.042 C 
BRANCH   5   7
ATOM      7  N   UNL d   1      24.283 -16.181  -1.331  0.00  0.00    -0.344 N 
ATOM      8  C   UNL d   1      25.530 -15.660  -1.660  0.00  0.00     0.252 C 
ATOM      9  O   UNL d   1      26.543 -15.846  -0.996  0.00  0.00    -0.268 OA
ATOM     10  H   UNL d   1      23.530 -16.106  -2.002  0.00  0.00     0.163 HD
BRANCH   8  11
ATOM     11  C   UNL d   1      25.651 -14.811  -2.874  0.00  0.00     0.032 A 
ATOM     12  C   UNL d   1      26.149 -15.382  -4.058  0.00  0.00     0.017 A 
ATOM     13  C   UNL d   1      26.529 -14.568  -5.128  0.00  0.00     0.001 A 
ATOM     14  C   UNL d   1      26.360 -13.187  -5.042  0.00  0.00     0.000 A 
ATOM     15  C   UNL d   1      25.830 -12.619  -3.882  0.00  0.00     0.001 A 
ATOM     16  C   UNL d   1      25.479 -13.427  -2.795  0.00  0.00     0.017 A 
ENDBRANCH   8  11
ENDBRANCH   5   7
ENDBRANCH   1   5
BRANCH   3  17
ATOM     17  C   UNL d   1      21.157 -18.965   1.428  0.00  0.00     0.064 C 
ATOM     18  C   UNL d   1      21.026 -19.341   2.796  0.00  0.00     0.032 C 
ATOM     19  C   UNL d   1      19.850 -19.905   3.258  0.00  0.00     0.003 C 
ATOM     20  C   UNL d   1      18.852 -20.172   2.343  0.00  0.00     0.013 C 
ATOM     21  C   UNL d   1      19.016 -19.905   0.975  0.00  0.00    -0.008 C 
ATOM     22  C   UNL d   1      18.095 -20.479   0.100  0.00  0.00    -0.002 C 
ATOM     23  C   UNL d   1      20.059 -19.140   0.443  0.00  0.00     0.092 C 
ATOM     24  C   UNL d   1      18.310 -20.451  -1.261  0.00  0.00     0.062 C 
ATOM     25  C   UNL d   1      18.780 -19.235  -1.613  0.00  0.00     0.100 C 
ATOM     26  N   UNL d   1      19.819 -18.719  -0.896  0.00  0.00    -0.261 NA
ENDBRANCH   3  17
TORSDOF 4
ENDMDL
MODEL 2
REMARK VINA RESULT:   -16.220      2.100      2.742
REMARK INTER + INTRA:         -18.446
REMARK INTER:                 -17.413
REMARK INTRA:                  -1.033
REMARK CONF_INDEPENDENT:        1.193
REMARK UNBOUND:                -1.033
REMARK  4 active torsions:
REMARK  status: ('A' for Active; 'I' for Inactive)
REMARK    1  A    between atoms: C_2  and  N_3 
REMARK    2  A    between atoms: C_2  and  C_12 
REMARK       I    between atoms: N_3  and  C_4 
REMARK    3  A    between atoms: C_4  and  C_6 
REMARK       I    between atoms: C_12  and  N_14 
REMARK    4  A    between atoms: N_14  and  C_15 
ROOT
ATOM      1  C   UNL d   1      23.032 -17.526  -0.155  0.00  0.00     0.244 C 
ATOM      2  O   UNL d   1      22.189 -16.623  -0.256  0.00  0.00    -0.271 OA
ATOM      3  N   UNL d   1      22.755 -18.692   0.510  0.00  0.00    -0.323 N 
ATOM      4  H   UNL d   1      23.540 -19.234   0.860  0.00  0.00     0.169 HD
ENDROOT
BRANCH   1   5
ATOM      5  C   UNL d   1      24.470 -17.337  -0.726  0.00  0.00     0.173 C 
ATOM      6  C   UNL d   1      24.317 -17.442  -2.253  0.00  0.00     0.042 C 
BRANCH   5   7
ATOM      7  N   UNL d   1      25.136 -16.076  -0.332  0.00  0.00    -0.344 N 
ATOM      8  C   UNL d   1      26.502 -16.049  -0.068  0.00  0.00     0.252 C 
ATOM      9  O   UNL d   1      27.212 -17.047  -0.050  0.00  0.00    -0.268 OA
ATOM     10  H   UNL d   1      24.649 -15.201  -0.473  0.00  0.00     0.163 HD
BRANCH   8  11
ATOM     11  C   UNL d   1      27.145 -14.743   0.233  0.00  0.00     0.032 A 
ATOM     12  C   UNL d   1      27.722 -14.544   1.499  0.00  0.00     0.017 A 
ATOM     13  C   UNL d   1      28.089 -13.260   1.912  0.00  0.00     0.001 A 
ATOM     14  C   UNL d   1      27.935 -12.182   1.043  0.00  0.00     0.000 A 
ATOM     15  C   UNL d   1      27.399 -12.383  -0.230  0.00  0.00     0.001 A 
ATOM     16  C   UNL d   1      26.998 -13.660  -0.637  0.00  0.00     0.017 A 
ENDBRANCH   8  11
ENDBRANCH   5   7
ENDBRANCH   1   5
BRANCH   3  17
ATOM     17  C   UNL d   1      21.453 -18.959   1.057  0.00  0.00     0.064 C 
ATOM     18  C   UNL d   1      21.438 -18.951   2.481  0.00  0.00     0.032 C 
ATOM     19  C   UNL d   1      20.280 -19.262   3.171  0.00  0.00     0.003 C 
ATOM     20  C   UNL d   1      19.177 -19.666   2.445  0.00  0.00     0.013 C 
ATOM     21  C   UNL d   1      19.219 -19.781   1.047  0.00  0.00    -0.008 C 
ATOM     22  C   UNL d   1      18.176 -20.476   0.436  0.00  0.00    -0.002 C 
ATOM     23  C   UNL d   1      20.251 -19.283   0.247  0.00  0.00     0.092 C 
ATOM     24  C   UNL d   1      18.252 -20.825  -0.896  0.00  0.00     0.062 C 
ATOM     25  C   UNL d   1      18.765 -19.793  -1.598  0.00  0.00     0.100 C 
ATOM     26  N   UNL d   1      19.905 -19.206  -1.132  0.00  0.00    -0.261 NA
ENDBRANCH   3  17
TORSDOF 4
ENDMDL
