MODEL 1
REMARK VINA RESULT:    -8.202      0.000      0.000
REMARK INTER + INTRA:         -11.829
REMARK INTER:                  -9.694
REMARK INTRA:                  -2.136
REMARK CONF_INDEPENDENT:        1.492
REMARK UNBOUND:                -2.136
REMARK  5 active torsions:
REMARK  status: ('A' for Active; 'I' for Inactive)
REMARK    1  A    between atoms: CA_2  and  C_3 
REMARK    2  A    between atoms: CA_2  and  N_5 
REMARK    3  A    between atoms: C_3  and  O_4 
REMARK       I    between atoms: N_5  and  C_6 
REMARK    4  A    between atoms: C_6  and  C_8 
REMARK       I    between atoms: C_8  and  N_10 
REMARK    5  A    between atoms: N_10  and  C_11 
ROOT
ATOM      1  C   UNK d   0      23.369 -18.357  -0.469  0.00  0.00     0.314 C 
ATOM      2  O   UNK d   0      24.075 -19.310  -0.149  0.00  0.00    -0.262 OA
ATOM      3  N   UNK d   0      23.795 -17.076  -0.822  0.00  0.00    -0.318 N 
ATOM      4  H   UNK d   0      23.083 -16.352  -0.859  0.00  0.00     0.169 HD
ENDROOT
BRANCH   3   5
ATOM      5  C   UNK d   0      25.166 -16.701  -0.916  0.00  0.00     0.046 A 
ATOM      6  C   UNK d   0      26.091 -17.321  -0.067  0.00  0.00     0.030 A 
ATOM      7  C   UNK d   0      27.442 -16.986  -0.104  0.00  0.00     0.003 A 
ATOM      8  C   UNK d   0      27.894 -16.012  -0.986  0.00  0.00     0.012 A 
ATOM      9  C   UNK d   0      27.009 -15.393  -1.877  0.00  0.00    -0.024 A 
ATOM     10  C   UNK d   0      27.499 -14.425  -2.772  0.00  0.00     0.012 A 
ATOM     11  C   UNK d   0      25.625 -15.737  -1.865  0.00  0.00     0.001 A 
ATOM     12  C   UNK d   0      26.645 -13.776  -3.660  0.00  0.00     0.001 A 
ATOM     13  C   UNK d   0      25.291 -14.085  -3.656  0.00  0.00     0.001 A 
ATOM     14  C   UNK d   0      24.787 -15.045  -2.770  0.00  0.00     0.014 A 
ENDBRANCH   3   5
BRANCH   1  15
ATOM     15  C   UNK d   0      21.831 -18.549  -0.418  0.00  0.00     0.310 C 
ATOM     16  N   ALA d   1      21.394 -19.716   0.201  0.00  0.00    -0.347 N 
ATOM     17  H   ALA d   1      22.114 -20.344   0.555  0.00  0.00     0.163 HD
ATOM     18  O   UNK d   0      21.100 -17.687  -0.895  0.00  0.00    -0.262 OA
BRANCH  16  19
ATOM     19  CA  ALA d   1      19.977 -20.059   0.357  0.00  0.00     0.104 C 
ATOM     20  CB  ALA d   1      19.345 -19.398   1.590  0.00  0.00     0.034 C 
BRANCH  19  21
ATOM     21  C   ALA d   1      19.155 -19.686  -0.894  0.00  0.00     0.189 C 
BRANCH  21  22
ATOM     22  O   ALA d   1      19.954 -19.700  -2.074  0.00  0.00    -0.399 OA
ATOM     23  H   ALA d   1      20.279 -18.793  -2.211  0.00  0.00     0.209 HD
ENDBRANCH  21  22
ENDBRANCH  19  21
ENDBRANCH  16  19
ENDBRANCH   1  15
TORSDOF 5
ENDMDL
MODEL 2
REMARK VINA RESULT:    -7.101      1.112      2.637
REMARK INTER + INTRA:         -10.959
REMARK INTER:                  -8.593
REMARK INTRA:                  -2.366
REMARK CONF_INDEPENDENT:        1.492
REMARK UNBOUND:                -2.366
REMARK  5 active torsions:
REMARK  status: ('A' for Active; 'I' for Inactive)
REMARK    1  A    between atoms: CA_2  and  C_3 
REMARK    2  A    between atoms: CA_2  and  N_5 
REMARK    3  A    between atoms: C_3  and  O_4 
REMARK       I    between atoms: N_5  and  C_6 
REMARK    4  A    between atoms: C_6  and  C_8 
REMARK       I    between atoms: C_8  and  N_10 
REMARK    5  A    between atoms: N_10  and  C_11 
ROOT
ATOM      1  C   UNK d   0      23.266 -17.240  -0.789  0.00  0.00     0.314 C 
ATOM      2  O   UNK d   0      23.035 -16.396   0.074  0.00  0.00    -0.262 OA
ATOM      3  N   UNK d   0      24.223 -17.168  -1.801  0.00  0.00    -0.318 N 
ATOM      4  H   UNK d   0      24.147 -17.850  -2.550  0.00  0.00     0.169 HD
ENDROOT
BRANCH   3   5
ATOM      5  C   UNK d   0      25.138 -16.085  -1.944  0.00  0.00     0.046 A 
ATOM      6  C   UNK d   0      24.782 -15.011  -2.768  0.00  0.00     0.030 A 
ATOM      7  C   UNK d   0      25.641 -13.931  -2.957  0.00  0.00     0.003 A 
ATOM      8  C   UNK d   0      26.881 -13.910  -2.331  0.00  0.00     0.012 A 
ATOM      9  C   UNK d   0      27.261 -14.946  -1.470  0.00  0.00    -0.024 A 
ATOM     10  C   UNK d   0      28.515 -14.888  -0.836  0.00  0.00     0.012 A 
ATOM     11  C   UNK d   0      26.387 -16.052  -1.252  0.00  0.00     0.001 A 
ATOM     12  C   UNK d   0      28.933 -15.909   0.013  0.00  0.00     0.001 A 
ATOM     13  C   UNK d   0      28.104 -17.002   0.230  0.00  0.00     0.001 A 
ATOM     14  C   UNK d   0      26.854 -17.076  -0.397  0.00  0.00     0.014 A 
ENDBRANCH   3   5
BRANCH   1  15
ATOM     15  C   UNK d   0      22.365 -18.502  -0.822  0.00  0.00     0.310 C 
ATOM     16  N   ALA d   1      21.461 -18.619   0.229  0.00  0.00    -0.347 N 
ATOM     17  H   ALA d   1      21.475 -17.880   0.930  0.00  0.00     0.163 HD
ATOM     18  O   UNK d   0      22.477 -19.298  -1.748  0.00  0.00    -0.262 OA
BRANCH  16  19
ATOM     19  CA  ALA d   1      20.518 -19.735   0.355  0.00  0.00     0.104 C 
ATOM     20  CB  ALA d   1      19.904 -19.830   1.760  0.00  0.00     0.034 C 
BRANCH  19  21
ATOM     21  C   ALA d   1      19.385 -19.652  -0.688  0.00  0.00     0.189 C 
BRANCH  21  22
ATOM     22  O   ALA d   1      19.889 -19.700  -2.020  0.00  0.00    -0.399 OA
ATOM     23  H   ALA d   1      20.781 -19.311  -2.003  0.00  0.00     0.209 HD
ENDBRANCH  21  22
ENDBRANCH  19  21
ENDBRANCH  16  19
ENDBRANCH   1  15
TORSDOF 5
ENDMDL
MODEL 3
REMARK VINA RESULT:    -7.043      1.545      3.243
REMARK INTER + INTRA:         -10.029
REMARK INTER:                  -8.535
REMARK INTRA:                  -1.494
REMARK CONF_INDEPENDENT:        1.492
REMARK UNBOUND:                -1.494
REMARK  5 active torsions:
REMARK  status: ('A' for Active; 'I' for Inactive)
REMARK    1  A    between atoms: CA_2  and  C_3 
REMARK    2  A    between atoms: CA_2  and  N_5 
REMARK    3  A    between atoms: C_3  and  O_4 
REMARK       I    between atoms: N_5  and  C_6 
REMARK    4  A    between atoms: C_6  and  C_8 
REMARK       I    between atoms: C_8  and  N_10 
REMARK    5  A    between atoms: N_10  and  C_11 
ROOT
ATOM      1  C   UNK d   0      22.254 -18.711  -1.073  0.00  0.00     0.314 C 
ATOM      2  O   UNK d   0      23.096 -19.536  -1.419  0.00  0.00    -0.262 OA
ATOM      3  N   UNK d   0      22.443 -17.340  -0.898  0.00  0.00    -0.318 N 
ATOM      4  H   UNK d   0      21.705 -16.835  -0.415  0.00  0.00     0.169 HD
ENDROOT
BRANCH   3   5
ATOM      5  C   UNK d   0      23.676 -16.675  -1.160  0.00  0.00     0.046 A 
ATOM      6  C   UNK d   0      23.671 -15.563  -2.011  0.00  0.00     0.030 A 
ATOM      7  C   UNK d   0      24.847 -14.882  -2.315  0.00  0.00     0.003 A 
ATOM      8  C   UNK d   0      26.057 -15.308  -1.780  0.00  0.00     0.012 A 
ATOM      9  C   UNK d   0      26.101 -16.394  -0.897  0.00  0.00    -0.024 A 
ATOM     10  C   UNK d   0      27.338 -16.790  -0.357  0.00  0.00     0.012 A 
ATOM     11  C   UNK d   0      24.904 -17.093  -0.561  0.00  0.00     0.001 A 
ATOM     12  C   UNK d   0      27.422 -17.876   0.511  0.00  0.00     0.001 A 
ATOM     13  C   UNK d   0      26.271 -18.579   0.842  0.00  0.00     0.001 A 
ATOM     14  C   UNK d   0      25.033 -18.198   0.310  0.00  0.00     0.014 A 
ENDBRANCH   3   5
BRANCH   1  15
ATOM     15  C   UNK d   0      20.836 -19.231  -0.722  0.00  0.00     0.310 C 
ATOM     16  N   ALA d   1      20.627 -19.539   0.619  0.00  0.00    -0.347 N 
ATOM     17  H   ALA d   1      21.418 -19.410   1.247  0.00  0.00     0.163 HD
ATOM     18  O   UNK d   0      19.992 -19.326  -1.607  0.00  0.00    -0.262 OA
BRANCH  16  19
ATOM     19  CA  ALA d   1      19.346 -20.028   1.139  0.00  0.00     0.104 C 
ATOM     20  CB  ALA d   1      18.789 -21.201   0.320  0.00  0.00     0.034 C 
BRANCH  19  21
ATOM     21  C   ALA d   1      19.450 -20.448   2.620  0.00  0.00     0.189 C 
BRANCH  21  22
ATOM     22  O   ALA d   1      20.643 -19.957   3.225  0.00  0.00    -0.399 OA
ATOM     23  H   ALA d   1      20.485 -19.927   4.186  0.00  0.00     0.209 HD
ENDBRANCH  21  22
ENDBRANCH  19  21
ENDBRANCH  16  19
ENDBRANCH   1  15
TORSDOF 5
ENDMDL
MODEL 4
REMARK VINA RESULT:    -6.397     10.816     13.494
REMARK INTER + INTRA:          -9.399
REMARK INTER:                  -7.888
REMARK INTRA:                  -1.511
REMARK CONF_INDEPENDENT:        1.492
REMARK UNBOUND:                -1.511
REMARK  5 active torsions:
REMARK  status: ('A' for Active; 'I' for Inactive)
REMARK    1  A    between atoms: CA_2  and  C_3 
REMARK    2  A    between atoms: CA_2  and  N_5 
REMARK    3  A    between atoms: C_3  and  O_4 
REMARK       I    between atoms: N_5  and  C_6 
REMARK    4  A    between atoms: C_6  and  C_8 
REMARK       I    between atoms: C_8  and  N_10 
REMARK    5  A    between atoms: N_10  and  C_11 
ROOT
ATOM      1  C   UNK d   0      32.472 -21.401   5.432  0.00  0.00     0.314 C 
ATOM      2  O   UNK d   0      31.660 -21.348   6.352  0.00  0.00    -0.262 OA
ATOM      3  N   UNK d   0      33.804 -21.810   5.507  0.00  0.00    -0.318 N 
ATOM      4  H   UNK d   0      34.392 -21.600   4.706  0.00  0.00     0.169 HD
ENDROOT
BRANCH   3   5
ATOM      5  C   UNK d   0      34.411 -22.296   6.701  0.00  0.00     0.046 A 
ATOM      6  C   UNK d   0      34.344 -23.668   6.977  0.00  0.00     0.030 A 
ATOM      7  C   UNK d   0      34.906 -24.199   8.135  0.00  0.00     0.003 A 
ATOM      8  C   UNK d   0      35.539 -23.364   9.048  0.00  0.00     0.012 A 
ATOM      9  C   UNK d   0      35.660 -21.992   8.793  0.00  0.00    -0.024 A 
ATOM     10  C   UNK d   0      36.323 -21.176   9.727  0.00  0.00     0.012 A 
ATOM     11  C   UNK d   0      35.104 -21.434   7.604  0.00  0.00     0.001 A 
ATOM     12  C   UNK d   0      36.446 -19.805   9.515  0.00  0.00     0.001 A 
ATOM     13  C   UNK d   0      35.902 -19.237   8.370  0.00  0.00     0.001 A 
ATOM     14  C   UNK d   0      35.236 -20.037   7.433  0.00  0.00     0.014 A 
ENDBRANCH   3   5
BRANCH   1  15
ATOM     15  C   UNK d   0      32.016 -20.898   4.037  0.00  0.00     0.310 C 
ATOM     16  N   ALA d   1      32.185 -21.800   2.991  0.00  0.00    -0.347 N 
ATOM     17  H   ALA d   1      32.601 -22.700   3.225  0.00  0.00     0.163 HD
ATOM     18  O   UNK d   0      31.530 -19.777   3.930  0.00  0.00    -0.262 OA
BRANCH  16  19
ATOM     19  CA  ALA d   1      31.796 -21.506   1.608  0.00  0.00     0.104 C 
ATOM     20  CB  ALA d   1      32.689 -22.219   0.583  0.00  0.00     0.034 C 
BRANCH  19  21
ATOM     21  C   ALA d   1      30.322 -21.871   1.336  0.00  0.00     0.189 C 
BRANCH  21  22
ATOM     22  O   ALA d   1      29.504 -21.653   2.482  0.00  0.00    -0.399 OA
ATOM     23  H   ALA d   1      29.806 -20.826   2.897  0.00  0.00     0.209 HD
ENDBRANCH  21  22
ENDBRANCH  19  21
ENDBRANCH  16  19
ENDBRANCH   1  15
TORSDOF 5
ENDMDL
MODEL 5
REMARK VINA RESULT:    -6.059      3.917      7.278
REMARK INTER + INTRA:          -9.915
REMARK INTER:                  -7.550
REMARK INTRA:                  -2.365
REMARK CONF_INDEPENDENT:        1.492
REMARK UNBOUND:                -2.365
REMARK  5 active torsions:
REMARK  status: ('A' for Active; 'I' for Inactive)
REMARK    1  A    between atoms: CA_2  and  C_3 
REMARK    2  A    between atoms: CA_2  and  N_5 
REMARK    3  A    between atoms: C_3  and  O_4 
REMARK       I    between atoms: N_5  and  C_6 
REMARK    4  A    between atoms: C_6  and  C_8 
REMARK       I    between atoms: C_8  and  N_10 
REMARK    5  A    between atoms: N_10  and  C_11 
ROOT
ATOM      1  C   UNK d   0      25.886 -13.670  -2.381  0.00  0.00     0.314 C 
ATOM      2  O   UNK d   0      26.493 -13.228  -1.408  0.00  0.00    -0.262 OA
ATOM      3  N   UNK d   0      25.525 -14.997  -2.616  0.00  0.00    -0.318 N 
ATOM      4  H   UNK d   0      25.212 -15.226  -3.555  0.00  0.00     0.169 HD
ENDROOT
BRANCH   3   5
ATOM      5  C   UNK d   0      25.774 -16.055  -1.694  0.00  0.00     0.046 A 
ATOM      6  C   UNK d   0      27.102 -16.386  -1.397  0.00  0.00     0.030 A 
ATOM      7  C   UNK d   0      27.407 -17.420  -0.515  0.00  0.00     0.003 A 
ATOM      8  C   UNK d   0      26.386 -18.151   0.081  0.00  0.00     0.012 A 
ATOM      9  C   UNK d   0      25.045 -17.829  -0.161  0.00  0.00    -0.024 A 
ATOM     10  C   UNK d   0      24.034 -18.575   0.471  0.00  0.00     0.012 A 
ATOM     11  C   UNK d   0      24.715 -16.763  -1.049  0.00  0.00     0.001 A 
ATOM     12  C   UNK d   0      22.690 -18.294   0.240  0.00  0.00     0.001 A 
ATOM     13  C   UNK d   0      22.345 -17.269  -0.631  0.00  0.00     0.001 A 
ATOM     14  C   UNK d   0      23.340 -16.519  -1.270  0.00  0.00     0.014 A 
ENDBRANCH   3   5
BRANCH   1  15
ATOM     15  C   UNK d   0      25.529 -12.678  -3.519  0.00  0.00     0.310 C 
ATOM     16  N   ALA d   1      25.851 -11.347  -3.276  0.00  0.00    -0.347 N 
ATOM     17  H   ALA d   1      26.278 -11.136  -2.376  0.00  0.00     0.163 HD
ATOM     18  O   UNK d   0      25.014 -13.103  -4.549  0.00  0.00    -0.262 OA
BRANCH  16  19
ATOM     19  CA  ALA d   1      25.603 -10.273  -4.243  0.00  0.00     0.104 C 
ATOM     20  CB  ALA d   1      26.174  -8.924  -3.781  0.00  0.00     0.034 C 
BRANCH  19  21
ATOM     21  C   ALA d   1      26.170 -10.612  -5.637  0.00  0.00     0.189 C 
BRANCH  21  22
ATOM     22  O   ALA d   1      25.155 -11.081  -6.520  0.00  0.00    -0.399 OA
ATOM     23  H   ALA d   1      24.512 -11.575  -5.981  0.00  0.00     0.209 HD
ENDBRANCH  21  22
ENDBRANCH  19  21
ENDBRANCH  16  19
ENDBRANCH   1  15
TORSDOF 5
ENDMDL
MODEL 6
REMARK VINA RESULT:    -5.758      3.944      7.494
REMARK INTER + INTRA:          -9.628
REMARK INTER:                  -7.250
REMARK INTRA:                  -2.378
REMARK CONF_INDEPENDENT:        1.492
REMARK UNBOUND:                -2.378
REMARK  5 active torsions:
REMARK  status: ('A' for Active; 'I' for Inactive)
REMARK    1  A    between atoms: CA_2  and  C_3 
REMARK    2  A    between atoms: CA_2  and  N_5 
REMARK    3  A    between atoms: C_3  and  O_4 
REMARK       I    between atoms: N_5  and  C_6 
REMARK    4  A    between atoms: C_6  and  C_8 
REMARK       I    between atoms: C_8  and  N_10 
REMARK    5  A    between atoms: N_10  and  C_11 
ROOT
ATOM      1  C   UNK d   0      25.547 -14.302  -3.586  0.00  0.00     0.314 C 
ATOM      2  O   UNK d   0      25.491 -15.206  -4.416  0.00  0.00    -0.262 OA
ATOM      3  N   UNK d   0      25.250 -14.390  -2.225  0.00  0.00    -0.318 N 
ATOM      4  H   UNK d   0      25.148 -13.513  -1.723  0.00  0.00     0.169 HD
ENDROOT
BRANCH   3   5
ATOM      5  C   UNK d   0      24.880 -15.604  -1.578  0.00  0.00     0.046 A 
ATOM      6  C   UNK d   0      23.524 -15.951  -1.526  0.00  0.00     0.030 A 
ATOM      7  C   UNK d   0      23.101 -17.118  -0.895  0.00  0.00     0.003 A 
ATOM      8  C   UNK d   0      24.029 -17.959  -0.292  0.00  0.00     0.012 A 
ATOM      9  C   UNK d   0      25.398 -17.668  -0.351  0.00  0.00    -0.024 A 
ATOM     10  C   UNK d   0      26.314 -18.547   0.253  0.00  0.00     0.012 A 
ATOM     11  C   UNK d   0      25.849 -16.485  -1.008  0.00  0.00     0.001 A 
ATOM     12  C   UNK d   0      27.681 -18.281   0.228  0.00  0.00     0.001 A 
ATOM     13  C   UNK d   0      28.142 -17.128  -0.395  0.00  0.00     0.001 A 
ATOM     14  C   UNK d   0      27.242 -16.241  -0.998  0.00  0.00     0.014 A 
ENDBRANCH   3   5
BRANCH   1  15
ATOM     15  C   UNK d   0      25.918 -12.883  -4.089  0.00  0.00     0.310 C 
ATOM     16  N   ALA d   1      26.464 -12.825  -5.367  0.00  0.00    -0.347 N 
ATOM     17  H   ALA d   1      26.584 -13.711  -5.855  0.00  0.00     0.163 HD
ATOM     18  O   UNK d   0      25.704 -11.913  -3.368  0.00  0.00    -0.262 OA
BRANCH  16  19
ATOM     19  CA  ALA d   1      26.860 -11.570  -6.013  0.00  0.00     0.104 C 
ATOM     20  CB  ALA d   1      27.724 -11.799  -7.262  0.00  0.00     0.034 C 
BRANCH  19  21
ATOM     21  C   ALA d   1      25.637 -10.710  -6.395  0.00  0.00     0.189 C 
BRANCH  21  22
ATOM     22  O   ALA d   1      25.160  -9.949  -5.289  0.00  0.00    -0.399 OA
ATOM     23  H   ALA d   1      24.781 -10.578  -4.650  0.00  0.00     0.209 HD
ENDBRANCH  21  22
ENDBRANCH  19  21
ENDBRANCH  16  19
ENDBRANCH   1  15
TORSDOF 5
ENDMDL
MODEL 7
REMARK VINA RESULT:    -5.737      3.870      7.164
REMARK INTER + INTRA:          -9.629
REMARK INTER:                  -7.228
REMARK INTRA:                  -2.401
REMARK CONF_INDEPENDENT:        1.492
REMARK UNBOUND:                -2.401
REMARK  5 active torsions:
REMARK  status: ('A' for Active; 'I' for Inactive)
REMARK    1  A    between atoms: CA_2  and  C_3 
REMARK    2  A    between atoms: CA_2  and  N_5 
REMARK    3  A    between atoms: C_3  and  O_4 
REMARK       I    between atoms: N_5  and  C_6 
REMARK    4  A    between atoms: C_6  and  C_8 
REMARK       I    between atoms: C_8  and  N_10 
REMARK    5  A    between atoms: N_10  and  C_11 
ROOT
ATOM      1  C   UNK d   0      25.875 -14.533  -3.091  0.00  0.00     0.314 C 
ATOM      2  O   UNK d   0      25.171 -15.282  -3.763  0.00  0.00    -0.262 OA
ATOM      3  N   UNK d   0      26.421 -14.794  -1.834  0.00  0.00    -0.318 N 
ATOM      4  H   UNK d   0      26.804 -14.001  -1.328  0.00  0.00     0.169 HD
ENDROOT
BRANCH   3   5
ATOM      5  C   UNK d   0      26.276 -16.039  -1.157  0.00  0.00     0.046 A 
ATOM      6  C   UNK d   0      27.430 -16.726  -0.761  0.00  0.00     0.030 A 
ATOM      7  C   UNK d   0      27.351 -17.954  -0.108  0.00  0.00     0.003 A 
ATOM      8  C   UNK d   0      26.111 -18.525   0.153  0.00  0.00     0.012 A 
ATOM      9  C   UNK d   0      24.931 -17.855  -0.194  0.00  0.00    -0.024 A 
ATOM     10  C   UNK d   0      23.691 -18.449   0.101  0.00  0.00     0.012 A 
ATOM     11  C   UNK d   0      24.994 -16.589  -0.848  0.00  0.00     0.001 A 
ATOM     12  C   UNK d   0      22.498 -17.819  -0.245  0.00  0.00     0.001 A 
ATOM     13  C   UNK d   0      22.535 -16.592  -0.895  0.00  0.00     0.001 A 
ATOM     14  C   UNK d   0      23.762 -15.989  -1.197  0.00  0.00     0.014 A 
ENDBRANCH   3   5
BRANCH   1  15
ATOM     15  C   UNK d   0      26.146 -13.109  -3.644  0.00  0.00     0.310 C 
ATOM     16  N   ALA d   1      25.507 -12.800  -4.840  0.00  0.00    -0.347 N 
ATOM     17  H   ALA d   1      24.930 -13.531  -5.253  0.00  0.00     0.163 HD
ATOM     18  O   UNK d   0      26.872 -12.346  -3.014  0.00  0.00    -0.262 OA
BRANCH  16  19
ATOM     19  CA  ALA d   1      25.632 -11.498  -5.503  0.00  0.00     0.104 C 
ATOM     20  CB  ALA d   1      25.531 -10.325  -4.517  0.00  0.00     0.034 C 
BRANCH  19  21
ATOM     21  C   ALA d   1      26.950 -11.381  -6.295  0.00  0.00     0.189 C 
BRANCH  21  22
ATOM     22  O   ALA d   1      28.082 -11.689  -5.486  0.00  0.00    -0.399 OA
ATOM     23  H   ALA d   1      27.792 -11.640  -4.557  0.00  0.00     0.209 HD
ENDBRANCH  21  22
ENDBRANCH  19  21
ENDBRANCH  16  19
ENDBRANCH   1  15
TORSDOF 5
ENDMDL
MODEL 8
REMARK VINA RESULT:    -5.689      3.948      7.560
REMARK INTER + INTRA:          -9.460
REMARK INTER:                  -7.180
REMARK INTRA:                  -2.280
REMARK CONF_INDEPENDENT:        1.492
REMARK UNBOUND:                -2.280
REMARK  5 active torsions:
REMARK  status: ('A' for Active; 'I' for Inactive)
REMARK    1  A    between atoms: CA_2  and  C_3 
REMARK    2  A    between atoms: CA_2  and  N_5 
REMARK    3  A    between atoms: C_3  and  O_4 
REMARK       I    between atoms: N_5  and  C_6 
REMARK    4  A    between atoms: C_6  and  C_8 
REMARK       I    between atoms: C_8  and  N_10 
REMARK    5  A    between atoms: N_10  and  C_11 
ROOT
ATOM      1  C   UNK d   0      25.618 -14.587  -3.814  0.00  0.00     0.314 C 
ATOM      2  O   UNK d   0      25.573 -15.571  -4.548  0.00  0.00    -0.262 OA
ATOM      3  N   UNK d   0      25.245 -14.520  -2.471  0.00  0.00    -0.318 N 
ATOM      4  H   UNK d   0      25.149 -13.592  -2.069  0.00  0.00     0.169 HD
ENDROOT
BRANCH   3   5
ATOM      5  C   UNK d   0      24.795 -15.647  -1.724  0.00  0.00     0.046 A 
ATOM      6  C   UNK d   0      23.417 -15.874  -1.618  0.00  0.00     0.030 A 
ATOM      7  C   UNK d   0      22.917 -16.950  -0.889  0.00  0.00     0.003 A 
ATOM      8  C   UNK d   0      23.788 -17.817  -0.241  0.00  0.00     0.012 A 
ATOM      9  C   UNK d   0      25.174 -17.646  -0.350  0.00  0.00    -0.024 A 
ATOM     10  C   UNK d   0      26.031 -18.550   0.302  0.00  0.00     0.012 A 
ATOM     11  C   UNK d   0      25.703 -16.559  -1.106  0.00  0.00     0.001 A 
ATOM     12  C   UNK d   0      27.414 -18.401   0.230  0.00  0.00     0.001 A 
ATOM     13  C   UNK d   0      27.952 -17.342  -0.490  0.00  0.00     0.001 A 
ATOM     14  C   UNK d   0      27.111 -16.432  -1.143  0.00  0.00     0.014 A 
ENDBRANCH   3   5
BRANCH   1  15
ATOM     15  C   UNK d   0      26.070 -13.241  -4.439  0.00  0.00     0.310 C 
ATOM     16  N   ALA d   1      26.895 -13.347  -5.554  0.00  0.00    -0.347 N 
ATOM     17  H   ALA d   1      27.140 -14.289  -5.856  0.00  0.00     0.163 HD
ATOM     18  O   UNK d   0      25.679 -12.187  -3.949  0.00  0.00    -0.262 OA
BRANCH  16  19
ATOM     19  CA  ALA d   1      27.407 -12.184  -6.286  0.00  0.00     0.104 C 
ATOM     20  CB  ALA d   1      28.210 -11.231  -5.389  0.00  0.00     0.034 C 
BRANCH  19  21
ATOM     21  C   ALA d   1      28.278 -12.600  -7.490  0.00  0.00     0.189 C 
BRANCH  21  22
ATOM     22  O   ALA d   1      28.566 -13.996  -7.475  0.00  0.00    -0.399 OA
ATOM     23  H   ALA d   1      28.536 -14.304  -8.398  0.00  0.00     0.209 HD
ENDBRANCH  21  22
ENDBRANCH  19  21
ENDBRANCH  16  19
ENDBRANCH   1  15
TORSDOF 5
ENDMDL
MODEL 9
REMARK VINA RESULT:    -5.414      4.674      7.536
REMARK INTER + INTRA:          -9.293
REMARK INTER:                  -6.905
REMARK INTRA:                  -2.388
REMARK CONF_INDEPENDENT:        1.492
REMARK UNBOUND:                -2.388
REMARK  5 active torsions:
REMARK  status: ('A' for Active; 'I' for Inactive)
REMARK    1  A    between atoms: CA_2  and  C_3 
REMARK    2  A    between atoms: CA_2  and  N_5 
REMARK    3  A    between atoms: C_3  and  O_4 
REMARK       I    between atoms: N_5  and  C_6 
REMARK    4  A    between atoms: C_6  and  C_8 
REMARK       I    between atoms: C_8  and  N_10 
REMARK    5  A    between atoms: N_10  and  C_11 
ROOT
ATOM      1  C   UNK d   0      27.311 -13.999   1.679  0.00  0.00     0.314 C 
ATOM      2  O   UNK d   0      26.289 -13.327   1.791  0.00  0.00    -0.262 OA
ATOM      3  N   UNK d   0      27.629 -14.881   0.646  0.00  0.00    -0.318 N 
ATOM      4  H   UNK d   0      28.412 -15.508   0.805  0.00  0.00     0.169 HD
ENDROOT
BRANCH   3   5
ATOM      5  C   UNK d   0      26.800 -15.088  -0.495  0.00  0.00     0.046 A 
ATOM      6  C   UNK d   0      26.871 -14.170  -1.550  0.00  0.00     0.030 A 
ATOM      7  C   UNK d   0      26.075 -14.312  -2.685  0.00  0.00     0.003 A 
ATOM      8  C   UNK d   0      25.183 -15.373  -2.781  0.00  0.00     0.012 A 
ATOM      9  C   UNK d   0      25.106 -16.333  -1.764  0.00  0.00    -0.024 A 
ATOM     10  C   UNK d   0      24.207 -17.406  -1.898  0.00  0.00     0.012 A 
ATOM     11  C   UNK d   0      25.926 -16.212  -0.603  0.00  0.00     0.001 A 
ATOM     12  C   UNK d   0      24.092 -18.369  -0.900  0.00  0.00     0.001 A 
ATOM     13  C   UNK d   0      24.871 -18.265   0.246  0.00  0.00     0.001 A 
ATOM     14  C   UNK d   0      25.769 -17.201   0.395  0.00  0.00     0.014 A 
ENDBRANCH   3   5
BRANCH   1  15
ATOM     15  C   UNK d   0      28.348 -13.932   2.830  0.00  0.00     0.310 C 
ATOM     16  N   ALA d   1      27.919 -13.285   3.985  0.00  0.00    -0.347 N 
ATOM     17  H   ALA d   1      26.974 -12.904   3.972  0.00  0.00     0.163 HD
ATOM     18  O   UNK d   0      29.450 -14.448   2.679  0.00  0.00    -0.262 OA
BRANCH  16  19
ATOM     19  CA  ALA d   1      28.755 -13.140   5.180  0.00  0.00     0.104 C 
ATOM     20  CB  ALA d   1      28.117 -12.226   6.236  0.00  0.00     0.034 C 
BRANCH  19  21
ATOM     21  C   ALA d   1      29.081 -14.504   5.823  0.00  0.00     0.189 C 
BRANCH  21  22
ATOM     22  O   ALA d   1      28.421 -15.575   5.153  0.00  0.00    -0.399 OA
ATOM     23  H   ALA d   1      28.915 -15.747   4.332  0.00  0.00     0.209 HD
ENDBRANCH  21  22
ENDBRANCH  19  21
ENDBRANCH  16  19
ENDBRANCH   1  15
TORSDOF 5
ENDMDL
