MODEL 1
REMARK VINA RESULT:    -7.252      0.000      0.000
REMARK INTER + INTRA:         -15.133
REMARK INTER:                 -10.534
REMARK INTRA:                  -4.600
REMARK CONF_INDEPENDENT:        3.281
REMARK UNBOUND:                -4.600
REMARK  11 active torsions:
REMARK  status: ('A' for Active; 'I' for Inactive)
REMARK    1  A    between atoms: C_2  and  N_5 
REMARK       I    between atoms: N_5  and  C_6 
REMARK    2  A    between atoms: C_6  and  C_8 
REMARK    3  A    between atoms: C_8  and  C_9 
REMARK    4  A    between atoms: C_8  and  N_18 
REMARK    5  A    between atoms: C_10  and  O_11 
REMARK    6  A    between atoms: C_13  and  O_14 
REMARK    7  A    between atoms: C_16  and  O_17 
REMARK    8  A    between atoms: N_18  and  C_19 
REMARK       I    between atoms: N_18  and  C_25 
REMARK    9  A    between atoms: C_19  and  C_20 
REMARK   10  A    between atoms: C_25  and  C_27 
REMARK   11  A    between atoms: C_29  and  N_30 
ROOT
ATOM      1  C   UNL d   1      26.950 -14.662  -1.998  0.00  0.00     0.218 C 
ENDROOT
BRANCH   1   2
ATOM      2  C   UNL d   1      25.467 -15.224  -1.750  0.00  0.00     0.246 C 
ATOM      3  N   UNL d   1      25.143 -16.028  -0.664  0.00  0.00    -0.351 N 
ATOM      4  H   UNL d   1      25.246 -15.503   0.208  0.00  0.00     0.163 HD
ATOM      5  O   UNL d   1      24.519 -14.805  -2.444  0.00  0.00    -0.271 OA
BRANCH   3   6
ATOM      6  C   UNL d   1      24.092 -17.103  -0.614  0.00  0.00     0.022 C 
ATOM      7  C   UNL d   1      23.968 -17.825  -1.964  0.00  0.00     0.037 C 
ATOM      8  C   UNL d   1      22.673 -16.471  -0.522  0.00  0.00     0.037 C 
ATOM      9  C   UNL d   1      24.451 -18.195   0.405  0.00  0.00     0.037 C 
ENDBRANCH   3   6
ENDBRANCH   1   2
BRANCH   1  10
ATOM     10  C   UNL d   1      27.567 -14.653  -3.459  0.00  0.00     0.040 A 
ATOM     11  C   UNL d   1      26.868 -14.888  -4.658  0.00  0.00     0.080 A 
ATOM     12  C   UNL d   1      27.457 -14.911  -5.928  0.00  0.00     0.073 A 
ATOM     13  C   UNL d   1      28.818 -14.819  -6.061  0.00  0.00     0.071 A 
ATOM     14  C   UNL d   1      29.585 -14.685  -4.944  0.00  0.00     0.073 A 
ATOM     15  C   UNL d   1      28.966 -14.535  -3.699  0.00  0.00     0.080 A 
BRANCH  11  16
ATOM     16  O   UNL d   1      25.533 -15.067  -4.808  0.00  0.00    -0.360 OA
ATOM     17  H   UNL d   1      25.143 -14.311  -4.333  0.00  0.00     0.217 HD
ENDBRANCH  11  16
BRANCH  13  18
ATOM     18  O   UNL d   1      29.423 -14.799  -7.273  0.00  0.00    -0.361 OA
ATOM     19  H   UNL d   1      28.722 -14.834  -7.941  0.00  0.00     0.217 HD
ENDBRANCH  13  18
BRANCH  15  20
ATOM     20  O   UNL d   1      29.889 -14.094  -2.804  0.00  0.00    -0.360 OA
ATOM     21  H   UNL d   1      30.745 -14.069  -3.276  0.00  0.00     0.217 HD
ENDBRANCH  15  20
ENDBRANCH   1  10
BRANCH   1  22
ATOM     22  N   UNL d   1      27.230 -13.374  -1.238  0.00  0.00    -0.324 N 
ATOM     23  C   UNL d   1      27.080 -13.390   0.200  0.00  0.00     0.259 C 
ATOM     24  O   UNL d   1      26.692 -14.392   0.818  0.00  0.00    -0.267 OA
BRANCH  22  25
ATOM     25  C   UNL d   1      27.513 -12.057  -1.869  0.00  0.00     0.192 C 
BRANCH  25  26
ATOM     26  C   UNL d   1      26.891 -11.637  -3.147  0.00  0.00     0.070 C 
ATOM     27  C   UNL d   1      27.159 -10.651  -4.056  0.00  0.00     0.036 C 
ATOM     28  C   UNL d   1      26.246 -10.840  -5.133  0.00  0.00     0.027 C 
ATOM     29  C   UNL d   1      25.530 -11.971  -4.842  0.00  0.00     0.142 C 
ATOM     30  O   UNL d   1      25.835 -12.397  -3.597  0.00  0.00    -0.325 OA
ENDBRANCH  25  26
ENDBRANCH  22  25
BRANCH  23  31
ATOM     31  C   UNL d   1      27.580 -12.220   1.050  0.00  0.00     0.084 C 
ATOM     32  C   UNL d   1      26.678 -11.191   1.470  0.00  0.00     0.057 C 
ATOM     33  C   UNL d   1      27.157 -10.097   2.212  0.00  0.00     0.104 C 
ATOM     34  C   UNL d   1      28.498 -10.031   2.557  0.00  0.00     0.040 C 
ATOM     35  C   UNL d   1      29.358 -11.036   2.131  0.00  0.00     0.058 C 
ATOM     36  C   UNL d   1      28.972 -12.105   1.307  0.00  0.00     0.187 C 
ATOM     37  O   UNL d   1      29.882 -12.845   0.810  0.00  0.00    -0.287 OA
BRANCH  33  38
ATOM     38  N   UNL d   1      26.279  -8.993   2.637  0.00  0.00    -0.116 N 
ATOM     39  O   UNL d   1      25.209  -8.823   2.036  0.00  0.00    -0.532 OA
ATOM     40  O   UNL d   1      26.655  -8.283   3.587  0.00  0.00    -0.532 OA
ENDBRANCH  33  38
ENDBRANCH  23  31
ENDBRANCH   1  22
TORSDOF 11
ENDMDL
MODEL 2
REMARK VINA RESULT:    -7.179      2.305      4.723
REMARK INTER + INTRA:         -15.290
REMARK INTER:                 -10.460
REMARK INTRA:                  -4.830
REMARK CONF_INDEPENDENT:        3.281
REMARK UNBOUND:                -4.830
REMARK  11 active torsions:
REMARK  status: ('A' for Active; 'I' for Inactive)
REMARK    1  A    between atoms: C_2  and  N_5 
REMARK       I    between atoms: N_5  and  C_6 
REMARK    2  A    between atoms: C_6  and  C_8 
REMARK    3  A    between atoms: C_8  and  C_9 
REMARK    4  A    between atoms: C_8  and  N_18 
REMARK    5  A    between atoms: C_10  and  O_11 
REMARK    6  A    between atoms: C_13  and  O_14 
REMARK    7  A    between atoms: C_16  and  O_17 
REMARK    8  A    between atoms: N_18  and  C_19 
REMARK       I    between atoms: N_18  and  C_25 
REMARK    9  A    between atoms: C_19  and  C_20 
REMARK   10  A    between atoms: C_25  and  C_27 
REMARK   11  A    between atoms: C_29  and  N_30 
ROOT
ATOM      1  C   UNL d   1      27.211 -15.674  -1.035  0.00  0.00     0.218 C 
ENDROOT
BRANCH   1   2
ATOM      2  C   UNL d   1      28.638 -16.404  -0.944  0.00  0.00     0.246 C 
ATOM      3  N   UNL d   1      29.527 -16.182   0.101  0.00  0.00    -0.351 N 
ATOM      4  H   UNL d   1      29.133 -16.525   0.980  0.00  0.00     0.163 HD
ATOM      5  O   UNL d   1      28.914 -17.332  -1.732  0.00  0.00    -0.271 OA
BRANCH   3   6
ATOM      6  C   UNL d   1      31.030 -16.234   0.039  0.00  0.00     0.022 C 
ATOM      7  C   UNL d   1      31.658 -15.749   1.354  0.00  0.00     0.037 C 
ATOM      8  C   UNL d   1      31.571 -15.144  -0.929  0.00  0.00     0.037 C 
ATOM      9  C   UNL d   1      31.536 -17.671  -0.153  0.00  0.00     0.037 C 
ENDBRANCH   3   6
ENDBRANCH   1   2
BRANCH   1  10
ATOM     10  C   UNL d   1      25.884 -16.470  -0.691  0.00  0.00     0.040 A 
ATOM     11  C   UNL d   1      25.763 -17.527   0.231  0.00  0.00     0.080 A 
ATOM     12  C   UNL d   1      24.580 -18.233   0.478  0.00  0.00     0.073 A 
ATOM     13  C   UNL d   1      23.463 -17.999  -0.282  0.00  0.00     0.071 A 
ATOM     14  C   UNL d   1      23.516 -17.058  -1.265  0.00  0.00     0.073 A 
ATOM     15  C   UNL d   1      24.668 -16.277  -1.407  0.00  0.00     0.080 A 
BRANCH  11  16
ATOM     16  O   UNL d   1      26.719 -18.000   1.067  0.00  0.00    -0.360 OA
ATOM     17  H   UNL d   1      27.156 -17.194   1.398  0.00  0.00     0.217 HD
ENDBRANCH  11  16
BRANCH  13  18
ATOM     18  O   UNL d   1      22.288 -18.633  -0.050  0.00  0.00    -0.361 OA
ATOM     19  H   UNL d   1      22.465 -19.325   0.605  0.00  0.00     0.217 HD
ENDBRANCH  13  18
BRANCH  15  20
ATOM     20  O   UNL d   1      24.377 -15.214  -2.203  0.00  0.00    -0.360 OA
ATOM     21  H   UNL d   1      25.169 -15.055  -2.756  0.00  0.00     0.217 HD
ENDBRANCH  15  20
ENDBRANCH   1  10
BRANCH   1  22
ATOM     22  N   UNL d   1      27.224 -14.274  -0.439  0.00  0.00    -0.324 N 
ATOM     23  C   UNL d   1      27.468 -14.144   0.979  0.00  0.00     0.259 C 
ATOM     24  O   UNL d   1      27.620 -15.125   1.722  0.00  0.00    -0.267 OA
BRANCH  22  25
ATOM     25  C   UNL d   1      26.866 -13.032  -1.177  0.00  0.00     0.192 C 
BRANCH  25  26
ATOM     26  C   UNL d   1      26.361 -13.051  -2.569  0.00  0.00     0.070 C 
ATOM     27  C   UNL d   1      25.741 -12.130  -3.368  0.00  0.00     0.036 C 
ATOM     28  C   UNL d   1      25.603 -12.739  -4.648  0.00  0.00     0.027 C 
ATOM     29  C   UNL d   1      26.213 -13.963  -4.565  0.00  0.00     0.142 C 
ATOM     30  O   UNL d   1      26.577 -14.205  -3.287  0.00  0.00    -0.325 OA
ENDBRANCH  25  26
ENDBRANCH  22  25
BRANCH  23  31
ATOM     31  C   UNL d   1      27.743 -12.773   1.601  0.00  0.00     0.084 C 
ATOM     32  C   UNL d   1      26.675 -11.844   1.809  0.00  0.00     0.057 C 
ATOM     33  C   UNL d   1      26.945 -10.569   2.338  0.00  0.00     0.104 C 
ATOM     34  C   UNL d   1      28.243 -10.226   2.683  0.00  0.00     0.040 C 
ATOM     35  C   UNL d   1      29.267 -11.141   2.465  0.00  0.00     0.058 C 
ATOM     36  C   UNL d   1      29.087 -12.391   1.851  0.00  0.00     0.187 C 
ATOM     37  O   UNL d   1      30.122 -13.052   1.515  0.00  0.00    -0.287 OA
BRANCH  33  38
ATOM     38  N   UNL d   1      25.889  -9.562   2.536  0.00  0.00    -0.116 N 
ATOM     39  O   UNL d   1      24.752  -9.803   2.105  0.00  0.00    -0.532 OA
ATOM     40  O   UNL d   1      26.190  -8.513   3.135  0.00  0.00    -0.532 OA
ENDBRANCH  33  38
ENDBRANCH  23  31
ENDBRANCH   1  22
TORSDOF 11
ENDMDL
MODEL 3
REMARK VINA RESULT:    -7.178      2.334      4.602
REMARK INTER + INTRA:         -15.233
REMARK INTER:                 -10.460
REMARK INTRA:                  -4.773
REMARK CONF_INDEPENDENT:        3.281
REMARK UNBOUND:                -4.773
REMARK  11 active torsions:
REMARK  status: ('A' for Active; 'I' for Inactive)
REMARK    1  A    between atoms: C_2  and  N_5 
REMARK       I    between atoms: N_5  and  C_6 
REMARK    2  A    between atoms: C_6  and  C_8 
REMARK    3  A    between atoms: C_8  and  C_9 
REMARK    4  A    between atoms: C_8  and  N_18 
REMARK    5  A    between atoms: C_10  and  O_11 
REMARK    6  A    between atoms: C_13  and  O_14 
REMARK    7  A    between atoms: C_16  and  O_17 
REMARK    8  A    between atoms: N_18  and  C_19 
REMARK       I    between atoms: N_18  and  C_25 
REMARK    9  A    between atoms: C_19  and  C_20 
REMARK   10  A    between atoms: C_25  and  C_27 
REMARK   11  A    between atoms: C_29  and  N_30 
ROOT
ATOM      1  C   UNL d   1      27.260 -15.659  -1.037  0.00  0.00     0.218 C 
ENDROOT
BRANCH   1   2
ATOM      2  C   UNL d   1      28.703 -16.356  -0.946  0.00  0.00     0.246 C 
ATOM      3  N   UNL d   1      29.534 -16.216   0.160  0.00  0.00    -0.351 N 
ATOM      4  H   UNL d   1      29.109 -16.657   0.980  0.00  0.00     0.163 HD
ATOM      5  O   UNL d   1      29.045 -17.193  -1.806  0.00  0.00    -0.271 OA
BRANCH   3   6
ATOM      6  C   UNL d   1      31.038 -16.223   0.170  0.00  0.00     0.022 C 
ATOM      7  C   UNL d   1      31.606 -15.365  -0.971  0.00  0.00     0.037 C 
ATOM      8  C   UNL d   1      31.578 -17.618  -0.255  0.00  0.00     0.037 C 
ATOM      9  C   UNL d   1      31.595 -15.608   1.462  0.00  0.00     0.037 C 
ENDBRANCH   3   6
ENDBRANCH   1   2
BRANCH   1  10
ATOM     10  C   UNL d   1      25.945 -16.509  -0.791  0.00  0.00     0.040 A 
ATOM     11  C   UNL d   1      24.697 -16.308  -1.410  0.00  0.00     0.080 A 
ATOM     12  C   UNL d   1      23.546 -17.056  -1.136  0.00  0.00     0.073 A 
ATOM     13  C   UNL d   1      23.547 -17.983  -0.126  0.00  0.00     0.071 A 
ATOM     14  C   UNL d   1      24.687 -18.178   0.593  0.00  0.00     0.073 A 
ATOM     15  C   UNL d   1      25.859 -17.512   0.216  0.00  0.00     0.080 A 
BRANCH  11  16
ATOM     16  O   UNL d   1      24.402 -15.426  -2.395  0.00  0.00    -0.360 OA
ATOM     17  H   UNL d   1      25.218 -14.901  -2.488  0.00  0.00     0.217 HD
ENDBRANCH  11  16
BRANCH  13  18
ATOM     18  O   UNL d   1      22.467 -18.754   0.146  0.00  0.00    -0.361 OA
ATOM     19  H   UNL d   1      22.791 -19.543   0.606  0.00  0.00     0.217 HD
ENDBRANCH  13  18
BRANCH  15  20
ATOM     20  O   UNL d   1      26.913 -18.097   0.845  0.00  0.00    -0.360 OA
ATOM     21  H   UNL d   1      27.451 -17.372   1.220  0.00  0.00     0.217 HD
ENDBRANCH  15  20
ENDBRANCH   1  10
BRANCH   1  22
ATOM     22  N   UNL d   1      27.215 -14.301  -0.351  0.00  0.00    -0.324 N 
ATOM     23  C   UNL d   1      27.411 -14.259   1.081  0.00  0.00     0.259 C 
ATOM     24  O   UNL d   1      27.568 -15.283   1.762  0.00  0.00    -0.267 OA
BRANCH  22  25
ATOM     25  C   UNL d   1      26.846 -13.022  -1.016  0.00  0.00     0.192 C 
BRANCH  25  26
ATOM     26  C   UNL d   1      26.446 -12.954  -2.441  0.00  0.00     0.070 C 
ATOM     27  C   UNL d   1      26.051 -11.940  -3.270  0.00  0.00     0.036 C 
ATOM     28  C   UNL d   1      25.904 -12.515  -4.564  0.00  0.00     0.027 C 
ATOM     29  C   UNL d   1      26.289 -13.825  -4.454  0.00  0.00     0.142 C 
ATOM     30  O   UNL d   1      26.513 -14.128  -3.157  0.00  0.00    -0.325 OA
ENDBRANCH  25  26
ENDBRANCH  22  25
BRANCH  23  31
ATOM     31  C   UNL d   1      27.628 -12.926   1.799  0.00  0.00     0.084 C 
ATOM     32  C   UNL d   1      26.588 -11.944   1.837  0.00  0.00     0.057 C 
ATOM     33  C   UNL d   1      26.813 -10.704   2.460  0.00  0.00     0.104 C 
ATOM     34  C   UNL d   1      28.035 -10.446   3.061  0.00  0.00     0.040 C 
ATOM     35  C   UNL d   1      29.035 -11.410   3.006  0.00  0.00     0.058 C 
ATOM     36  C   UNL d   1      28.916 -12.628   2.318  0.00  0.00     0.187 C 
ATOM     37  O   UNL d   1      29.963 -13.337   2.159  0.00  0.00    -0.287 OA
BRANCH  33  38
ATOM     38  N   UNL d   1      25.789  -9.646   2.493  0.00  0.00    -0.116 N 
ATOM     39  O   UNL d   1      24.644  -9.916   2.105  0.00  0.00    -0.532 OA
ATOM     40  O   UNL d   1      26.125  -8.524   2.917  0.00  0.00    -0.532 OA
ENDBRANCH  33  38
ENDBRANCH  23  31
ENDBRANCH   1  22
TORSDOF 11
ENDMDL
MODEL 4
REMARK VINA RESULT:    -7.017      2.762      6.438
REMARK INTER + INTRA:         -15.075
REMARK INTER:                 -10.299
REMARK INTRA:                  -4.777
REMARK CONF_INDEPENDENT:        3.281
REMARK UNBOUND:                -4.777
REMARK  11 active torsions:
REMARK  status: ('A' for Active; 'I' for Inactive)
REMARK    1  A    between atoms: C_2  and  N_5 
REMARK       I    between atoms: N_5  and  C_6 
REMARK    2  A    between atoms: C_6  and  C_8 
REMARK    3  A    between atoms: C_8  and  C_9 
REMARK    4  A    between atoms: C_8  and  N_18 
REMARK    5  A    between atoms: C_10  and  O_11 
REMARK    6  A    between atoms: C_13  and  O_14 
REMARK    7  A    between atoms: C_16  and  O_17 
REMARK    8  A    between atoms: N_18  and  C_19 
REMARK       I    between atoms: N_18  and  C_25 
REMARK    9  A    between atoms: C_19  and  C_20 
REMARK   10  A    between atoms: C_25  and  C_27 
REMARK   11  A    between atoms: C_29  and  N_30 
ROOT
ATOM      1  C   UNL d   1      26.744 -13.298  -3.818  0.00  0.00     0.218 C 
ENDROOT
BRANCH   1   2
ATOM      2  C   UNL d   1      26.629 -11.729  -3.504  0.00  0.00     0.246 C 
ATOM      3  N   UNL d   1      25.714 -10.902  -4.146  0.00  0.00    -0.351 N 
ATOM      4  H   UNL d   1      24.759 -11.170  -3.895  0.00  0.00     0.163 HD
ATOM      5  O   UNL d   1      27.251 -11.240  -2.539  0.00  0.00    -0.271 OA
BRANCH   3   6
ATOM      6  C   UNL d   1      25.880  -9.441  -4.463  0.00  0.00     0.022 C 
ATOM      7  C   UNL d   1      24.925  -9.002  -5.583  0.00  0.00     0.037 C 
ATOM      8  C   UNL d   1      27.244  -9.189  -5.166  0.00  0.00     0.037 C 
ATOM      9  C   UNL d   1      25.529  -8.559  -3.255  0.00  0.00     0.037 C 
ENDBRANCH   3   6
ENDBRANCH   1   2
BRANCH   1  10
ATOM     10  C   UNL d   1      28.069 -13.890  -4.458  0.00  0.00     0.040 A 
ATOM     11  C   UNL d   1      29.387 -13.599  -4.060  0.00  0.00     0.080 A 
ATOM     12  C   UNL d   1      30.534 -14.111  -4.678  0.00  0.00     0.073 A 
ATOM     13  C   UNL d   1      30.428 -14.859  -5.821  0.00  0.00     0.071 A 
ATOM     14  C   UNL d   1      29.193 -15.112  -6.335  0.00  0.00     0.073 A 
ATOM     15  C   UNL d   1      28.057 -14.700  -5.630  0.00  0.00     0.080 A 
BRANCH  11  16
ATOM     16  O   UNL d   1      29.777 -12.845  -3.004  0.00  0.00    -0.360 OA
ATOM     17  H   UNL d   1      28.938 -12.587  -2.580  0.00  0.00     0.217 HD
ENDBRANCH  11  16
BRANCH  13  18
ATOM     18  O   UNL d   1      31.510 -15.405  -6.428  0.00  0.00    -0.361 OA
ATOM     19  H   UNL d   1      31.328 -15.409  -7.380  0.00  0.00     0.217 HD
ENDBRANCH  13  18
BRANCH  15  20
ATOM     20  O   UNL d   1      26.971 -15.334  -6.145  0.00  0.00    -0.360 OA
ATOM     21  H   UNL d   1      26.578 -15.852  -5.413  0.00  0.00     0.217 HD
ENDBRANCH  15  20
ENDBRANCH   1  10
BRANCH   1  22
ATOM     22  N   UNL d   1      26.200 -14.168  -2.694  0.00  0.00    -0.324 N 
ATOM     23  C   UNL d   1      25.548 -15.408  -3.052  0.00  0.00     0.259 C 
ATOM     24  O   UNL d   1      25.381 -15.757  -4.230  0.00  0.00    -0.267 OA
BRANCH  22  25
ATOM     25  C   UNL d   1      26.161 -13.779  -1.258  0.00  0.00     0.192 C 
BRANCH  25  26
ATOM     26  C   UNL d   1      27.299 -14.014  -0.339  0.00  0.00     0.070 C 
ATOM     27  C   UNL d   1      27.401 -14.416   0.964  0.00  0.00     0.036 C 
ATOM     28  C   UNL d   1      28.793 -14.546   1.235  0.00  0.00     0.027 C 
ATOM     29  C   UNL d   1      29.445 -14.285   0.059  0.00  0.00     0.142 C 
ATOM     30  O   UNL d   1      28.560 -13.857  -0.868  0.00  0.00    -0.325 OA
ENDBRANCH  25  26
ENDBRANCH  22  25
BRANCH  23  31
ATOM     31  C   UNL d   1      25.203 -16.445  -1.981  0.00  0.00     0.084 C 
ATOM     32  C   UNL d   1      23.839 -16.705  -1.637  0.00  0.00     0.057 C 
ATOM     33  C   UNL d   1      23.534 -17.627  -0.620  0.00  0.00     0.104 C 
ATOM     34  C   UNL d   1      24.556 -18.302   0.029  0.00  0.00     0.040 C 
ATOM     35  C   UNL d   1      25.875 -18.029  -0.316  0.00  0.00     0.058 C 
ATOM     36  C   UNL d   1      26.257 -17.052  -1.249  0.00  0.00     0.187 C 
ATOM     37  O   UNL d   1      27.491 -16.744  -1.330  0.00  0.00    -0.287 OA
BRANCH  33  38
ATOM     38  N   UNL d   1      22.149 -17.903  -0.200  0.00  0.00    -0.116 N 
ATOM     39  O   UNL d   1      21.964 -18.574   0.825  0.00  0.00    -0.532 OA
ATOM     40  O   UNL d   1      21.226 -17.442  -0.897  0.00  0.00    -0.532 OA
ENDBRANCH  33  38
ENDBRANCH  23  31
ENDBRANCH   1  22
TORSDOF 11
ENDMDL
MODEL 5
REMARK VINA RESULT:    -6.769      9.237     13.023
REMARK INTER + INTRA:         -14.465
REMARK INTER:                 -10.051
REMARK INTRA:                  -4.414
REMARK CONF_INDEPENDENT:        3.281
REMARK UNBOUND:                -4.414
REMARK  11 active torsions:
REMARK  status: ('A' for Active; 'I' for Inactive)
REMARK    1  A    between atoms: C_2  and  N_5 
REMARK       I    between atoms: N_5  and  C_6 
REMARK    2  A    between atoms: C_6  and  C_8 
REMARK    3  A    between atoms: C_8  and  C_9 
REMARK    4  A    between atoms: C_8  and  N_18 
REMARK    5  A    between atoms: C_10  and  O_11 
REMARK    6  A    between atoms: C_13  and  O_14 
REMARK    7  A    between atoms: C_16  and  O_17 
REMARK    8  A    between atoms: N_18  and  C_19 
REMARK       I    between atoms: N_18  and  C_25 
REMARK    9  A    between atoms: C_19  and  C_20 
REMARK   10  A    between atoms: C_25  and  C_27 
REMARK   11  A    between atoms: C_29  and  N_30 
ROOT
ATOM      1  C   UNL d   1      32.507 -21.257   1.667  0.00  0.00     0.218 C 
ENDROOT
BRANCH   1   2
ATOM      2  C   UNL d   1      32.574 -19.817   0.961  0.00  0.00     0.246 C 
ATOM      3  N   UNL d   1      31.747 -19.464  -0.098  0.00  0.00    -0.351 N 
ATOM      4  H   UNL d   1      30.772 -19.428   0.211  0.00  0.00     0.163 HD
ATOM      5  O   UNL d   1      33.263 -18.908   1.466  0.00  0.00    -0.271 OA
BRANCH   3   6
ATOM      6  C   UNL d   1      32.070 -18.520  -1.225  0.00  0.00     0.022 C 
ATOM      7  C   UNL d   1      31.032 -18.623  -2.352  0.00  0.00     0.037 C 
ATOM      8  C   UNL d   1      33.337 -19.000  -1.989  0.00  0.00     0.037 C 
ATOM      9  C   UNL d   1      32.030 -17.056  -0.762  0.00  0.00     0.037 C 
ENDBRANCH   3   6
ENDBRANCH   1   2
BRANCH   1  10
ATOM     10  C   UNL d   1      31.897 -21.405   3.124  0.00  0.00     0.040 A 
ATOM     11  C   UNL d   1      30.536 -21.573   3.442  0.00  0.00     0.080 A 
ATOM     12  C   UNL d   1      30.032 -21.659   4.745  0.00  0.00     0.073 A 
ATOM     13  C   UNL d   1      30.856 -21.459   5.821  0.00  0.00     0.071 A 
ATOM     14  C   UNL d   1      32.174 -21.194   5.606  0.00  0.00     0.073 A 
ATOM     15  C   UNL d   1      32.680 -21.240   4.302  0.00  0.00     0.080 A 
BRANCH  11  16
ATOM     16  O   UNL d   1      29.506 -21.739   2.578  0.00  0.00    -0.360 OA
ATOM     17  H   UNL d   1      29.491 -20.906   2.073  0.00  0.00     0.217 HD
ENDBRANCH  11  16
BRANCH  13  18
ATOM     18  O   UNL d   1      30.415 -21.571   7.097  0.00  0.00    -0.361 OA
ATOM     19  H   UNL d   1      30.011 -22.448   7.181  0.00  0.00     0.217 HD
ENDBRANCH  13  18
BRANCH  15  20
ATOM     20  O   UNL d   1      34.038 -21.275   4.363  0.00  0.00    -0.360 OA
ATOM     21  H   UNL d   1      34.306 -22.175   4.091  0.00  0.00     0.217 HD
ENDBRANCH  15  20
ENDBRANCH   1  10
BRANCH   1  22
ATOM     22  N   UNL d   1      32.041 -22.358   0.725  0.00  0.00    -0.324 N 
ATOM     23  C   UNL d   1      30.778 -22.178   0.046  0.00  0.00     0.259 C 
ATOM     24  O   UNL d   1      30.052 -21.192   0.239  0.00  0.00    -0.267 OA
BRANCH  22  25
ATOM     25  C   UNL d   1      32.717 -23.672   0.550  0.00  0.00     0.192 C 
BRANCH  25  26
ATOM     26  C   UNL d   1      33.856 -24.099   1.396  0.00  0.00     0.070 C 
ATOM     27  C   UNL d   1      34.534 -25.277   1.553  0.00  0.00     0.036 C 
ATOM     28  C   UNL d   1      35.602 -25.006   2.456  0.00  0.00     0.027 C 
ATOM     29  C   UNL d   1      35.547 -23.665   2.733  0.00  0.00     0.142 C 
ATOM     30  O   UNL d   1      34.434 -23.131   2.186  0.00  0.00    -0.325 OA
ENDBRANCH  25  26
ENDBRANCH  22  25
BRANCH  23  31
ATOM     31  C   UNL d   1      30.366 -23.110  -1.095  0.00  0.00     0.084 C 
ATOM     32  C   UNL d   1      29.630 -24.307  -0.824  0.00  0.00     0.057 C 
ATOM     33  C   UNL d   1      29.295 -25.180  -1.874  0.00  0.00     0.104 C 
ATOM     34  C   UNL d   1      29.658 -24.866  -3.175  0.00  0.00     0.040 C 
ATOM     35  C   UNL d   1      30.381 -23.703  -3.415  0.00  0.00     0.058 C 
ATOM     36  C   UNL d   1      30.833 -22.836  -2.408  0.00  0.00     0.187 C 
ATOM     37  O   UNL d   1      31.660 -21.921  -2.725  0.00  0.00    -0.287 OA
BRANCH  33  38
ATOM     38  N   UNL d   1      28.572 -26.443  -1.645  0.00  0.00    -0.116 N 
ATOM     39  O   UNL d   1      28.393 -26.819  -0.478  0.00  0.00    -0.532 OA
ATOM     40  O   UNL d   1      28.169 -27.072  -2.641  0.00  0.00    -0.532 OA
ENDBRANCH  33  38
ENDBRANCH  23  31
ENDBRANCH   1  22
TORSDOF 11
ENDMDL
MODEL 6
REMARK VINA RESULT:    -6.742      3.217      6.017
REMARK INTER + INTRA:         -14.356
REMARK INTER:                 -10.023
REMARK INTRA:                  -4.332
REMARK CONF_INDEPENDENT:        3.281
REMARK UNBOUND:                -4.332
REMARK  11 active torsions:
REMARK  status: ('A' for Active; 'I' for Inactive)
REMARK    1  A    between atoms: C_2  and  N_5 
REMARK       I    between atoms: N_5  and  C_6 
REMARK    2  A    between atoms: C_6  and  C_8 
REMARK    3  A    between atoms: C_8  and  C_9 
REMARK    4  A    between atoms: C_8  and  N_18 
REMARK    5  A    between atoms: C_10  and  O_11 
REMARK    6  A    between atoms: C_13  and  O_14 
REMARK    7  A    between atoms: C_16  and  O_17 
REMARK    8  A    between atoms: N_18  and  C_19 
REMARK       I    between atoms: N_18  and  C_25 
REMARK    9  A    between atoms: C_19  and  C_20 
REMARK   10  A    between atoms: C_25  and  C_27 
REMARK   11  A    between atoms: C_29  and  N_30 
ROOT
ATOM      1  C   UNL d   1      28.125 -15.169  -0.066  0.00  0.00     0.218 C 
ENDROOT
BRANCH   1   2
ATOM      2  C   UNL d   1      29.545 -15.913   0.008  0.00  0.00     0.246 C 
ATOM      3  N   UNL d   1      30.496 -15.617   0.978  0.00  0.00    -0.351 N 
ATOM      4  H   UNL d   1      30.148 -15.877   1.904  0.00  0.00     0.163 HD
ATOM      5  O   UNL d   1      29.764 -16.909  -0.711  0.00  0.00    -0.271 OA
BRANCH   3   6
ATOM      6  C   UNL d   1      31.991 -15.700   0.837  0.00  0.00     0.022 C 
ATOM      7  C   UNL d   1      32.423 -17.067   0.285  0.00  0.00     0.037 C 
ATOM      8  C   UNL d   1      32.666 -15.755   2.237  0.00  0.00     0.037 C 
ATOM      9  C   UNL d   1      32.520 -14.666  -0.168  0.00  0.00     0.037 C 
ENDBRANCH   3   6
ENDBRANCH   1   2
BRANCH   1  10
ATOM     10  C   UNL d   1      26.803 -15.997  -0.354  0.00  0.00     0.040 A 
ATOM     11  C   UNL d   1      25.724 -15.588  -1.160  0.00  0.00     0.080 A 
ATOM     12  C   UNL d   1      24.555 -16.332  -1.357  0.00  0.00     0.073 A 
ATOM     13  C   UNL d   1      24.344 -17.489  -0.654  0.00  0.00     0.071 A 
ATOM     14  C   UNL d   1      25.295 -17.914   0.223  0.00  0.00     0.073 A 
ATOM     15  C   UNL d   1      26.509 -17.224   0.308  0.00  0.00     0.080 A 
BRANCH  11  16
ATOM     16  O   UNL d   1      25.645 -14.467  -1.917  0.00  0.00    -0.360 OA
ATOM     17  H   UNL d   1      25.346 -14.795  -2.785  0.00  0.00     0.217 HD
ENDBRANCH  11  16
BRANCH  13  18
ATOM     18  O   UNL d   1      23.244 -18.257  -0.844  0.00  0.00    -0.361 OA
ATOM     19  H   UNL d   1      22.997 -18.616   0.022  0.00  0.00     0.217 HD
ENDBRANCH  13  18
BRANCH  15  20
ATOM     20  O   UNL d   1      27.404 -17.997   0.978  0.00  0.00    -0.360 OA
ATOM     21  H   UNL d   1      28.275 -17.839   0.563  0.00  0.00     0.217 HD
ENDBRANCH  15  20
ENDBRANCH   1  10
BRANCH   1  22
ATOM     22  N   UNL d   1      27.939 -14.137   1.037  0.00  0.00    -0.324 N 
ATOM     23  C   UNL d   1      28.438 -12.801   0.805  0.00  0.00     0.259 C 
ATOM     24  O   UNL d   1      29.044 -12.486  -0.230  0.00  0.00    -0.267 OA
BRANCH  22  25
ATOM     25  C   UNL d   1      27.405 -14.429   2.395  0.00  0.00     0.192 C 
BRANCH  25  26
ATOM     26  C   UNL d   1      28.273 -14.490   3.594  0.00  0.00     0.070 C 
ATOM     27  C   UNL d   1      28.037 -14.661   4.931  0.00  0.00     0.036 C 
ATOM     28  C   UNL d   1      29.314 -14.728   5.557  0.00  0.00     0.027 C 
ATOM     29  C   UNL d   1      30.244 -14.664   4.553  0.00  0.00     0.142 C 
ATOM     30  O   UNL d   1      29.630 -14.412   3.377  0.00  0.00    -0.325 OA
ENDBRANCH  25  26
ENDBRANCH  22  25
BRANCH  23  31
ATOM     31  C   UNL d   1      28.071 -11.655   1.751  0.00  0.00     0.084 C 
ATOM     32  C   UNL d   1      26.880 -10.892   1.536  0.00  0.00     0.057 C 
ATOM     33  C   UNL d   1      26.574  -9.812   2.384  0.00  0.00     0.104 C 
ATOM     34  C   UNL d   1      27.415  -9.507   3.443  0.00  0.00     0.040 C 
ATOM     35  C   UNL d   1      28.571 -10.257   3.628  0.00  0.00     0.058 C 
ATOM     36  C   UNL d   1      28.990 -11.283   2.767  0.00  0.00     0.187 C 
ATOM     37  O   UNL d   1      30.164 -11.755   2.916  0.00  0.00    -0.287 OA
BRANCH  33  38
ATOM     38  N   UNL d   1      25.382  -8.971   2.184  0.00  0.00    -0.116 N 
ATOM     39  O   UNL d   1      25.531  -7.743   2.101  0.00  0.00    -0.532 OA
ATOM     40  O   UNL d   1      24.276  -9.537   2.104  0.00  0.00    -0.532 OA
ENDBRANCH  33  38
ENDBRANCH  23  31
ENDBRANCH   1  22
TORSDOF 11
ENDMDL
MODEL 7
REMARK VINA RESULT:    -6.574      5.905     10.982
REMARK INTER + INTRA:         -14.135
REMARK INTER:                  -9.855
REMARK INTRA:                  -4.279
REMARK CONF_INDEPENDENT:        3.281
REMARK UNBOUND:                -4.279
REMARK  11 active torsions:
REMARK  status: ('A' for Active; 'I' for Inactive)
REMARK    1  A    between atoms: C_2  and  N_5 
REMARK       I    between atoms: N_5  and  C_6 
REMARK    2  A    between atoms: C_6  and  C_8 
REMARK    3  A    between atoms: C_8  and  C_9 
REMARK    4  A    between atoms: C_8  and  N_18 
REMARK    5  A    between atoms: C_10  and  O_11 
REMARK    6  A    between atoms: C_13  and  O_14 
REMARK    7  A    between atoms: C_16  and  O_17 
REMARK    8  A    between atoms: N_18  and  C_19 
REMARK       I    between atoms: N_18  and  C_25 
REMARK    9  A    between atoms: C_19  and  C_20 
REMARK   10  A    between atoms: C_25  and  C_27 
REMARK   11  A    between atoms: C_29  and  N_30 
ROOT
ATOM      1  C   UNL d   1      30.139 -10.575   7.378  0.00  0.00     0.218 C 
ENDROOT
BRANCH   1   2
ATOM      2  C   UNL d   1      29.938  -9.194   8.170  0.00  0.00     0.246 C 
ATOM      3  N   UNL d   1      30.305  -7.964   7.636  0.00  0.00    -0.351 N 
ATOM      4  H   UNL d   1      29.728  -7.747   6.819  0.00  0.00     0.163 HD
ATOM      5  O   UNL d   1      29.280  -9.175   9.230  0.00  0.00    -0.271 OA
BRANCH   3   6
ATOM      6  C   UNL d   1      30.780  -6.753   8.392  0.00  0.00     0.022 C 
ATOM      7  C   UNL d   1      31.340  -5.686   7.439  0.00  0.00     0.037 C 
ATOM      8  C   UNL d   1      32.067  -7.088   9.199  0.00  0.00     0.037 C 
ATOM      9  C   UNL d   1      29.628  -6.069   9.142  0.00  0.00     0.037 C 
ENDBRANCH   3   6
ENDBRANCH   1   2
BRANCH   1  10
ATOM     10  C   UNL d   1      30.332 -11.932   8.175  0.00  0.00     0.040 A 
ATOM     11  C   UNL d   1      31.475 -12.754   8.152  0.00  0.00     0.080 A 
ATOM     12  C   UNL d   1      31.592 -13.968   8.839  0.00  0.00     0.073 A 
ATOM     13  C   UNL d   1      30.514 -14.496   9.501  0.00  0.00     0.071 A 
ATOM     14  C   UNL d   1      29.335 -13.814   9.496  0.00  0.00     0.073 A 
ATOM     15  C   UNL d   1      29.279 -12.543   8.913  0.00  0.00     0.080 A 
BRANCH  11  16
ATOM     16  O   UNL d   1      32.654 -12.503   7.534  0.00  0.00    -0.360 OA
ATOM     17  H   UNL d   1      32.564 -12.950   6.673  0.00  0.00     0.217 HD
ENDBRANCH  11  16
BRANCH  13  18
ATOM     18  O   UNL d   1      30.596 -15.647  10.209  0.00  0.00    -0.361 OA
ATOM     19  H   UNL d   1      30.365 -16.369   9.604  0.00  0.00     0.217 HD
ENDBRANCH  13  18
BRANCH  15  20
ATOM     20  O   UNL d   1      28.131 -11.933   9.310  0.00  0.00    -0.360 OA
ATOM     21  H   UNL d   1      28.383 -11.037   9.614  0.00  0.00     0.217 HD
ENDBRANCH  15  20
ENDBRANCH   1  10
BRANCH   1  22
ATOM     22  N   UNL d   1      29.193 -10.722   6.194  0.00  0.00    -0.324 N 
ATOM     23  C   UNL d   1      29.330  -9.789   5.099  0.00  0.00     0.259 C 
ATOM     24  O   UNL d   1      30.151  -8.860   5.113  0.00  0.00    -0.267 OA
BRANCH  22  25
ATOM     25  C   UNL d   1      28.044 -11.665   6.135  0.00  0.00     0.192 C 
BRANCH  25  26
ATOM     26  C   UNL d   1      28.192 -13.073   5.699  0.00  0.00     0.070 C 
ATOM     27  C   UNL d   1      27.386 -13.949   5.025  0.00  0.00     0.036 C 
ATOM     28  C   UNL d   1      28.156 -15.131   4.829  0.00  0.00     0.027 C 
ATOM     29  C   UNL d   1      29.403 -14.872   5.334  0.00  0.00     0.142 C 
ATOM     30  O   UNL d   1      29.403 -13.673   5.958  0.00  0.00    -0.325 OA
ENDBRANCH  25  26
ENDBRANCH  22  25
BRANCH  23  31
ATOM     31  C   UNL d   1      28.594 -10.024   3.778  0.00  0.00     0.084 C 
ATOM     32  C   UNL d   1      27.403  -9.292   3.471  0.00  0.00     0.057 C 
ATOM     33  C   UNL d   1      26.709  -9.547   2.276  0.00  0.00     0.104 C 
ATOM     34  C   UNL d   1      27.195 -10.491   1.384  0.00  0.00     0.040 C 
ATOM     35  C   UNL d   1      28.348 -11.197   1.706  0.00  0.00     0.058 C 
ATOM     36  C   UNL d   1      29.038 -11.066   2.921  0.00  0.00     0.187 C 
ATOM     37  O   UNL d   1      29.953 -11.910   3.191  0.00  0.00    -0.287 OA
BRANCH  33  38
ATOM     38  N   UNL d   1      25.459  -8.849   1.929  0.00  0.00    -0.116 N 
ATOM     39  O   UNL d   1      25.530  -7.698   1.476  0.00  0.00    -0.532 OA
ATOM     40  O   UNL d   1      24.386  -9.455   2.106  0.00  0.00    -0.532 OA
ENDBRANCH  33  38
ENDBRANCH  23  31
ENDBRANCH   1  22
TORSDOF 11
ENDMDL
MODEL 8
REMARK VINA RESULT:    -6.176      2.718      5.710
REMARK INTER + INTRA:         -14.070
REMARK INTER:                  -9.457
REMARK INTRA:                  -4.612
REMARK CONF_INDEPENDENT:        3.281
REMARK UNBOUND:                -4.612
REMARK  11 active torsions:
REMARK  status: ('A' for Active; 'I' for Inactive)
REMARK    1  A    between atoms: C_2  and  N_5 
REMARK       I    between atoms: N_5  and  C_6 
REMARK    2  A    between atoms: C_6  and  C_8 
REMARK    3  A    between atoms: C_8  and  C_9 
REMARK    4  A    between atoms: C_8  and  N_18 
REMARK    5  A    between atoms: C_10  and  O_11 
REMARK    6  A    between atoms: C_13  and  O_14 
REMARK    7  A    between atoms: C_16  and  O_17 
REMARK    8  A    between atoms: N_18  and  C_19 
REMARK       I    between atoms: N_18  and  C_25 
REMARK    9  A    between atoms: C_19  and  C_20 
REMARK   10  A    between atoms: C_25  and  C_27 
REMARK   11  A    between atoms: C_29  and  N_30 
ROOT
ATOM      1  C   UNL d   1      27.892 -14.789  -0.761  0.00  0.00     0.218 C 
ENDROOT
BRANCH   1   2
ATOM      2  C   UNL d   1      29.382 -15.214  -0.339  0.00  0.00     0.246 C 
ATOM      3  N   UNL d   1      29.814 -15.213   0.982  0.00  0.00    -0.351 N 
ATOM      4  H   UNL d   1      29.305 -15.918   1.521  0.00  0.00     0.163 HD
ATOM      5  O   UNL d   1      30.145 -15.726  -1.182  0.00  0.00    -0.271 OA
BRANCH   3   6
ATOM      6  C   UNL d   1      31.210 -14.950   1.478  0.00  0.00     0.022 C 
ATOM      7  C   UNL d   1      31.958 -13.981   0.550  0.00  0.00     0.037 C 
ATOM      8  C   UNL d   1      32.096 -16.217   1.305  0.00  0.00     0.037 C 
ATOM      9  C   UNL d   1      31.199 -14.272   2.857  0.00  0.00     0.037 C 
ENDBRANCH   3   6
ENDBRANCH   1   2
BRANCH   1  10
ATOM     10  C   UNL d   1      26.718 -15.854  -0.728  0.00  0.00     0.040 A 
ATOM     11  C   UNL d   1      25.546 -15.824  -1.507  0.00  0.00     0.080 A 
ATOM     12  C   UNL d   1      24.512 -16.763  -1.420  0.00  0.00     0.073 A 
ATOM     13  C   UNL d   1      24.536 -17.731  -0.451  0.00  0.00     0.071 A 
ATOM     14  C   UNL d   1      25.588 -17.778   0.412  0.00  0.00     0.073 A 
ATOM     15  C   UNL d   1      26.670 -16.912   0.225  0.00  0.00     0.080 A 
BRANCH  11  16
ATOM     16  O   UNL d   1      25.239 -14.948  -2.494  0.00  0.00    -0.360 OA
ATOM     17  H   UNL d   1      25.923 -14.258  -2.412  0.00  0.00     0.217 HD
ENDBRANCH  11  16
BRANCH  13  18
ATOM     18  O   UNL d   1      23.575 -18.681  -0.357  0.00  0.00    -0.361 OA
ATOM     19  H   UNL d   1      23.405 -18.820   0.588  0.00  0.00     0.217 HD
ENDBRANCH  13  18
BRANCH  15  20
ATOM     20  O   UNL d   1      27.716 -17.352   0.974  0.00  0.00    -0.360 OA
ATOM     21  H   UNL d   1      27.967 -16.612   1.563  0.00  0.00     0.217 HD
ENDBRANCH  15  20
ENDBRANCH   1  10
BRANCH   1  22
ATOM     22  N   UNL d   1      27.476 -13.442  -0.186  0.00  0.00    -0.324 N 
ATOM     23  C   UNL d   1      27.980 -12.248  -0.826  0.00  0.00     0.259 C 
ATOM     24  O   UNL d   1      28.765 -12.287  -1.785  0.00  0.00    -0.267 OA
BRANCH  22  25
ATOM     25  C   UNL d   1      26.700 -13.256   1.069  0.00  0.00     0.192 C 
BRANCH  25  26
ATOM     26  C   UNL d   1      27.285 -13.495   2.409  0.00  0.00     0.070 C 
ATOM     27  C   UNL d   1      27.405 -12.739   3.543  0.00  0.00     0.036 C 
ATOM     28  C   UNL d   1      27.981 -13.588   4.530  0.00  0.00     0.027 C 
ATOM     29  C   UNL d   1      28.108 -14.825   3.955  0.00  0.00     0.142 C 
ATOM     30  O   UNL d   1      27.793 -14.753   2.643  0.00  0.00    -0.325 OA
ENDBRANCH  25  26
ENDBRANCH  22  25
BRANCH  23  31
ATOM     31  C   UNL d   1      27.413 -10.873  -0.469  0.00  0.00     0.084 C 
ATOM     32  C   UNL d   1      27.213 -10.504   0.900  0.00  0.00     0.057 C 
ATOM     33  C   UNL d   1      26.648  -9.256   1.216  0.00  0.00     0.104 C 
ATOM     34  C   UNL d   1      26.312  -8.374   0.202  0.00  0.00     0.040 C 
ATOM     35  C   UNL d   1      26.507  -8.755  -1.121  0.00  0.00     0.058 C 
ATOM     36  C   UNL d   1      26.972 -10.020  -1.514  0.00  0.00     0.187 C 
ATOM     37  O   UNL d   1      26.912 -10.328  -2.749  0.00  0.00    -0.287 OA
BRANCH  33  38
ATOM     38  N   UNL d   1      26.386  -8.843   2.606  0.00  0.00    -0.116 N 
ATOM     39  O   UNL d   1      26.284  -7.634   2.855  0.00  0.00    -0.532 OA
ATOM     40  O   UNL d   1      26.273  -9.736   3.467  0.00  0.00    -0.532 OA
ENDBRANCH  33  38
ENDBRANCH  23  31
ENDBRANCH   1  22
TORSDOF 11
ENDMDL
MODEL 9
REMARK VINA RESULT:    -5.919      2.454      6.244
REMARK INTER + INTRA:         -14.541
REMARK INTER:                  -9.200
REMARK INTRA:                  -5.340
REMARK CONF_INDEPENDENT:        3.281
REMARK UNBOUND:                -5.340
REMARK  11 active torsions:
REMARK  status: ('A' for Active; 'I' for Inactive)
REMARK    1  A    between atoms: C_2  and  N_5 
REMARK       I    between atoms: N_5  and  C_6 
REMARK    2  A    between atoms: C_6  and  C_8 
REMARK    3  A    between atoms: C_8  and  C_9 
REMARK    4  A    between atoms: C_8  and  N_18 
REMARK    5  A    between atoms: C_10  and  O_11 
REMARK    6  A    between atoms: C_13  and  O_14 
REMARK    7  A    between atoms: C_16  and  O_17 
REMARK    8  A    between atoms: N_18  and  C_19 
REMARK       I    between atoms: N_18  and  C_25 
REMARK    9  A    between atoms: C_19  and  C_20 
REMARK   10  A    between atoms: C_25  and  C_27 
REMARK   11  A    between atoms: C_29  and  N_30 
ROOT
ATOM      1  C   UNL d   1      26.917 -13.456  -3.236  0.00  0.00     0.218 C 
ENDROOT
BRANCH   1   2
ATOM      2  C   UNL d   1      27.067 -11.939  -2.732  0.00  0.00     0.246 C 
ATOM      3  N   UNL d   1      28.236 -11.453  -2.157  0.00  0.00    -0.351 N 
ATOM      4  H   UNL d   1      28.994 -11.453  -2.844  0.00  0.00     0.163 HD
ATOM      5  O   UNL d   1      26.183 -11.102  -3.005  0.00  0.00    -0.271 OA
BRANCH   3   6
ATOM      6  C   UNL d   1      28.353 -10.378  -1.112  0.00  0.00     0.022 C 
ATOM      7  C   UNL d   1      29.708 -10.444  -0.393  0.00  0.00     0.037 C 
ATOM      8  C   UNL d   1      27.405 -10.678   0.084  0.00  0.00     0.037 C 
ATOM      9  C   UNL d   1      28.288  -8.976  -1.737  0.00  0.00     0.037 C 
ENDBRANCH   3   6
ENDBRANCH   1   2
BRANCH   1  10
ATOM     10  C   UNL d   1      28.100 -14.156  -4.026  0.00  0.00     0.040 A 
ATOM     11  C   UNL d   1      27.974 -14.952  -5.180  0.00  0.00     0.080 A 
ATOM     12  C   UNL d   1      29.040 -15.587  -5.826  0.00  0.00     0.073 A 
ATOM     13  C   UNL d   1      30.296 -15.560  -5.278  0.00  0.00     0.071 A 
ATOM     14  C   UNL d   1      30.494 -14.892  -4.108  0.00  0.00     0.073 A 
ATOM     15  C   UNL d   1      29.443 -14.158  -3.549  0.00  0.00     0.080 A 
BRANCH  11  16
ATOM     16  O   UNL d   1      26.846 -15.192  -5.891  0.00  0.00    -0.360 OA
ATOM     17  H   UNL d   1      26.234 -15.572  -5.234  0.00  0.00     0.217 HD
ENDBRANCH  11  16
BRANCH  13  18
ATOM     18  O   UNL d   1      31.362 -16.130  -5.891  0.00  0.00    -0.361 OA
ATOM     19  H   UNL d   1      32.151 -15.659  -5.581  0.00  0.00     0.217 HD
ENDBRANCH  13  18
BRANCH  15  20
ATOM     20  O   UNL d   1      29.948 -13.330  -2.597  0.00  0.00    -0.360 OA
ATOM     21  H   UNL d   1      29.414 -13.474  -1.790  0.00  0.00     0.217 HD
ENDBRANCH  15  20
ENDBRANCH   1  10
BRANCH   1  22
ATOM     22  N   UNL d   1      26.292 -14.368  -2.190  0.00  0.00    -0.324 N 
ATOM     23  C   UNL d   1      25.539 -15.512  -2.652  0.00  0.00     0.259 C 
ATOM     24  O   UNL d   1      25.350 -15.743  -3.856  0.00  0.00    -0.267 OA
BRANCH  22  25
ATOM     25  C   UNL d   1      26.278 -14.101  -0.726  0.00  0.00     0.192 C 
BRANCH  25  26
ATOM     26  C   UNL d   1      27.489 -14.226   0.117  0.00  0.00     0.070 C 
ATOM     27  C   UNL d   1      27.735 -14.079   1.455  0.00  0.00     0.036 C 
ATOM     28  C   UNL d   1      29.100 -14.438   1.652  0.00  0.00     0.027 C 
ATOM     29  C   UNL d   1      29.575 -14.847   0.434  0.00  0.00     0.142 C 
ATOM     30  O   UNL d   1      28.644 -14.620  -0.519  0.00  0.00    -0.325 OA
ENDBRANCH  25  26
ENDBRANCH  22  25
BRANCH  23  31
ATOM     31  C   UNL d   1      25.099 -16.603  -1.674  0.00  0.00     0.084 C 
ATOM     32  C   UNL d   1      23.710 -16.811  -1.397  0.00  0.00     0.057 C 
ATOM     33  C   UNL d   1      23.319 -17.786  -0.462  0.00  0.00     0.104 C 
ATOM     34  C   UNL d   1      24.278 -18.562   0.169  0.00  0.00     0.040 C 
ATOM     35  C   UNL d   1      25.622 -18.337  -0.109  0.00  0.00     0.058 C 
ATOM     36  C   UNL d   1      26.091 -17.319  -0.954  0.00  0.00     0.187 C 
ATOM     37  O   UNL d   1      27.341 -17.075  -0.969  0.00  0.00    -0.287 OA
BRANCH  33  38
ATOM     38  N   UNL d   1      21.906 -18.014  -0.112  0.00  0.00    -0.116 N 
ATOM     39  O   UNL d   1      21.031 -17.640  -0.905  0.00  0.00    -0.532 OA
ATOM     40  O   UNL d   1      21.659 -18.579   0.970  0.00  0.00    -0.532 OA
ENDBRANCH  33  38
ENDBRANCH  23  31
ENDBRANCH   1  22
TORSDOF 11
ENDMDL
