MODEL 1
REMARK VINA RESULT:   -29.232      0.000      0.000
REMARK INTER + INTRA:         -29.785
REMARK INTER:                 -30.127
REMARK INTRA:                   0.343
REMARK CONF_INDEPENDENT:        0.895
REMARK UNBOUND:                 0.343
REMARK  3 active torsions:
REMARK  status: ('A' for Active; 'I' for Inactive)
REMARK    1  A    between atoms: C_2  and  C_3 
REMARK    2  A    between atoms: C_3  and  C_9 
REMARK    3  A    between atoms: N_4  and  N_5 
REMARK       I    between atoms: N_5  and  C_6 
REMARK       I    between atoms: C_6  and  N_7 
ROOT
ATOM      1  C   UNL d   1      20.778 -18.957  -0.018  0.00  0.00     0.064 C 
ATOM      2  N   UNL d   1      19.905 -19.114  -0.989  0.00  0.00    -0.175 NA
ENDROOT
BRANCH   1   3
ATOM      3  C   UNL d   1      20.653 -19.324   1.479  0.00  0.00     0.057 C 
ATOM      4  C   UNL d   1      19.280 -19.326   2.105  0.00  0.00     0.011 C 
ENDBRANCH   1   3
BRANCH   1   5
ATOM      5  C   UNL d   1      22.110 -18.336  -0.396  0.00  0.00    -0.010 A 
ATOM      6  C   UNL d   1      23.276 -19.110  -0.344  0.00  0.00     0.013 A 
ATOM      7  C   UNL d   1      24.531 -18.513  -0.521  0.00  0.00     0.001 A 
ATOM      8  C   UNL d   1      24.628 -17.156  -0.828  0.00  0.00     0.000 A 
ATOM      9  C   UNL d   1      23.471 -16.388  -0.932  0.00  0.00     0.001 A 
ATOM     10  C   UNL d   1      22.217 -16.972  -0.715  0.00  0.00     0.013 A 
ENDBRANCH   1   5
BRANCH   2  11
ATOM     11  N   UNL d   1      18.692 -19.695  -0.760  0.00  0.00    -0.229 N 
ATOM     12  C   UNL d   1      18.420 -20.868  -0.145  0.00  0.00     0.334 C 
ATOM     13  N   UNL d   1      19.458 -21.575   0.310  0.00  0.00    -0.351 N 
ATOM     14  O   UNL d   1      17.253 -21.251  -0.021  0.00  0.00    -0.246 OA
ATOM     15  H   UNL d   1      20.377 -21.177   0.206  0.00  0.00     0.160 HD
ATOM     16  H   UNL d   1      19.277 -22.444   0.786  0.00  0.00     0.160 HD
ATOM     17  H   UNL d   1      17.825 -19.286  -1.028  0.00  0.00     0.194 HD
ENDBRANCH   2  11
TORSDOF 3
ENDMDL
