MODEL 1
REMARK VINA RESULT:    -7.543      0.000      0.000
REMARK INTER + INTRA:         -10.606
REMARK INTER:                  -9.034
REMARK INTRA:                  -1.571
REMARK CONF_INDEPENDENT:        1.492
REMARK UNBOUND:                -1.571
REMARK  5 active torsions:
REMARK  status: ('A' for Active; 'I' for Inactive)
REMARK    1  A    between atoms: O_2  and  C_3 
REMARK    2  A    between atoms: C_6  and  N_7 
REMARK       I    between atoms: N_7  and  C_8 
REMARK    3  A    between atoms: C_8  and  C_10 
REMARK    4  A    between atoms: C_10  and  N_12 
REMARK       I    between atoms: N_12  and  C_13 
REMARK    5  A    between atoms: C_13  and  C_15 
ROOT
ATOM      1  N   UNL d   1      25.918 -16.266  -0.629  0.00  0.00    -0.325 N 
ATOM      2  C   UNL d   1      27.076 -16.989  -0.307  0.00  0.00     0.244 C 
ATOM      3  O   UNL d   1      27.107 -18.194  -0.041  0.00  0.00    -0.271 OA
ATOM      4  H   UNL d   1      26.002 -15.279  -0.854  0.00  0.00     0.169 HD
ENDROOT
BRANCH   2   5
ATOM      5  C   UNL d   1      28.425 -16.226  -0.280  0.00  0.00     0.173 C 
ATOM      6  C   UNL d   1      28.480 -15.225  -1.425  0.00  0.00     0.042 C 
BRANCH   5   7
ATOM      7  N   UNL d   1      28.534 -15.539   1.033  0.00  0.00    -0.344 N 
ATOM      8  C   UNL d   1      27.725 -14.489   1.409  0.00  0.00     0.252 C 
ATOM      9  O   UNL d   1      26.861 -14.011   0.676  0.00  0.00    -0.268 OA
ATOM     10  H   UNL d   1      29.206 -15.940   1.687  0.00  0.00     0.163 HD
BRANCH   8  11
ATOM     11  C   UNL d   1      27.881 -13.938   2.784  0.00  0.00     0.032 A 
ATOM     12  C   UNL d   1      27.695 -12.578   3.053  0.00  0.00     0.018 A 
ATOM     13  C   UNL d   1      27.780 -12.108   4.373  0.00  0.00     0.025 A 
ATOM     14  C   UNL d   1      28.055 -12.993   5.417  0.00  0.00     0.034 A 
ATOM     15 CL   UNL d   1      28.184 -12.401   7.029  0.00  0.00    -0.084 Cl
ATOM     16  C   UNL d   1      28.223 -14.351   5.161  0.00  0.00     0.025 A 
ATOM     17  C   UNL d   1      28.127 -14.825   3.847  0.00  0.00     0.018 A 
ENDBRANCH   8  11
ENDBRANCH   5   7
ENDBRANCH   2   5
BRANCH   1  18
ATOM     18  C   UNL d   1      24.597 -16.817  -0.663  0.00  0.00     0.037 A 
ATOM     19  C   UNL d   1      23.467 -16.003  -0.849  0.00  0.00     0.032 A 
ATOM     20  C   UNL d   1      22.171 -16.573  -0.895  0.00  0.00     0.042 A 
ATOM     21  C   UNL d   1      21.980 -17.952  -0.736  0.00  0.00     0.106 A 
ATOM     22  C   UNL d   1      23.102 -18.743  -0.552  0.00  0.00     0.151 A 
ATOM     23  C   UNL d   1      24.375 -18.186  -0.519  0.00  0.00     0.074 A 
ATOM     24  F   UNL d   1      23.026 -20.075  -0.439  0.00  0.00    -0.203 F 
BRANCH  21  25
ATOM     25  O   UNL d   1      20.698 -18.414  -0.861  0.00  0.00    -0.353 OA
ATOM     26  C   UNL d   1      20.315 -19.437   0.059  0.00  0.00     0.210 C 
ENDBRANCH  21  25
ENDBRANCH   1  18
TORSDOF 5
ENDMDL
MODEL 2
REMARK VINA RESULT:    -7.437      0.988      1.700
REMARK INTER + INTRA:         -10.489
REMARK INTER:                  -8.929
REMARK INTRA:                  -1.560
REMARK CONF_INDEPENDENT:        1.492
REMARK UNBOUND:                -1.560
REMARK  5 active torsions:
REMARK  status: ('A' for Active; 'I' for Inactive)
REMARK    1  A    between atoms: O_2  and  C_3 
REMARK    2  A    between atoms: C_6  and  N_7 
REMARK       I    between atoms: N_7  and  C_8 
REMARK    3  A    between atoms: C_8  and  C_10 
REMARK    4  A    between atoms: C_10  and  N_12 
REMARK       I    between atoms: N_12  and  C_13 
REMARK    5  A    between atoms: C_13  and  C_15 
ROOT
ATOM      1  N   UNL d   1      26.157 -16.192  -0.462  0.00  0.00    -0.325 N 
ATOM      2  C   UNL d   1      27.429 -16.745  -0.255  0.00  0.00     0.244 C 
ATOM      3  O   UNL d   1      27.667 -17.952  -0.150  0.00  0.00    -0.271 OA
ATOM      4  H   UNL d   1      26.069 -15.184  -0.556  0.00  0.00     0.169 HD
ENDROOT
BRANCH   2   5
ATOM      5  C   UNL d   1      28.634 -15.777  -0.147  0.00  0.00     0.173 C 
ATOM      6  C   UNL d   1      28.496 -14.657  -1.167  0.00  0.00     0.042 C 
BRANCH   5   7
ATOM      7  N   UNL d   1      28.662 -15.235   1.237  0.00  0.00    -0.344 N 
ATOM      8  C   UNL d   1      27.721 -14.355   1.725  0.00  0.00     0.252 C 
ATOM      9  O   UNL d   1      26.793 -13.918   1.046  0.00  0.00    -0.268 OA
ATOM     10  H   UNL d   1      29.387 -15.614   1.845  0.00  0.00     0.163 HD
BRANCH   8  11
ATOM     11  C   UNL d   1      27.814 -13.948   3.155  0.00  0.00     0.032 A 
ATOM     12  C   UNL d   1      28.157 -14.863   4.156  0.00  0.00     0.018 A 
ATOM     13  C   UNL d   1      28.305 -14.427   5.482  0.00  0.00     0.025 A 
ATOM     14  C   UNL d   1      28.105 -13.084   5.806  0.00  0.00     0.034 A 
ATOM     15 CL   UNL d   1      28.262 -12.565   7.440  0.00  0.00    -0.084 Cl
ATOM     16  C   UNL d   1      27.782 -12.162   4.813  0.00  0.00     0.025 A 
ATOM     17  C   UNL d   1      27.645 -12.593   3.487  0.00  0.00     0.018 A 
ENDBRANCH   8  11
ENDBRANCH   5   7
ENDBRANCH   2   5
BRANCH   1  18
ATOM     18  C   UNL d   1      24.944 -16.947  -0.549  0.00  0.00     0.037 A 
ATOM     19  C   UNL d   1      24.939 -18.346  -0.416  0.00  0.00     0.032 A 
ATOM     20  C   UNL d   1      23.724 -19.071  -0.490  0.00  0.00     0.042 A 
ATOM     21  C   UNL d   1      22.505 -18.419  -0.716  0.00  0.00     0.106 A 
ATOM     22  C   UNL d   1      22.523 -17.041  -0.847  0.00  0.00     0.151 A 
ATOM     23  C   UNL d   1      23.714 -16.328  -0.763  0.00  0.00     0.074 A 
ATOM     24  F   UNL d   1      21.405 -16.324  -1.018  0.00  0.00    -0.203 F 
BRANCH  21  25
ATOM     25  O   UNL d   1      21.380 -19.197  -0.706  0.00  0.00    -0.353 OA
ATOM     26  C   UNL d   1      20.733 -19.337   0.560  0.00  0.00     0.210 C 
ENDBRANCH  21  25
ENDBRANCH   1  18
TORSDOF 5
ENDMDL
MODEL 3
REMARK VINA RESULT:    -7.368      4.844      6.209
REMARK INTER + INTRA:         -10.181
REMARK INTER:                  -8.860
REMARK INTRA:                  -1.322
REMARK CONF_INDEPENDENT:        1.492
REMARK UNBOUND:                -1.322
REMARK  5 active torsions:
REMARK  status: ('A' for Active; 'I' for Inactive)
REMARK    1  A    between atoms: O_2  and  C_3 
REMARK    2  A    between atoms: C_6  and  N_7 
REMARK       I    between atoms: N_7  and  C_8 
REMARK    3  A    between atoms: C_8  and  C_10 
REMARK    4  A    between atoms: C_10  and  N_12 
REMARK       I    between atoms: N_12  and  C_13 
REMARK    5  A    between atoms: C_13  and  C_15 
ROOT
ATOM      1  N   UNL d   1      23.035 -18.112   0.244  0.00  0.00    -0.325 N 
ATOM      2  C   UNL d   1      23.888 -17.874  -0.844  0.00  0.00     0.244 C 
ATOM      3  O   UNL d   1      23.628 -18.146  -2.020  0.00  0.00    -0.271 OA
ATOM      4  H   UNL d   1      23.334 -17.832   1.173  0.00  0.00     0.169 HD
ENDROOT
BRANCH   2   5
ATOM      5  C   UNL d   1      25.264 -17.221  -0.559  0.00  0.00     0.173 C 
ATOM      6  C   UNL d   1      26.210 -18.245   0.051  0.00  0.00     0.042 C 
BRANCH   5   7
ATOM      7  N   UNL d   1      25.798 -16.703  -1.846  0.00  0.00    -0.344 N 
ATOM      8  C   UNL d   1      26.763 -15.724  -1.926  0.00  0.00     0.252 C 
ATOM      9  O   UNL d   1      27.246 -15.172  -0.938  0.00  0.00    -0.268 OA
ATOM     10  H   UNL d   1      25.459 -17.172  -2.686  0.00  0.00     0.163 HD
BRANCH   8  11
ATOM     11  C   UNL d   1      27.273 -15.348  -3.275  0.00  0.00     0.032 A 
ATOM     12  C   UNL d   1      26.468 -14.675  -4.200  0.00  0.00     0.018 A 
ATOM     13  C   UNL d   1      27.005 -14.273  -5.433  0.00  0.00     0.025 A 
ATOM     14  C   UNL d   1      28.339 -14.548  -5.741  0.00  0.00     0.034 A 
ATOM     15 CL   UNL d   1      28.979 -14.075  -7.268  0.00  0.00    -0.084 Cl
ATOM     16  C   UNL d   1      29.152 -15.201  -4.819  0.00  0.00     0.025 A 
ATOM     17  C   UNL d   1      28.622 -15.593  -3.583  0.00  0.00     0.018 A 
ENDBRANCH   8  11
ENDBRANCH   5   7
ENDBRANCH   2   5
BRANCH   1  18
ATOM     18  C   UNL d   1      21.750 -18.737   0.150  0.00  0.00     0.037 A 
ATOM     19  C   UNL d   1      21.161 -19.022  -1.093  0.00  0.00     0.032 A 
ATOM     20  C   UNL d   1      19.896 -19.655  -1.160  0.00  0.00     0.042 A 
ATOM     21  C   UNL d   1      19.193 -19.994   0.003  0.00  0.00     0.106 A 
ATOM     22  C   UNL d   1      19.783 -19.706   1.222  0.00  0.00     0.151 A 
ATOM     23  C   UNL d   1      21.030 -19.096   1.289  0.00  0.00     0.074 A 
ATOM     24  F   UNL d   1      19.212 -20.034   2.388  0.00  0.00    -0.203 F 
BRANCH  21  25
ATOM     25  O   UNL d   1      18.010 -20.660  -0.164  0.00  0.00    -0.353 OA
ATOM     26  C   UNL d   1      17.661 -21.577   0.873  0.00  0.00     0.210 C 
ENDBRANCH  21  25
ENDBRANCH   1  18
TORSDOF 5
ENDMDL
MODEL 4
REMARK VINA RESULT:    -7.335      3.839      7.862
REMARK INTER + INTRA:         -10.371
REMARK INTER:                  -8.826
REMARK INTRA:                  -1.544
REMARK CONF_INDEPENDENT:        1.492
REMARK UNBOUND:                -1.544
REMARK  5 active torsions:
REMARK  status: ('A' for Active; 'I' for Inactive)
REMARK    1  A    between atoms: O_2  and  C_3 
REMARK    2  A    between atoms: C_6  and  N_7 
REMARK       I    between atoms: N_7  and  C_8 
REMARK    3  A    between atoms: C_8  and  C_10 
REMARK    4  A    between atoms: C_10  and  N_12 
REMARK       I    between atoms: N_12  and  C_13 
REMARK    5  A    between atoms: C_13  and  C_15 
ROOT
ATOM      1  N   UNL d   1      27.962 -14.989   1.754  0.00  0.00    -0.325 N 
ATOM      2  C   UNL d   1      27.689 -14.325   0.549  0.00  0.00     0.244 C 
ATOM      3  O   UNL d   1      27.444 -13.120   0.445  0.00  0.00    -0.271 OA
ATOM      4  H   UNL d   1      28.173 -15.982   1.730  0.00  0.00     0.169 HD
ENDROOT
BRANCH   2   5
ATOM      5  C   UNL d   1      27.693 -15.159  -0.758  0.00  0.00     0.173 C 
ATOM      6  C   UNL d   1      28.822 -16.179  -0.721  0.00  0.00     0.042 C 
BRANCH   5   7
ATOM      7  N   UNL d   1      26.373 -15.831  -0.874  0.00  0.00    -0.344 N 
ATOM      8  C   UNL d   1      25.965 -16.849  -0.041  0.00  0.00     0.252 C 
ATOM      9  O   UNL d   1      26.672 -17.311   0.853  0.00  0.00    -0.268 OA
ATOM     10  H   UNL d   1      25.739 -15.441  -1.572  0.00  0.00     0.163 HD
BRANCH   8  11
ATOM     11  C   UNL d   1      24.585 -17.386  -0.210  0.00  0.00     0.032 A 
ATOM     12  C   UNL d   1      23.508 -16.550  -0.523  0.00  0.00     0.018 A 
ATOM     13  C   UNL d   1      22.236 -17.101  -0.745  0.00  0.00     0.025 A 
ATOM     14  C   UNL d   1      22.042 -18.481  -0.649  0.00  0.00     0.034 A 
ATOM     15 CL   UNL d   1      20.472 -19.143  -0.896  0.00  0.00    -0.084 Cl
ATOM     16  C   UNL d   1      23.112 -19.322  -0.356  0.00  0.00     0.025 A 
ATOM     17  C   UNL d   1      24.385 -18.776  -0.145  0.00  0.00     0.018 A 
ENDBRANCH   8  11
ENDBRANCH   5   7
ENDBRANCH   2   5
BRANCH   1  18
ATOM     18  C   UNL d   1      27.962 -14.368   3.044  0.00  0.00     0.037 A 
ATOM     19  C   UNL d   1      28.152 -15.116   4.218  0.00  0.00     0.032 A 
ATOM     20  C   UNL d   1      28.165 -14.477   5.483  0.00  0.00     0.042 A 
ATOM     21  C   UNL d   1      27.968 -13.095   5.598  0.00  0.00     0.106 A 
ATOM     22  C   UNL d   1      27.779 -12.370   4.433  0.00  0.00     0.151 A 
ATOM     23  C   UNL d   1      27.780 -12.994   3.191  0.00  0.00     0.074 A 
ATOM     24  F   UNL d   1      27.632 -11.039   4.436  0.00  0.00    -0.203 F 
BRANCH  21  25
ATOM     25  O   UNL d   1      28.062 -12.562   6.854  0.00  0.00    -0.353 OA
ATOM     26  C   UNL d   1      28.957 -13.227   7.746  0.00  0.00     0.210 C 
ENDBRANCH  21  25
ENDBRANCH   1  18
TORSDOF 5
ENDMDL
MODEL 5
REMARK VINA RESULT:    -7.295      5.370      8.304
REMARK INTER + INTRA:          -9.773
REMARK INTER:                  -8.786
REMARK INTRA:                  -0.987
REMARK CONF_INDEPENDENT:        1.492
REMARK UNBOUND:                -0.987
REMARK  5 active torsions:
REMARK  status: ('A' for Active; 'I' for Inactive)
REMARK    1  A    between atoms: O_2  and  C_3 
REMARK    2  A    between atoms: C_6  and  N_7 
REMARK       I    between atoms: N_7  and  C_8 
REMARK    3  A    between atoms: C_8  and  C_10 
REMARK    4  A    between atoms: C_10  and  N_12 
REMARK       I    between atoms: N_12  and  C_13 
REMARK    5  A    between atoms: C_13  and  C_15 
ROOT
ATOM      1  N   UNL d   1      28.658 -15.481  -4.224  0.00  0.00    -0.325 N 
ATOM      2  C   UNL d   1      27.300 -15.207  -4.443  0.00  0.00     0.244 C 
ATOM      3  O   UNL d   1      26.665 -15.539  -5.449  0.00  0.00    -0.271 OA
ATOM      4  H   UNL d   1      29.085 -15.182  -3.352  0.00  0.00     0.169 HD
ENDROOT
BRANCH   2   5
ATOM      5  C   UNL d   1      26.530 -14.428  -3.347  0.00  0.00     0.173 C 
ATOM      6  C   UNL d   1      25.895 -13.180  -3.942  0.00  0.00     0.042 C 
BRANCH   5   7
ATOM      7  N   UNL d   1      25.495 -15.336  -2.786  0.00  0.00    -0.344 N 
ATOM      8  C   UNL d   1      25.635 -15.994  -1.584  0.00  0.00     0.252 C 
ATOM      9  O   UNL d   1      26.644 -15.911  -0.886  0.00  0.00    -0.268 OA
ATOM     10  H   UNL d   1      24.623 -15.391  -3.313  0.00  0.00     0.163 HD
BRANCH   8  11
ATOM     11  C   UNL d   1      24.492 -16.813  -1.093  0.00  0.00     0.032 A 
ATOM     12  C   UNL d   1      23.219 -16.261  -0.915  0.00  0.00     0.018 A 
ATOM     13  C   UNL d   1      22.150 -17.080  -0.520  0.00  0.00     0.025 A 
ATOM     14  C   UNL d   1      22.354 -18.444  -0.299  0.00  0.00     0.034 A 
ATOM     15 CL   UNL d   1      21.042 -19.434   0.213  0.00  0.00    -0.084 Cl
ATOM     16  C   UNL d   1      23.614 -19.006  -0.492  0.00  0.00     0.025 A 
ATOM     17  C   UNL d   1      24.680 -18.193  -0.897  0.00  0.00     0.018 A 
ENDBRANCH   8  11
ENDBRANCH   5   7
ENDBRANCH   2   5
BRANCH   1  18
ATOM     18  C   UNL d   1      29.513 -16.157  -5.152  0.00  0.00     0.037 A 
ATOM     19  C   UNL d   1      29.886 -15.567  -6.371  0.00  0.00     0.032 A 
ATOM     20  C   UNL d   1      30.747 -16.249  -7.267  0.00  0.00     0.042 A 
ATOM     21  C   UNL d   1      31.229 -17.531  -6.972  0.00  0.00     0.106 A 
ATOM     22  C   UNL d   1      30.852 -18.103  -5.768  0.00  0.00     0.151 A 
ATOM     23  C   UNL d   1      30.019 -17.429  -4.884  0.00  0.00     0.074 A 
ATOM     24  F   UNL d   1      31.300 -19.302  -5.376  0.00  0.00    -0.203 F 
BRANCH  21  25
ATOM     25  O   UNL d   1      32.105 -18.080  -7.868  0.00  0.00    -0.353 OA
ATOM     26  C   UNL d   1      31.580 -19.122  -8.691  0.00  0.00     0.210 C 
ENDBRANCH  21  25
ENDBRANCH   1  18
TORSDOF 5
ENDMDL
MODEL 6
REMARK VINA RESULT:    -7.261      3.838      7.891
REMARK INTER + INTRA:         -10.303
REMARK INTER:                  -8.753
REMARK INTRA:                  -1.551
REMARK CONF_INDEPENDENT:        1.492
REMARK UNBOUND:                -1.551
REMARK  5 active torsions:
REMARK  status: ('A' for Active; 'I' for Inactive)
REMARK    1  A    between atoms: O_2  and  C_3 
REMARK    2  A    between atoms: C_6  and  N_7 
REMARK       I    between atoms: N_7  and  C_8 
REMARK    3  A    between atoms: C_8  and  C_10 
REMARK    4  A    between atoms: C_10  and  N_12 
REMARK       I    between atoms: N_12  and  C_13 
REMARK    5  A    between atoms: C_13  and  C_15 
ROOT
ATOM      1  N   UNL d   1      28.189 -14.723   1.822  0.00  0.00    -0.325 N 
ATOM      2  C   UNL d   1      27.948 -14.082   0.598  0.00  0.00     0.244 C 
ATOM      3  O   UNL d   1      27.656 -12.889   0.470  0.00  0.00    -0.271 OA
ATOM      4  H   UNL d   1      28.443 -15.707   1.819  0.00  0.00     0.169 HD
ENDROOT
BRANCH   2   5
ATOM      5  C   UNL d   1      28.052 -14.925  -0.698  0.00  0.00     0.173 C 
ATOM      6  C   UNL d   1      29.203 -15.914  -0.584  0.00  0.00     0.042 C 
BRANCH   5   7
ATOM      7  N   UNL d   1      26.759 -15.633  -0.886  0.00  0.00    -0.344 N 
ATOM      8  C   UNL d   1      26.313 -16.632  -0.049  0.00  0.00     0.252 C 
ATOM      9  O   UNL d   1      26.962 -17.044   0.912  0.00  0.00    -0.268 OA
ATOM     10  H   UNL d   1      26.171 -15.285  -1.643  0.00  0.00     0.163 HD
BRANCH   8  11
ATOM     11  C   UNL d   1      24.962 -17.208  -0.299  0.00  0.00     0.032 A 
ATOM     12  C   UNL d   1      24.710 -18.576  -0.145  0.00  0.00     0.018 A 
ATOM     13  C   UNL d   1      23.409 -19.071  -0.319  0.00  0.00     0.025 A 
ATOM     14  C   UNL d   1      22.366 -18.204  -0.653  0.00  0.00     0.034 A 
ATOM     15 CL   UNL d   1      20.778 -18.826  -0.892  0.00  0.00    -0.084 Cl
ATOM     16  C   UNL d   1      22.604 -16.839  -0.791  0.00  0.00     0.025 A 
ATOM     17  C   UNL d   1      23.900 -16.340  -0.606  0.00  0.00     0.018 A 
ENDBRANCH   8  11
ENDBRANCH   5   7
ENDBRANCH   2   5
BRANCH   1  18
ATOM     18  C   UNL d   1      28.098 -14.093   3.104  0.00  0.00     0.037 A 
ATOM     19  C   UNL d   1      28.242 -14.825   4.294  0.00  0.00     0.032 A 
ATOM     20  C   UNL d   1      28.165 -14.177   5.552  0.00  0.00     0.042 A 
ATOM     21  C   UNL d   1      27.923 -12.800   5.642  0.00  0.00     0.106 A 
ATOM     22  C   UNL d   1      27.781 -12.090   4.462  0.00  0.00     0.151 A 
ATOM     23  C   UNL d   1      27.869 -12.723   3.228  0.00  0.00     0.074 A 
ATOM     24  F   UNL d   1      27.595 -10.764   4.445  0.00  0.00    -0.203 F 
BRANCH  21  25
ATOM     25  O   UNL d   1      27.931 -12.255   6.897  0.00  0.00    -0.353 OA
ATOM     26  C   UNL d   1      28.641 -12.993   7.891  0.00  0.00     0.210 C 
ENDBRANCH  21  25
ENDBRANCH   1  18
TORSDOF 5
ENDMDL
MODEL 7
REMARK VINA RESULT:    -7.196      5.171      7.260
REMARK INTER + INTRA:          -9.668
REMARK INTER:                  -8.687
REMARK INTRA:                  -0.981
REMARK CONF_INDEPENDENT:        1.492
REMARK UNBOUND:                -0.981
REMARK  5 active torsions:
REMARK  status: ('A' for Active; 'I' for Inactive)
REMARK    1  A    between atoms: O_2  and  C_3 
REMARK    2  A    between atoms: C_6  and  N_7 
REMARK       I    between atoms: N_7  and  C_8 
REMARK    3  A    between atoms: C_8  and  C_10 
REMARK    4  A    between atoms: C_10  and  N_12 
REMARK       I    between atoms: N_12  and  C_13 
REMARK    5  A    between atoms: C_13  and  C_15 
ROOT
ATOM      1  N   UNL d   1      26.074 -14.913  -2.427  0.00  0.00    -0.325 N 
ATOM      2  C   UNL d   1      25.550 -14.172  -3.496  0.00  0.00     0.244 C 
ATOM      3  O   UNL d   1      24.400 -14.277  -3.933  0.00  0.00    -0.271 OA
ATOM      4  H   UNL d   1      27.029 -14.737  -2.129  0.00  0.00     0.169 HD
ENDROOT
BRANCH   2   5
ATOM      5  C   UNL d   1      26.476 -13.139  -4.188  0.00  0.00     0.173 C 
ATOM      6  C   UNL d   1      26.760 -11.980  -3.244  0.00  0.00     0.042 C 
BRANCH   5   7
ATOM      7  N   UNL d   1      27.732 -13.836  -4.568  0.00  0.00    -0.344 N 
ATOM      8  C   UNL d   1      27.763 -14.970  -5.350  0.00  0.00     0.252 C 
ATOM      9  O   UNL d   1      26.748 -15.520  -5.777  0.00  0.00    -0.268 OA
ATOM     10  H   UNL d   1      28.596 -13.381  -4.274  0.00  0.00     0.163 HD
BRANCH   8  11
ATOM     11  C   UNL d   1      29.091 -15.528  -5.727  0.00  0.00     0.032 A 
ATOM     12  C   UNL d   1      29.645 -16.621  -5.051  0.00  0.00     0.018 A 
ATOM     13  C   UNL d   1      30.864 -17.165  -5.481  0.00  0.00     0.025 A 
ATOM     14  C   UNL d   1      31.531 -16.615  -6.578  0.00  0.00     0.034 A 
ATOM     15 CL   UNL d   1      33.041 -17.273  -7.080  0.00  0.00    -0.084 Cl
ATOM     16  C   UNL d   1      30.979 -15.539  -7.268  0.00  0.00     0.025 A 
ATOM     17  C   UNL d   1      29.756 -15.001  -6.848  0.00  0.00     0.018 A 
ENDBRANCH   8  11
ENDBRANCH   5   7
ENDBRANCH   2   5
BRANCH   1  18
ATOM     18  C   UNL d   1      25.360 -15.925  -1.710  0.00  0.00     0.037 A 
ATOM     19  C   UNL d   1      23.956 -15.927  -1.645  0.00  0.00     0.032 A 
ATOM     20  C   UNL d   1      23.270 -16.949  -0.942  0.00  0.00     0.042 A 
ATOM     21  C   UNL d   1      23.969 -17.967  -0.280  0.00  0.00     0.106 A 
ATOM     22  C   UNL d   1      25.352 -17.953  -0.350  0.00  0.00     0.151 A 
ATOM     23  C   UNL d   1      26.025 -16.958  -1.050  0.00  0.00     0.074 A 
ATOM     24  F   UNL d   1      26.105 -18.908   0.209  0.00  0.00    -0.203 F 
BRANCH  21  25
ATOM     25  O   UNL d   1      23.218 -18.943   0.315  0.00  0.00    -0.353 OA
ATOM     26  C   UNL d   1      21.831 -18.955  -0.026  0.00  0.00     0.210 C 
ENDBRANCH  21  25
ENDBRANCH   1  18
TORSDOF 5
ENDMDL
MODEL 8
REMARK VINA RESULT:    -6.964      1.552      2.023
REMARK INTER + INTRA:         -10.062
REMARK INTER:                  -8.455
REMARK INTRA:                  -1.606
REMARK CONF_INDEPENDENT:        1.492
REMARK UNBOUND:                -1.606
REMARK  5 active torsions:
REMARK  status: ('A' for Active; 'I' for Inactive)
REMARK    1  A    between atoms: O_2  and  C_3 
REMARK    2  A    between atoms: C_6  and  N_7 
REMARK       I    between atoms: N_7  and  C_8 
REMARK    3  A    between atoms: C_8  and  C_10 
REMARK    4  A    between atoms: C_10  and  N_12 
REMARK       I    between atoms: N_12  and  C_13 
REMARK    5  A    between atoms: C_13  and  C_15 
ROOT
ATOM      1  N   UNL d   1      25.797 -17.158  -0.568  0.00  0.00    -0.325 N 
ATOM      2  C   UNL d   1      26.806 -17.634   0.282  0.00  0.00     0.244 C 
ATOM      3  O   UNL d   1      26.659 -18.522   1.128  0.00  0.00    -0.271 OA
ATOM      4  H   UNL d   1      26.025 -16.438  -1.246  0.00  0.00     0.169 HD
ENDROOT
BRANCH   2   5
ATOM      5  C   UNL d   1      28.217 -17.005   0.158  0.00  0.00     0.173 C 
ATOM      6  C   UNL d   1      28.551 -16.760  -1.306  0.00  0.00     0.042 C 
BRANCH   5   7
ATOM      7  N   UNL d   1      28.217 -15.732   0.924  0.00  0.00    -0.344 N 
ATOM      8  C   UNL d   1      27.419 -14.655   0.605  0.00  0.00     0.252 C 
ATOM      9  O   UNL d   1      26.657 -14.646  -0.361  0.00  0.00    -0.268 OA
ATOM     10  H   UNL d   1      28.798 -15.720   1.762  0.00  0.00     0.163 HD
BRANCH   8  11
ATOM     11  C   UNL d   1      27.453 -13.464   1.499  0.00  0.00     0.032 A 
ATOM     12  C   UNL d   1      27.059 -12.200   1.050  0.00  0.00     0.018 A 
ATOM     13  C   UNL d   1      27.036 -11.116   1.941  0.00  0.00     0.025 A 
ATOM     14  C   UNL d   1      27.411 -11.295   3.274  0.00  0.00     0.034 A 
ATOM     15 CL   UNL d   1      27.406  -9.953   4.353  0.00  0.00    -0.084 Cl
ATOM     16  C   UNL d   1      27.788 -12.554   3.735  0.00  0.00     0.025 A 
ATOM     17  C   UNL d   1      27.800 -13.640   2.850  0.00  0.00     0.018 A 
ENDBRANCH   8  11
ENDBRANCH   5   7
ENDBRANCH   2   5
BRANCH   1  18
ATOM     18  C   UNL d   1      24.439 -17.611  -0.553  0.00  0.00     0.037 A 
ATOM     19  C   UNL d   1      24.106 -18.920  -0.167  0.00  0.00     0.032 A 
ATOM     20  C   UNL d   1      22.753 -19.341  -0.145  0.00  0.00     0.042 A 
ATOM     21  C   UNL d   1      21.719 -18.475  -0.524  0.00  0.00     0.106 A 
ATOM     22  C   UNL d   1      22.061 -17.188  -0.903  0.00  0.00     0.151 A 
ATOM     23  C   UNL d   1      23.386 -16.771  -0.913  0.00  0.00     0.074 A 
ATOM     24  F   UNL d   1      21.140 -16.273  -1.236  0.00  0.00    -0.203 F 
BRANCH  21  25
ATOM     25  O   UNL d   1      20.442 -18.952  -0.406  0.00  0.00    -0.353 OA
ATOM     26  C   UNL d   1      20.164 -19.700   0.778  0.00  0.00     0.210 C 
ENDBRANCH  21  25
ENDBRANCH   1  18
TORSDOF 5
ENDMDL
MODEL 9
REMARK VINA RESULT:    -6.630      5.436      7.717
REMARK INTER + INTRA:          -9.731
REMARK INTER:                  -8.122
REMARK INTRA:                  -1.610
REMARK CONF_INDEPENDENT:        1.492
REMARK UNBOUND:                -1.610
REMARK  5 active torsions:
REMARK  status: ('A' for Active; 'I' for Inactive)
REMARK    1  A    between atoms: O_2  and  C_3 
REMARK    2  A    between atoms: C_6  and  N_7 
REMARK       I    between atoms: N_7  and  C_8 
REMARK    3  A    between atoms: C_8  and  C_10 
REMARK    4  A    between atoms: C_10  and  N_12 
REMARK       I    between atoms: N_12  and  C_13 
REMARK    5  A    between atoms: C_13  and  C_15 
ROOT
ATOM      1  N   UNL d   1      26.697 -15.401  -2.919  0.00  0.00    -0.325 N 
ATOM      2  C   UNL d   1      26.294 -14.906  -4.167  0.00  0.00     0.244 C 
ATOM      3  O   UNL d   1      25.155 -15.008  -4.634  0.00  0.00    -0.271 OA
ATOM      4  H   UNL d   1      27.654 -15.247  -2.615  0.00  0.00     0.169 HD
ENDROOT
BRANCH   2   5
ATOM      5  C   UNL d   1      27.349 -14.173  -5.034  0.00  0.00     0.173 C 
ATOM      6  C   UNL d   1      28.140 -13.196  -4.176  0.00  0.00     0.042 C 
BRANCH   5   7
ATOM      7  N   UNL d   1      28.241 -15.200  -5.632  0.00  0.00    -0.344 N 
ATOM      8  C   UNL d   1      29.185 -15.896  -4.910  0.00  0.00     0.252 C 
ATOM      9  O   UNL d   1      29.391 -15.705  -3.712  0.00  0.00    -0.268 OA
ATOM     10  H   UNL d   1      28.065 -15.421  -6.612  0.00  0.00     0.163 HD
BRANCH   8  11
ATOM     11  C   UNL d   1      29.963 -16.957  -5.609  0.00  0.00     0.032 A 
ATOM     12  C   UNL d   1      30.120 -18.233  -5.057  0.00  0.00     0.018 A 
ATOM     13  C   UNL d   1      30.798 -19.228  -5.777  0.00  0.00     0.025 A 
ATOM     14  C   UNL d   1      31.321 -18.948  -7.041  0.00  0.00     0.034 A 
ATOM     15 CL   UNL d   1      32.175 -20.168  -7.905  0.00  0.00    -0.084 Cl
ATOM     16  C   UNL d   1      31.153 -17.686  -7.606  0.00  0.00     0.025 A 
ATOM     17  C   UNL d   1      30.467 -16.694  -6.894  0.00  0.00     0.018 A 
ENDBRANCH   8  11
ENDBRANCH   5   7
ENDBRANCH   2   5
BRANCH   1  18
ATOM     18  C   UNL d   1      25.853 -16.129  -2.019  0.00  0.00     0.037 A 
ATOM     19  C   UNL d   1      24.459 -15.957  -2.020  0.00  0.00     0.032 A 
ATOM     20  C   UNL d   1      23.643 -16.700  -1.131  0.00  0.00     0.042 A 
ATOM     21  C   UNL d   1      24.202 -17.605  -0.220  0.00  0.00     0.106 A 
ATOM     22  C   UNL d   1      25.578 -17.764  -0.228  0.00  0.00     0.151 A 
ATOM     23  C   UNL d   1      26.378 -17.045  -1.108  0.00  0.00     0.074 A 
ATOM     24  F   UNL d   1      26.201 -18.639   0.572  0.00  0.00    -0.203 F 
BRANCH  21  25
ATOM     25  O   UNL d   1      23.328 -18.322   0.551  0.00  0.00    -0.353 OA
ATOM     26  C   UNL d   1      22.245 -18.937  -0.147  0.00  0.00     0.210 C 
ENDBRANCH  21  25
ENDBRANCH   1  18
TORSDOF 5
ENDMDL
