MODEL 1
REMARK VINA RESULT:   -32.687      0.000      0.000
REMARK INTER + INTRA:         -35.085
REMARK INTER:                 -34.179
REMARK INTRA:                  -0.907
REMARK CONF_INDEPENDENT:        1.492
REMARK UNBOUND:                -0.907
REMARK  5 active torsions:
REMARK  status: ('A' for Active; 'I' for Inactive)
REMARK    1  A    between atoms: C_6  and  S_7 
REMARK    2  A    between atoms: S_7  and  C_8 
REMARK    3  A    between atoms: C_11  and  N_12 
REMARK    4  A    between atoms: N_12  and  S_13 
REMARK    5  A    between atoms: S_13  and  C_16 
ROOT
ATOM      1  N   UNL d   1      25.528 -14.372  -2.632  0.00  0.00    -0.281 N 
ATOM      2  H   UNL d   1      26.241 -13.765  -2.241  0.00  0.00     0.179 HD
ENDROOT
BRANCH   1   3
ATOM      3  C   UNL d   1      25.000 -15.461  -1.857  0.00  0.00     0.042 C 
ATOM      4  C   UNL d   1      23.619 -15.586  -1.709  0.00  0.00     0.031 C 
ATOM      5  C   UNL d   1      23.074 -16.603  -0.897  0.00  0.00     0.021 C 
ATOM      6  C   UNL d   1      23.888 -17.600  -0.343  0.00  0.00     0.008 C 
ATOM      7  C   UNL d   1      25.249 -17.553  -0.636  0.00  0.00     0.021 C 
ATOM      8  C   UNL d   1      25.805 -16.460  -1.307  0.00  0.00     0.031 C 
BRANCH   6   9
ATOM      9  S   UNL d   1      23.187 -18.949   0.580  0.00  0.00    -0.051 SA
BRANCH   9  10
ATOM     10  C   UNL d   1      21.537 -19.183   0.076  0.00  0.00     0.195 A 
ATOM     11  N   UNL d   1      21.169 -19.087  -1.191  0.00  0.00    -0.123 NA
ATOM     12  N   UNL d   1      19.804 -19.258  -1.269  0.00  0.00    -0.143 NA
ATOM     13  C   UNL d   1      19.367 -19.458  -0.052  0.00  0.00     0.235 A 
ATOM     14  N   UNL d   1      20.417 -19.433   0.821  0.00  0.00    -0.322 N 
ATOM     15  C   UNL d   1      20.280 -19.710   2.218  0.00  0.00     0.159 C 
ENDBRANCH   9  10
ENDBRANCH   6   9
ENDBRANCH   1   3
BRANCH   1  16
ATOM     16  S   UNL d   1      25.337 -14.388  -4.289  0.00  0.00     0.263 S 
ATOM     17  O   UNL d   1      25.530 -15.774  -4.694  0.00  0.00    -0.200 OA
ATOM     18  O   UNL d   1      24.109 -13.711  -4.638  0.00  0.00    -0.200 OA
BRANCH  16  19
ATOM     19  C   UNL d   1      26.694 -13.466  -4.971  0.00  0.00     0.081 C 
ATOM     20  C   UNL d   1      26.819 -12.152  -5.443  0.00  0.00     0.028 C 
ATOM     21  C   UNL d   1      28.058 -11.756  -6.227  0.00  0.00     0.040 C 
ATOM     22  C   UNL d   1      29.091 -12.729  -6.497  0.00  0.00     0.090 C 
ATOM     23  C   UNL d   1      28.567 -13.940  -6.275  0.00  0.00     0.050 C 
ATOM     24  O   UNL d   1      30.414 -12.994  -7.113  0.00  0.00    -0.341 OA
ATOM     25  C   UNL d   1      27.659 -14.333  -5.357  0.00  0.00     0.052 C 
ATOM     26  N   UNL d   1      28.866 -14.845  -7.272  0.00  0.00    -0.225 NA
ATOM     27  C   UNL d   1      29.915 -15.511  -6.739  0.00  0.00     0.226 C 
ATOM     28  H   UNL d   1      29.242 -14.235  -8.024  0.00  0.00     0.136 HD
ATOM     29  O   UNL d   1      29.853 -16.486  -5.966  0.00  0.00    -0.277 OA
ATOM     30  C   UNL d   1      31.033 -14.628  -7.144  0.00  0.00     0.272 C 
ENDBRANCH  16  19
ENDBRANCH   1  16
TORSDOF 5
ENDMDL
MODEL 2
REMARK VINA RESULT:   -32.178      2.336      3.049
REMARK INTER + INTRA:         -34.509
REMARK INTER:                 -33.670
REMARK INTRA:                  -0.840
REMARK CONF_INDEPENDENT:        1.492
REMARK UNBOUND:                -0.840
REMARK  5 active torsions:
REMARK  status: ('A' for Active; 'I' for Inactive)
REMARK    1  A    between atoms: C_6  and  S_7 
REMARK    2  A    between atoms: S_7  and  C_8 
REMARK    3  A    between atoms: C_11  and  N_12 
REMARK    4  A    between atoms: N_12  and  S_13 
REMARK    5  A    between atoms: S_13  and  C_16 
ROOT
ATOM      1  N   UNL d   1      25.844 -14.343  -2.373  0.00  0.00    -0.281 N 
ATOM      2  H   UNL d   1      26.676 -13.936  -1.957  0.00  0.00     0.179 HD
ENDROOT
BRANCH   1   3
ATOM      3  C   UNL d   1      25.242 -15.512  -1.795  0.00  0.00     0.042 C 
ATOM      4  C   UNL d   1      26.052 -16.460  -1.171  0.00  0.00     0.031 C 
ATOM      5  C   UNL d   1      25.497 -17.650  -0.656  0.00  0.00     0.021 C 
ATOM      6  C   UNL d   1      24.110 -17.846  -0.621  0.00  0.00     0.008 C 
ATOM      7  C   UNL d   1      23.306 -16.815  -1.101  0.00  0.00     0.021 C 
ATOM      8  C   UNL d   1      23.861 -15.710  -1.752  0.00  0.00     0.031 C 
BRANCH   6   9
ATOM      9  S   UNL d   1      23.406 -19.293   0.136  0.00  0.00    -0.051 SA
BRANCH   9  10
ATOM     10  C   UNL d   1      21.687 -19.301  -0.146  0.00  0.00     0.195 A 
ATOM     11  N   UNL d   1      21.176 -19.311  -1.366  0.00  0.00    -0.123 NA
ATOM     12  N   UNL d   1      19.803 -19.250  -1.270  0.00  0.00    -0.143 NA
ATOM     13  C   UNL d   1      19.504 -19.208   0.004  0.00  0.00     0.235 A 
ATOM     14  N   UNL d   1      20.650 -19.251   0.745  0.00  0.00    -0.322 N 
ATOM     15  C   UNL d   1      20.656 -19.313   2.174  0.00  0.00     0.159 C 
ENDBRANCH   9  10
ENDBRANCH   6   9
ENDBRANCH   1   3
BRANCH   1  16
ATOM     16  S   UNL d   1      25.484 -13.942  -3.952  0.00  0.00     0.263 S 
ATOM     17  O   UNL d   1      26.411 -14.708  -4.774  0.00  0.00    -0.200 OA
ATOM     18  O   UNL d   1      24.062 -14.078  -4.170  0.00  0.00    -0.200 OA
BRANCH  16  19
ATOM     19  C   UNL d   1      25.918 -12.232  -4.159  0.00  0.00     0.081 C 
ATOM     20  C   UNL d   1      25.667 -11.080  -3.399  0.00  0.00     0.028 C 
ATOM     21  C   UNL d   1      25.942  -9.714  -4.002  0.00  0.00     0.040 C 
ATOM     22  C   UNL d   1      26.443  -9.601  -5.352  0.00  0.00     0.090 C 
ATOM     23  C   UNL d   1      26.239 -10.779  -5.953  0.00  0.00     0.050 C 
ATOM     24  O   UNL d   1      26.893  -8.694  -6.436  0.00  0.00    -0.341 OA
ATOM     25  C   UNL d   1      26.288 -12.028  -5.444  0.00  0.00     0.052 C 
ATOM     26  N   UNL d   1      25.708 -10.650  -7.220  0.00  0.00    -0.225 NA
ATOM     27  C   UNL d   1      26.808 -10.763  -7.997  0.00  0.00     0.226 C 
ATOM     28  H   UNL d   1      25.419  -9.653  -7.242  0.00  0.00     0.136 HD
ATOM     29  O   UNL d   1      27.325 -11.824  -8.395  0.00  0.00    -0.277 OA
ATOM     30  C   UNL d   1      27.281  -9.359  -8.005  0.00  0.00     0.272 C 
ENDBRANCH  16  19
ENDBRANCH   1  16
TORSDOF 5
ENDMDL
MODEL 3
REMARK VINA RESULT:   -31.886      0.979      1.039
REMARK INTER + INTRA:         -34.370
REMARK INTER:                 -33.377
REMARK INTRA:                  -0.993
REMARK CONF_INDEPENDENT:        1.492
REMARK UNBOUND:                -0.993
REMARK  5 active torsions:
REMARK  status: ('A' for Active; 'I' for Inactive)
REMARK    1  A    between atoms: C_6  and  S_7 
REMARK    2  A    between atoms: S_7  and  C_8 
REMARK    3  A    between atoms: C_11  and  N_12 
REMARK    4  A    between atoms: N_12  and  S_13 
REMARK    5  A    between atoms: S_13  and  C_16 
ROOT
ATOM      1  N   UNL d   1      26.005 -14.568  -2.531  0.00  0.00    -0.281 N 
ATOM      2  H   UNL d   1      26.837 -14.124  -2.153  0.00  0.00     0.179 HD
ENDROOT
BRANCH   1   3
ATOM      3  C   UNL d   1      25.421 -15.699  -1.864  0.00  0.00     0.042 C 
ATOM      4  C   UNL d   1      24.041 -15.885  -1.917  0.00  0.00     0.031 C 
ATOM      5  C   UNL d   1      23.432 -16.946  -1.214  0.00  0.00     0.021 C 
ATOM      6  C   UNL d   1      24.203 -17.924  -0.571  0.00  0.00     0.008 C 
ATOM      7  C   UNL d   1      25.588 -17.812  -0.665  0.00  0.00     0.021 C 
ATOM      8  C   UNL d   1      26.184 -16.679  -1.226  0.00  0.00     0.031 C 
BRANCH   6   9
ATOM      9  S   UNL d   1      23.439 -19.325   0.213  0.00  0.00    -0.051 SA
BRANCH   9  10
ATOM     10  C   UNL d   1      21.727 -19.289  -0.107  0.00  0.00     0.195 A 
ATOM     11  N   UNL d   1      21.242 -19.263  -1.337  0.00  0.00    -0.123 NA
ATOM     12  N   UNL d   1      19.869 -19.174  -1.270  0.00  0.00    -0.143 NA
ATOM     13  C   UNL d   1      19.543 -19.152  -0.003  0.00  0.00     0.235 A 
ATOM     14  N   UNL d   1      20.671 -19.236   0.762  0.00  0.00    -0.322 N 
ATOM     15  C   UNL d   1      20.644 -19.327   2.189  0.00  0.00     0.159 C 
ENDBRANCH   9  10
ENDBRANCH   6   9
ENDBRANCH   1   3
BRANCH   1  16
ATOM     16  S   UNL d   1      25.626 -14.286  -4.131  0.00  0.00     0.263 S 
ATOM     17  O   UNL d   1      25.215 -15.574  -4.671  0.00  0.00    -0.200 OA
ATOM     18  O   UNL d   1      24.726 -13.159  -4.219  0.00  0.00    -0.200 OA
BRANCH  16  19
ATOM     19  C   UNL d   1      27.143 -13.853  -4.948  0.00  0.00     0.081 C 
ATOM     20  C   UNL d   1      27.476 -12.873  -5.894  0.00  0.00     0.028 C 
ATOM     21  C   UNL d   1      28.815 -12.948  -6.605  0.00  0.00     0.040 C 
ATOM     22  C   UNL d   1      29.731 -14.028  -6.322  0.00  0.00     0.090 C 
ATOM     23  C   UNL d   1      29.037 -14.986  -5.696  0.00  0.00     0.050 C 
ATOM     24  O   UNL d   1      31.054 -14.638  -6.603  0.00  0.00    -0.341 OA
ATOM     25  C   UNL d   1      28.014 -14.880  -4.822  0.00  0.00     0.052 C 
ATOM     26  N   UNL d   1      29.296 -16.247  -6.192  0.00  0.00    -0.225 NA
ATOM     27  C   UNL d   1      30.202 -16.716  -5.305  0.00  0.00     0.226 C 
ATOM     28  H   UNL d   1      29.808 -16.042  -7.072  0.00  0.00     0.136 HD
ATOM     29  O   UNL d   1      29.951 -17.268  -4.217  0.00  0.00    -0.277 OA
ATOM     30  C   UNL d   1      31.455 -16.182  -5.887  0.00  0.00     0.272 C 
ENDBRANCH  16  19
ENDBRANCH   1  16
TORSDOF 5
ENDMDL
MODEL 4
REMARK VINA RESULT:   -31.866      2.313      3.264
REMARK INTER + INTRA:         -34.634
REMARK INTER:                 -33.357
REMARK INTRA:                  -1.277
REMARK CONF_INDEPENDENT:        1.492
REMARK UNBOUND:                -1.277
REMARK  5 active torsions:
REMARK  status: ('A' for Active; 'I' for Inactive)
REMARK    1  A    between atoms: C_6  and  S_7 
REMARK    2  A    between atoms: S_7  and  C_8 
REMARK    3  A    between atoms: C_11  and  N_12 
REMARK    4  A    between atoms: N_12  and  S_13 
REMARK    5  A    between atoms: S_13  and  C_16 
ROOT
ATOM      1  N   UNL d   1      25.531 -14.324  -2.644  0.00  0.00    -0.281 N 
ATOM      2  H   UNL d   1      25.916 -13.589  -2.059  0.00  0.00     0.179 HD
ENDROOT
BRANCH   1   3
ATOM      3  C   UNL d   1      24.970 -15.504  -2.049  0.00  0.00     0.042 C 
ATOM      4  C   UNL d   1      25.817 -16.539  -1.655  0.00  0.00     0.031 C 
ATOM      5  C   UNL d   1      25.290 -17.739  -1.132  0.00  0.00     0.021 C 
ATOM      6  C   UNL d   1      23.922 -17.868  -0.855  0.00  0.00     0.008 C 
ATOM      7  C   UNL d   1      23.112 -16.763  -1.103  0.00  0.00     0.021 C 
ATOM      8  C   UNL d   1      23.609 -15.636  -1.765  0.00  0.00     0.031 C 
BRANCH   6   9
ATOM      9  S   UNL d   1      23.276 -19.335  -0.085  0.00  0.00    -0.051 SA
BRANCH   9  10
ATOM     10  C   UNL d   1      21.544 -19.351  -0.263  0.00  0.00     0.195 A 
ATOM     11  N   UNL d   1      20.959 -19.362  -1.449  0.00  0.00    -0.123 NA
ATOM     12  N   UNL d   1      19.594 -19.309  -1.270  0.00  0.00    -0.143 NA
ATOM     13  C   UNL d   1      19.373 -19.271   0.020  0.00  0.00     0.235 A 
ATOM     14  N   UNL d   1      20.562 -19.309   0.690  0.00  0.00    -0.322 N 
ATOM     15  C   UNL d   1      20.655 -19.374   2.115  0.00  0.00     0.159 C 
ENDBRANCH   9  10
ENDBRANCH   6   9
ENDBRANCH   1   3
BRANCH   1  16
ATOM     16  S   UNL d   1      25.978 -14.359  -4.251  0.00  0.00     0.263 S 
ATOM     17  O   UNL d   1      25.171 -15.407  -4.861  0.00  0.00    -0.200 OA
ATOM     18  O   UNL d   1      25.932 -13.020  -4.792  0.00  0.00    -0.200 OA
BRANCH  16  19
ATOM     19  C   UNL d   1      27.662 -14.923  -4.302  0.00  0.00     0.081 C 
ATOM     20  C   UNL d   1      28.456 -15.479  -5.315  0.00  0.00     0.028 C 
ATOM     21  C   UNL d   1      29.787 -16.116  -4.953  0.00  0.00     0.040 C 
ATOM     22  C   UNL d   1      30.223 -16.163  -3.577  0.00  0.00     0.090 C 
ATOM     23  C   UNL d   1      29.153 -15.917  -2.812  0.00  0.00     0.050 C 
ATOM     24  O   UNL d   1      31.286 -16.570  -2.626  0.00  0.00    -0.341 OA
ATOM     25  C   UNL d   1      28.100 -15.102  -3.035  0.00  0.00     0.052 C 
ATOM     26  N   UNL d   1      29.044 -16.787  -1.746  0.00  0.00    -0.225 NA
ATOM     27  C   UNL d   1      29.581 -16.064  -0.738  0.00  0.00     0.226 C 
ATOM     28  H   UNL d   1      29.730 -17.528  -1.990  0.00  0.00     0.136 HD
ATOM     29  O   UNL d   1      28.986 -15.229  -0.031  0.00  0.00    -0.277 OA
ATOM     30  C   UNL d   1      31.017 -16.383  -0.909  0.00  0.00     0.272 C 
ENDBRANCH  16  19
ENDBRANCH   1  16
TORSDOF 5
ENDMDL
MODEL 5
REMARK VINA RESULT:   -31.739      1.286      2.139
REMARK INTER + INTRA:         -34.251
REMARK INTER:                 -33.230
REMARK INTRA:                  -1.021
REMARK CONF_INDEPENDENT:        1.492
REMARK UNBOUND:                -1.021
REMARK  5 active torsions:
REMARK  status: ('A' for Active; 'I' for Inactive)
REMARK    1  A    between atoms: C_6  and  S_7 
REMARK    2  A    between atoms: S_7  and  C_8 
REMARK    3  A    between atoms: C_11  and  N_12 
REMARK    4  A    between atoms: N_12  and  S_13 
REMARK    5  A    between atoms: S_13  and  C_16 
ROOT
ATOM      1  N   UNL d   1      25.858 -14.356  -2.794  0.00  0.00    -0.281 N 
ATOM      2  H   UNL d   1      26.392 -13.655  -2.289  0.00  0.00     0.179 HD
ENDROOT
BRANCH   1   3
ATOM      3  C   UNL d   1      25.261 -15.457  -2.091  0.00  0.00     0.042 C 
ATOM      4  C   UNL d   1      26.081 -16.425  -1.514  0.00  0.00     0.031 C 
ATOM      5  C   UNL d   1      25.522 -17.553  -0.878  0.00  0.00     0.021 C 
ATOM      6  C   UNL d   1      24.139 -17.659  -0.677  0.00  0.00     0.008 C 
ATOM      7  C   UNL d   1      23.345 -16.602  -1.116  0.00  0.00     0.021 C 
ATOM      8  C   UNL d   1      23.884 -15.564  -1.882  0.00  0.00     0.031 C 
BRANCH   6   9
ATOM      9  S   UNL d   1      23.445 -19.022   0.230  0.00  0.00    -0.051 SA
BRANCH   9  10
ATOM     10  C   UNL d   1      21.737 -19.110  -0.100  0.00  0.00     0.195 A 
ATOM     11  N   UNL d   1      21.256 -19.073  -1.331  0.00  0.00    -0.123 NA
ATOM     12  N   UNL d   1      19.880 -19.097  -1.270  0.00  0.00    -0.143 NA
ATOM     13  C   UNL d   1      19.549 -19.153  -0.005  0.00  0.00     0.235 A 
ATOM     14  N   UNL d   1      20.678 -19.177   0.764  0.00  0.00    -0.322 N 
ATOM     15  C   UNL d   1      20.653 -19.328   2.186  0.00  0.00     0.159 C 
ENDBRANCH   9  10
ENDBRANCH   6   9
ENDBRANCH   1   3
BRANCH   1  16
ATOM     16  S   UNL d   1      26.085 -14.473  -4.443  0.00  0.00     0.263 S 
ATOM     17  O   UNL d   1      25.154 -15.497  -4.896  0.00  0.00    -0.200 OA
ATOM     18  O   UNL d   1      26.030 -13.154  -5.030  0.00  0.00    -0.200 OA
BRANCH  16  19
ATOM     19  C   UNL d   1      27.718 -15.126  -4.691  0.00  0.00     0.081 C 
ATOM     20  C   UNL d   1      28.575 -15.894  -3.891  0.00  0.00     0.028 C 
ATOM     21  C   UNL d   1      30.030 -16.053  -4.296  0.00  0.00     0.040 C 
ATOM     22  C   UNL d   1      30.530 -15.406  -5.487  0.00  0.00     0.090 C 
ATOM     23  C   UNL d   1      29.639 -14.470  -5.835  0.00  0.00     0.050 C 
ATOM     24  O   UNL d   1      31.694 -15.174  -6.376  0.00  0.00    -0.341 OA
ATOM     25  C   UNL d   1      28.294 -14.476  -5.728  0.00  0.00     0.052 C 
ATOM     26  N   UNL d   1      30.227 -13.264  -6.159  0.00  0.00    -0.225 NA
ATOM     27  C   UNL d   1      30.269 -13.326  -7.509  0.00  0.00     0.226 C 
ATOM     28  H   UNL d   1      31.200 -13.389  -5.817  0.00  0.00     0.136 HD
ATOM     29  O   UNL d   1      29.351 -13.013  -8.291  0.00  0.00    -0.277 OA
ATOM     30  C   UNL d   1      31.545 -14.052  -7.708  0.00  0.00     0.272 C 
ENDBRANCH  16  19
ENDBRANCH   1  16
TORSDOF 5
ENDMDL
MODEL 6
REMARK VINA RESULT:   -31.728      2.620      3.744
REMARK INTER + INTRA:         -34.169
REMARK INTER:                 -33.219
REMARK INTRA:                  -0.949
REMARK CONF_INDEPENDENT:        1.492
REMARK UNBOUND:                -0.949
REMARK  5 active torsions:
REMARK  status: ('A' for Active; 'I' for Inactive)
REMARK    1  A    between atoms: C_6  and  S_7 
REMARK    2  A    between atoms: S_7  and  C_8 
REMARK    3  A    between atoms: C_11  and  N_12 
REMARK    4  A    between atoms: N_12  and  S_13 
REMARK    5  A    between atoms: S_13  and  C_16 
ROOT
ATOM      1  N   UNL d   1      25.590 -14.247  -2.285  0.00  0.00    -0.281 N 
ATOM      2  H   UNL d   1      26.166 -13.650  -1.700  0.00  0.00     0.179 HD
ENDROOT
BRANCH   1   3
ATOM      3  C   UNL d   1      25.060 -15.477  -1.765  0.00  0.00     0.042 C 
ATOM      4  C   UNL d   1      23.680 -15.632  -1.651  0.00  0.00     0.031 C 
ATOM      5  C   UNL d   1      23.133 -16.800  -1.079  0.00  0.00     0.021 C 
ATOM      6  C   UNL d   1      23.946 -17.893  -0.750  0.00  0.00     0.008 C 
ATOM      7  C   UNL d   1      25.308 -17.783  -1.022  0.00  0.00     0.021 C 
ATOM      8  C   UNL d   1      25.865 -16.571  -1.440  0.00  0.00     0.031 C 
BRANCH   6   9
ATOM      9  S   UNL d   1      23.244 -19.409  -0.141  0.00  0.00    -0.051 SA
BRANCH   9  10
ATOM     10  C   UNL d   1      21.510 -19.331  -0.293  0.00  0.00     0.195 A 
ATOM     11  N   UNL d   1      20.909 -19.294  -1.470  0.00  0.00    -0.123 NA
ATOM     12  N   UNL d   1      19.551 -19.170  -1.269  0.00  0.00    -0.143 NA
ATOM     13  C   UNL d   1      19.352 -19.138   0.024  0.00  0.00     0.235 A 
ATOM     14  N   UNL d   1      20.547 -19.249   0.675  0.00  0.00    -0.322 N 
ATOM     15  C   UNL d   1      20.657 -19.337   2.098  0.00  0.00     0.159 C 
ENDBRANCH   9  10
ENDBRANCH   6   9
ENDBRANCH   1   3
BRANCH   1  16
ATOM     16  S   UNL d   1      25.667 -14.032  -3.937  0.00  0.00     0.263 S 
ATOM     17  O   UNL d   1      26.893 -14.693  -4.363  0.00  0.00    -0.200 OA
ATOM     18  O   UNL d   1      24.409 -14.419  -4.532  0.00  0.00    -0.200 OA
BRANCH  16  19
ATOM     19  C   UNL d   1      25.905 -12.294  -4.218  0.00  0.00     0.081 C 
ATOM     20  C   UNL d   1      26.042 -11.520  -5.379  0.00  0.00     0.028 C 
ATOM     21  C   UNL d   1      26.515 -10.081  -5.265  0.00  0.00     0.040 C 
ATOM     22  C   UNL d   1      26.835  -9.520  -3.973  0.00  0.00     0.090 C 
ATOM     23  C   UNL d   1      26.977 -10.540  -3.119  0.00  0.00     0.050 C 
ATOM     24  O   UNL d   1      27.283  -8.325  -3.217  0.00  0.00    -0.341 OA
ATOM     25  C   UNL d   1      26.323 -11.720  -3.066  0.00  0.00     0.052 C 
ATOM     26  N   UNL d   1      28.095 -10.419  -2.319  0.00  0.00    -0.225 NA
ATOM     27  C   UNL d   1      27.572  -9.908  -1.182  0.00  0.00     0.226 C 
ATOM     28  H   UNL d   1      28.622  -9.654  -2.784  0.00  0.00     0.136 HD
ATOM     29  O   UNL d   1      27.058 -10.556  -0.251  0.00  0.00    -0.277 OA
ATOM     30  C   UNL d   1      27.588  -8.461  -1.501  0.00  0.00     0.272 C 
ENDBRANCH  16  19
ENDBRANCH   1  16
TORSDOF 5
ENDMDL
MODEL 7
REMARK VINA RESULT:   -31.421      2.630      4.113
REMARK INTER + INTRA:         -33.993
REMARK INTER:                 -32.912
REMARK INTRA:                  -1.081
REMARK CONF_INDEPENDENT:        1.492
REMARK UNBOUND:                -1.081
REMARK  5 active torsions:
REMARK  status: ('A' for Active; 'I' for Inactive)
REMARK    1  A    between atoms: C_6  and  S_7 
REMARK    2  A    between atoms: S_7  and  C_8 
REMARK    3  A    between atoms: C_11  and  N_12 
REMARK    4  A    between atoms: N_12  and  S_13 
REMARK    5  A    between atoms: S_13  and  C_16 
ROOT
ATOM      1  N   UNL d   1      25.197 -14.322  -3.569  0.00  0.00    -0.281 N 
ATOM      2  H   UNL d   1      24.880 -13.364  -3.453  0.00  0.00     0.179 HD
ENDROOT
BRANCH   1   3
ATOM      3  C   UNL d   1      24.785 -15.338  -2.641  0.00  0.00     0.042 C 
ATOM      4  C   UNL d   1      23.544 -15.230  -2.016  0.00  0.00     0.031 C 
ATOM      5  C   UNL d   1      23.143 -16.176  -1.048  0.00  0.00     0.021 C 
ATOM      6  C   UNL d   1      23.908 -17.323  -0.798  0.00  0.00     0.008 C 
ATOM      7  C   UNL d   1      25.067 -17.497  -1.550  0.00  0.00     0.021 C 
ATOM      8  C   UNL d   1      25.540 -16.486  -2.391  0.00  0.00     0.031 C 
BRANCH   6   9
ATOM      9  S   UNL d   1      23.343 -18.573   0.334  0.00  0.00    -0.051 SA
BRANCH   9  10
ATOM     10  C   UNL d   1      21.690 -18.975  -0.044  0.00  0.00     0.195 A 
ATOM     11  N   UNL d   1      21.254 -19.056  -1.290  0.00  0.00    -0.123 NA
ATOM     12  N   UNL d   1      19.903 -19.324  -1.270  0.00  0.00    -0.143 NA
ATOM     13  C   UNL d   1      19.543 -19.405  -0.014  0.00  0.00     0.235 A 
ATOM     14  N   UNL d   1      20.630 -19.207   0.789  0.00  0.00    -0.322 N 
ATOM     15  C   UNL d   1      20.582 -19.322   2.213  0.00  0.00     0.159 C 
ENDBRANCH   9  10
ENDBRANCH   6   9
ENDBRANCH   1   3
BRANCH   1  16
ATOM     16  S   UNL d   1      26.535 -14.592  -4.527  0.00  0.00     0.263 S 
ATOM     17  O   UNL d   1      26.304 -15.876  -5.174  0.00  0.00    -0.200 OA
ATOM     18  O   UNL d   1      26.789 -13.424  -5.339  0.00  0.00    -0.200 OA
BRANCH  16  19
ATOM     19  C   UNL d   1      27.914 -14.818  -3.430  0.00  0.00     0.081 C 
ATOM     20  C   UNL d   1      29.110 -15.543  -3.530  0.00  0.00     0.028 C 
ATOM     21  C   UNL d   1      29.961 -15.754  -2.290  0.00  0.00     0.040 C 
ATOM     22  C   UNL d   1      29.533 -15.227  -1.015  0.00  0.00     0.090 C 
ATOM     23  C   UNL d   1      28.234 -14.926  -1.124  0.00  0.00     0.050 C 
ATOM     24  O   UNL d   1      29.841 -15.067   0.427  0.00  0.00    -0.341 OA
ATOM     25  C   UNL d   1      27.543 -14.451  -2.182  0.00  0.00     0.052 C 
ATOM     26  N   UNL d   1      27.489 -15.364  -0.048  0.00  0.00    -0.225 NA
ATOM     27  C   UNL d   1      27.397 -14.244   0.704  0.00  0.00     0.226 C 
ATOM     28  H   UNL d   1      28.148 -16.004   0.436  0.00  0.00     0.136 HD
ATOM     29  O   UNL d   1      26.554 -13.337   0.576  0.00  0.00    -0.277 OA
ATOM     30  C   UNL d   1      28.655 -14.335   1.481  0.00  0.00     0.272 C 
ENDBRANCH  16  19
ENDBRANCH   1  16
TORSDOF 5
ENDMDL
MODEL 8
REMARK VINA RESULT:   -31.337      2.694      3.928
REMARK INTER + INTRA:         -33.704
REMARK INTER:                 -32.829
REMARK INTRA:                  -0.875
REMARK CONF_INDEPENDENT:        1.492
REMARK UNBOUND:                -0.875
REMARK  5 active torsions:
REMARK  status: ('A' for Active; 'I' for Inactive)
REMARK    1  A    between atoms: C_6  and  S_7 
REMARK    2  A    between atoms: S_7  and  C_8 
REMARK    3  A    between atoms: C_11  and  N_12 
REMARK    4  A    between atoms: N_12  and  S_13 
REMARK    5  A    between atoms: S_13  and  C_16 
ROOT
ATOM      1  N   UNL d   1      28.348 -17.852  -0.398  0.00  0.00    -0.281 N 
ATOM      2  H   UNL d   1      28.621 -18.786  -0.107  0.00  0.00     0.179 HD
ENDROOT
BRANCH   1   3
ATOM      3  C   UNL d   1      26.959 -17.497  -0.486  0.00  0.00     0.042 C 
ATOM      4  C   UNL d   1      26.439 -17.075  -1.709  0.00  0.00     0.031 C 
ATOM      5  C   UNL d   1      25.096 -16.654  -1.810  0.00  0.00     0.021 C 
ATOM      6  C   UNL d   1      24.212 -16.789  -0.730  0.00  0.00     0.008 C 
ATOM      7  C   UNL d   1      24.709 -17.365   0.436  0.00  0.00     0.021 C 
ATOM      8  C   UNL d   1      26.073 -17.635   0.584  0.00  0.00     0.031 C 
BRANCH   6   9
ATOM      9  S   UNL d   1      22.492 -16.369  -0.895  0.00  0.00    -0.051 SA
BRANCH   9  10
ATOM     10  C   UNL d   1      21.548 -17.833  -0.871  0.00  0.00     0.195 A 
ATOM     11  N   UNL d   1      20.234 -17.825  -1.026  0.00  0.00    -0.123 NA
ATOM     12  N   UNL d   1      19.766 -19.114  -0.897  0.00  0.00    -0.143 NA
ATOM     13  C   UNL d   1      20.800 -19.882  -0.669  0.00  0.00     0.235 A 
ATOM     14  N   UNL d   1      21.938 -19.127  -0.657  0.00  0.00    -0.322 N 
ATOM     15  C   UNL d   1      23.247 -19.687  -0.523  0.00  0.00     0.159 C 
ENDBRANCH   9  10
ENDBRANCH   6   9
ENDBRANCH   1   3
BRANCH   1  16
ATOM     16  S   UNL d   1      29.476 -16.925  -1.205  0.00  0.00     0.263 S 
ATOM     17  O   UNL d   1      30.572 -16.732  -0.266  0.00  0.00    -0.200 OA
ATOM     18  O   UNL d   1      29.743 -17.512  -2.498  0.00  0.00    -0.200 OA
BRANCH  16  19
ATOM     19  C   UNL d   1      28.739 -15.328  -1.460  0.00  0.00     0.081 C 
ATOM     20  C   UNL d   1      28.219 -14.362  -0.587  0.00  0.00     0.028 C 
ATOM     21  C   UNL d   1      27.402 -13.213  -1.149  0.00  0.00     0.040 C 
ATOM     22  C   UNL d   1      27.148 -13.124  -2.568  0.00  0.00     0.090 C 
ATOM     23  C   UNL d   1      27.421 -14.322  -3.098  0.00  0.00     0.050 C 
ATOM     24  O   UNL d   1      26.519 -12.355  -3.670  0.00  0.00    -0.341 OA
ATOM     25  C   UNL d   1      28.367 -15.222  -2.757  0.00  0.00     0.052 C 
ATOM     26  N   UNL d   1      26.451 -14.753  -3.980  0.00  0.00    -0.225 NA
ATOM     27  C   UNL d   1      26.989 -14.416  -5.173  0.00  0.00     0.226 C 
ATOM     28  H   UNL d   1      25.672 -14.090  -3.797  0.00  0.00     0.136 HD
ATOM     29  O   UNL d   1      27.797 -15.094  -5.836  0.00  0.00    -0.277 OA
ATOM     30  C   UNL d   1      26.535 -13.011  -5.290  0.00  0.00     0.272 C 
ENDBRANCH  16  19
ENDBRANCH   1  16
TORSDOF 5
ENDMDL
MODEL 9
REMARK VINA RESULT:   -30.730      3.359      5.294
REMARK INTER + INTRA:         -33.613
REMARK INTER:                 -32.222
REMARK INTRA:                  -1.392
REMARK CONF_INDEPENDENT:        1.492
REMARK UNBOUND:                -1.392
REMARK  5 active torsions:
REMARK  status: ('A' for Active; 'I' for Inactive)
REMARK    1  A    between atoms: C_6  and  S_7 
REMARK    2  A    between atoms: S_7  and  C_8 
REMARK    3  A    between atoms: C_11  and  N_12 
REMARK    4  A    between atoms: N_12  and  S_13 
REMARK    5  A    between atoms: S_13  and  C_16 
ROOT
ATOM      1  N   UNL d   1      25.912 -15.078  -3.388  0.00  0.00    -0.281 N 
ATOM      2  H   UNL d   1      25.767 -15.226  -4.382  0.00  0.00     0.179 HD
ENDROOT
BRANCH   1   3
ATOM      3  C   UNL d   1      25.230 -15.897  -2.426  0.00  0.00     0.042 C 
ATOM      4  C   UNL d   1      25.907 -16.961  -1.833  0.00  0.00     0.031 C 
ATOM      5  C   UNL d   1      25.242 -17.825  -0.937  0.00  0.00     0.021 C 
ATOM      6  C   UNL d   1      23.937 -17.553  -0.504  0.00  0.00     0.008 C 
ATOM      7  C   UNL d   1      23.333 -16.393  -0.982  0.00  0.00     0.021 C 
ATOM      8  C   UNL d   1      23.932 -15.627  -1.986  0.00  0.00     0.031 C 
BRANCH   6   9
ATOM      9  S   UNL d   1      23.144 -18.574   0.716  0.00  0.00    -0.051 SA
BRANCH   9  10
ATOM     10  C   UNL d   1      21.556 -19.009   0.145  0.00  0.00     0.195 A 
ATOM     11  N   UNL d   1      21.232 -18.956  -1.136  0.00  0.00    -0.123 NA
ATOM     12  N   UNL d   1      19.902 -19.294  -1.270  0.00  0.00    -0.143 NA
ATOM     13  C   UNL d   1      19.444 -19.549  -0.070  0.00  0.00     0.235 A 
ATOM     14  N   UNL d   1      20.446 -19.396   0.845  0.00  0.00    -0.322 N 
ATOM     15  C   UNL d   1      20.287 -19.691   2.235  0.00  0.00     0.159 C 
ENDBRANCH   9  10
ENDBRANCH   6   9
ENDBRANCH   1   3
BRANCH   1  16
ATOM     16  S   UNL d   1      26.550 -13.615  -2.902  0.00  0.00     0.263 S 
ATOM     17  O   UNL d   1      27.379 -13.159  -4.010  0.00  0.00    -0.200 OA
ATOM     18  O   UNL d   1      25.488 -12.766  -2.414  0.00  0.00    -0.200 OA
BRANCH  16  19
ATOM     19  C   UNL d   1      27.653 -13.959  -1.552  0.00  0.00     0.081 C 
ATOM     20  C   UNL d   1      28.597 -14.969  -1.319  0.00  0.00     0.028 C 
ATOM     21  C   UNL d   1      29.183 -15.135   0.072  0.00  0.00     0.040 C 
ATOM     22  C   UNL d   1      28.759 -14.272   1.149  0.00  0.00     0.090 C 
ATOM     23  C   UNL d   1      27.624 -13.678   0.761  0.00  0.00     0.050 C 
ATOM     24  O   UNL d   1      28.909 -13.909   2.580  0.00  0.00    -0.341 OA
ATOM     25  C   UNL d   1      27.241 -13.266  -0.465  0.00  0.00     0.052 C 
ATOM     26  N   UNL d   1      26.652 -13.687   1.740  0.00  0.00    -0.225 NA
ATOM     27  C   UNL d   1      26.783 -12.453   2.277  0.00  0.00     0.226 C 
ATOM     28  H   UNL d   1      27.033 -14.363   2.430  0.00  0.00     0.136 HD
ATOM     29  O   UNL d   1      26.256 -11.406   1.857  0.00  0.00    -0.277 OA
ATOM     30  C   UNL d   1      27.851 -12.702   3.273  0.00  0.00     0.272 C 
ENDBRANCH  16  19
ENDBRANCH   1  16
TORSDOF 5
ENDMDL
