MODEL 1
REMARK VINA RESULT:   -28.744      0.000      0.000
REMARK INTER + INTRA:         -32.414
REMARK INTER:                 -31.130
REMARK INTRA:                  -1.284
REMARK CONF_INDEPENDENT:        2.386
REMARK UNBOUND:                -1.284
REMARK  8 active torsions:
REMARK  status: ('A' for Active; 'I' for Inactive)
REMARK    1  A    between atoms: C_2  and  C_27 
REMARK    2  A    between atoms: N_3  and  N_4 
REMARK       I    between atoms: N_4  and  C_5 
REMARK    3  A    between atoms: C_5  and  C_7 
REMARK    4  A    between atoms: C_9  and  C_10 
REMARK    5  A    between atoms: C_13  and  O_14 
REMARK    6  A    between atoms: O_14  and  C_15 
REMARK    7  A    between atoms: C_15  and  C_16 
REMARK    8  A    between atoms: C_30  and  N_31 
ROOT
ATOM      1  C   UNL d   1      29.858 -16.881  -0.558  0.00  0.00     0.148 A 
ATOM      2  C   UNL d   1      30.435 -15.798   0.173  0.00  0.00     0.071 A 
ATOM      3  C   UNL d   1      31.783 -16.086   0.311  0.00  0.00     0.062 A 
ATOM      4  N   UNL d   1      31.945 -17.289  -0.324  0.00  0.00    -0.277 N 
ATOM      5  N   UNL d   1      30.819 -17.775  -0.870  0.00  0.00    -0.169 NA
ATOM      6  H   UNL d   1      32.790 -17.848  -0.385  0.00  0.00     0.189 HD
ENDROOT
BRANCH   1   7
ATOM      7  C   UNL d   1      28.427 -17.121  -0.901  0.00  0.00     0.292 C 
ATOM      8  N   UNL d   1      27.702 -17.871   0.034  0.00  0.00    -0.241 N 
ATOM      9  H   UNL d   1      28.141 -18.104   0.912  0.00  0.00     0.192 HD
ATOM     10  O   UNL d   1      27.935 -16.682  -1.948  0.00  0.00    -0.264 OA
BRANCH   8  11
ATOM     11  N   UNL d   1      26.366 -18.163  -0.183  0.00  0.00    -0.176 NA
ATOM     12  C   UNL d   1      25.461 -17.225  -0.275  0.00  0.00     0.061 C 
ATOM     13  C   UNL d   1      25.726 -15.742  -0.129  0.00  0.00     0.073 C 
BRANCH  12  14
ATOM     14  C   UNL d   1      24.017 -17.622  -0.503  0.00  0.00    -0.010 A 
ATOM     15  C   UNL d   1      23.074 -16.635  -0.805  0.00  0.00     0.015 A 
ATOM     16  C   UNL d   1      21.712 -16.959  -0.938  0.00  0.00     0.024 A 
ATOM     17  C   UNL d   1      21.270 -18.283  -0.877  0.00  0.00     0.005 A 
ATOM     18  C   UNL d   1      22.208 -19.266  -0.552  0.00  0.00     0.024 A 
ATOM     19  C   UNL d   1      23.572 -18.946  -0.383  0.00  0.00     0.015 A 
BRANCH  17  20
ATOM     20  N   UNL d   1      19.903 -18.575  -0.907  0.00  0.00    -0.303 NA
ATOM     21  H   UNL d   1      19.313 -17.840  -1.285  0.00  0.00     0.124 HD
ATOM     22  H   UNL d   1      19.653 -19.494  -1.260  0.00  0.00     0.124 HD
ENDBRANCH  17  20
ENDBRANCH  12  14
ENDBRANCH   8  11
ENDBRANCH   1   7
BRANCH   3  23
ATOM     23  C   UNL d   1      32.854 -15.430   1.055  0.00  0.00    -0.008 A 
ATOM     24  C   UNL d   1      33.386 -14.202   0.644  0.00  0.00     0.016 A 
ATOM     25  C   UNL d   1      34.472 -13.634   1.324  0.00  0.00     0.037 A 
ATOM     26  C   UNL d   1      34.996 -14.245   2.464  0.00  0.00     0.069 A 
ATOM     27  C   UNL d   1      34.462 -15.466   2.881  0.00  0.00     0.037 A 
ATOM     28  C   UNL d   1      33.400 -16.051   2.183  0.00  0.00     0.016 A 
BRANCH  26  29
ATOM     29  O   UNL d   1      36.003 -13.559   3.091  0.00  0.00    -0.347 OA
BRANCH  29  30
ATOM     30  C   UNL d   1      35.825 -12.141   3.176  0.00  0.00     0.216 C 
BRANCH  30  31
ATOM     31  C   UNL d   1      35.187 -11.750   4.489  0.00  0.00    -0.012 A 
ATOM     32  C   UNL d   1      35.958 -11.818   5.664  0.00  0.00     0.011 A 
ATOM     33  C   UNL d   1      35.367 -11.662   6.918  0.00  0.00     0.001 A 
ATOM     34  C   UNL d   1      34.012 -11.362   7.017  0.00  0.00     0.002 A 
ATOM     35  C   UNL d   1      33.240 -11.252   5.862  0.00  0.00     0.024 A 
ATOM     36  C   UNL d   1      33.819 -11.453   4.605  0.00  0.00     0.042 A 
ATOM     37 CL   UNL d   1      32.777 -11.320   3.231  0.00  0.00    -0.084 Cl
ENDBRANCH  30  31
ENDBRANCH  29  30
ENDBRANCH  26  29
ENDBRANCH   3  23
TORSDOF 8
ENDMDL
MODEL 2
REMARK VINA RESULT:   -28.718      3.040      4.107
REMARK INTER + INTRA:         -32.238
REMARK INTER:                 -31.105
REMARK INTRA:                  -1.133
REMARK CONF_INDEPENDENT:        2.386
REMARK UNBOUND:                -1.133
REMARK  8 active torsions:
REMARK  status: ('A' for Active; 'I' for Inactive)
REMARK    1  A    between atoms: C_2  and  C_27 
REMARK    2  A    between atoms: N_3  and  N_4 
REMARK       I    between atoms: N_4  and  C_5 
REMARK    3  A    between atoms: C_5  and  C_7 
REMARK    4  A    between atoms: C_9  and  C_10 
REMARK    5  A    between atoms: C_13  and  O_14 
REMARK    6  A    between atoms: O_14  and  C_15 
REMARK    7  A    between atoms: C_15  and  C_16 
REMARK    8  A    between atoms: C_30  and  N_31 
ROOT
ATOM      1  C   UNL d   1      29.166 -14.529   0.015  0.00  0.00     0.148 A 
ATOM      2  C   UNL d   1      30.035 -15.294   0.853  0.00  0.00     0.071 A 
ATOM      3  C   UNL d   1      31.258 -14.645   0.855  0.00  0.00     0.062 A 
ATOM      4  N   UNL d   1      31.072 -13.557   0.045  0.00  0.00    -0.277 N 
ATOM      5  N   UNL d   1      29.828 -13.450  -0.451  0.00  0.00    -0.169 NA
ATOM      6  H   UNL d   1      31.764 -12.871  -0.241  0.00  0.00     0.189 HD
ENDROOT
BRANCH   1   7
ATOM      7  C   UNL d   1      27.768 -14.829  -0.403  0.00  0.00     0.292 C 
ATOM      8  N   UNL d   1      27.134 -15.857   0.307  0.00  0.00    -0.241 N 
ATOM      9  H   UNL d   1      27.601 -16.247   1.112  0.00  0.00     0.192 HD
ATOM     10  O   UNL d   1      27.224 -14.205  -1.323  0.00  0.00    -0.264 OA
BRANCH   8  11
ATOM     11  N   UNL d   1      25.836 -16.228  -0.001  0.00  0.00    -0.176 NA
ATOM     12  C   UNL d   1      25.434 -17.467   0.091  0.00  0.00     0.061 C 
ATOM     13  C   UNL d   1      26.302 -18.638   0.498  0.00  0.00     0.073 C 
BRANCH  12  14
ATOM     14  C   UNL d   1      24.001 -17.800  -0.272  0.00  0.00    -0.010 A 
ATOM     15  C   UNL d   1      23.129 -16.771  -0.639  0.00  0.00     0.015 A 
ATOM     16  C   UNL d   1      21.773 -17.036  -0.897  0.00  0.00     0.024 A 
ATOM     17  C   UNL d   1      21.274 -18.342  -0.898  0.00  0.00     0.005 A 
ATOM     18  C   UNL d   1      22.139 -19.367  -0.508  0.00  0.00     0.024 A 
ATOM     19  C   UNL d   1      23.495 -19.107  -0.214  0.00  0.00     0.015 A 
BRANCH  17  20
ATOM     20  N   UNL d   1      19.904 -18.576  -1.054  0.00  0.00    -0.303 NA
ATOM     21  H   UNL d   1      19.412 -17.895  -1.626  0.00  0.00     0.124 HD
ATOM     22  H   UNL d   1      19.640 -19.532  -1.274  0.00  0.00     0.124 HD
ENDBRANCH  17  20
ENDBRANCH  12  14
ENDBRANCH   8  11
ENDBRANCH   1   7
BRANCH   3  23
ATOM     23  C   UNL d   1      32.557 -15.004   1.417  0.00  0.00    -0.008 A 
ATOM     24  C   UNL d   1      33.101 -16.282   1.246  0.00  0.00     0.016 A 
ATOM     25  C   UNL d   1      34.308 -16.631   1.869  0.00  0.00     0.037 A 
ATOM     26  C   UNL d   1      35.024 -15.689   2.611  0.00  0.00     0.069 A 
ATOM     27  C   UNL d   1      34.487 -14.411   2.776  0.00  0.00     0.037 A 
ATOM     28  C   UNL d   1      33.265 -14.073   2.184  0.00  0.00     0.016 A 
BRANCH  26  29
ATOM     29  O   UNL d   1      36.227 -16.120   3.106  0.00  0.00    -0.347 OA
BRANCH  29  30
ATOM     30  C   UNL d   1      36.456 -17.531   3.034  0.00  0.00     0.216 C 
BRANCH  30  31
ATOM     31  C   UNL d   1      36.101 -18.207   4.337  0.00  0.00    -0.012 A 
ATOM     32  C   UNL d   1      36.633 -17.693   5.535  0.00  0.00     0.011 A 
ATOM     33  C   UNL d   1      36.501 -18.391   6.735  0.00  0.00     0.001 A 
ATOM     34  C   UNL d   1      35.771 -19.575   6.775  0.00  0.00     0.002 A 
ATOM     35  C   UNL d   1      35.203 -20.080   5.607  0.00  0.00     0.024 A 
ATOM     36  C   UNL d   1      35.372 -19.407   4.393  0.00  0.00     0.042 A 
ATOM     37 CL   UNL d   1      34.650 -20.120   2.992  0.00  0.00    -0.084 Cl
ENDBRANCH  30  31
ENDBRANCH  29  30
ENDBRANCH  26  29
ENDBRANCH   3  23
TORSDOF 8
ENDMDL
MODEL 3
REMARK VINA RESULT:   -28.504      1.182      1.712
REMARK INTER + INTRA:         -32.311
REMARK INTER:                 -30.891
REMARK INTRA:                  -1.420
REMARK CONF_INDEPENDENT:        2.386
REMARK UNBOUND:                -1.420
REMARK  8 active torsions:
REMARK  status: ('A' for Active; 'I' for Inactive)
REMARK    1  A    between atoms: C_2  and  C_27 
REMARK    2  A    between atoms: N_3  and  N_4 
REMARK       I    between atoms: N_4  and  C_5 
REMARK    3  A    between atoms: C_5  and  C_7 
REMARK    4  A    between atoms: C_9  and  C_10 
REMARK    5  A    between atoms: C_13  and  O_14 
REMARK    6  A    between atoms: O_14  and  C_15 
REMARK    7  A    between atoms: C_15  and  C_16 
REMARK    8  A    between atoms: C_30  and  N_31 
ROOT
ATOM      1  C   UNL d   1      29.827 -16.978  -0.600  0.00  0.00     0.148 A 
ATOM      2  C   UNL d   1      30.408 -15.904   0.143  0.00  0.00     0.071 A 
ATOM      3  C   UNL d   1      31.757 -16.191   0.268  0.00  0.00     0.062 A 
ATOM      4  N   UNL d   1      31.917 -17.384  -0.385  0.00  0.00    -0.277 N 
ATOM      5  N   UNL d   1      30.788 -17.865  -0.931  0.00  0.00    -0.169 NA
ATOM      6  H   UNL d   1      32.763 -17.941  -0.461  0.00  0.00     0.189 HD
ENDROOT
BRANCH   1   7
ATOM      7  C   UNL d   1      28.395 -17.215  -0.936  0.00  0.00     0.292 C 
ATOM      8  N   UNL d   1      27.664 -17.935   0.017  0.00  0.00    -0.241 N 
ATOM      9  H   UNL d   1      28.101 -18.148   0.902  0.00  0.00     0.192 HD
ATOM     10  O   UNL d   1      27.906 -16.800  -1.994  0.00  0.00    -0.264 OA
BRANCH   8  11
ATOM     11  N   UNL d   1      26.326 -18.222  -0.192  0.00  0.00    -0.176 NA
ATOM     12  C   UNL d   1      25.428 -17.280  -0.308  0.00  0.00     0.061 C 
ATOM     13  C   UNL d   1      25.704 -15.796  -0.201  0.00  0.00     0.073 C 
BRANCH  12  14
ATOM     14  C   UNL d   1      23.981 -17.671  -0.527  0.00  0.00    -0.010 A 
ATOM     15  C   UNL d   1      23.032 -16.676  -0.777  0.00  0.00     0.015 A 
ATOM     16  C   UNL d   1      21.668 -16.998  -0.898  0.00  0.00     0.024 A 
ATOM     17  C   UNL d   1      21.229 -18.325  -0.878  0.00  0.00     0.005 A 
ATOM     18  C   UNL d   1      22.174 -19.316  -0.604  0.00  0.00     0.024 A 
ATOM     19  C   UNL d   1      23.541 -19.000  -0.446  0.00  0.00     0.015 A 
BRANCH  17  20
ATOM     20  N   UNL d   1      19.862 -18.618  -0.896  0.00  0.00    -0.303 NA
ATOM     21  H   UNL d   1      19.275 -17.912  -1.329  0.00  0.00     0.124 HD
ATOM     22  H   UNL d   1      19.615 -19.560  -1.183  0.00  0.00     0.124 HD
ENDBRANCH  17  20
ENDBRANCH  12  14
ENDBRANCH   8  11
ENDBRANCH   1   7
BRANCH   3  23
ATOM     23  C   UNL d   1      32.831 -15.544   1.014  0.00  0.00    -0.008 A 
ATOM     24  C   UNL d   1      33.554 -14.472   0.477  0.00  0.00     0.016 A 
ATOM     25  C   UNL d   1      34.638 -13.923   1.177  0.00  0.00     0.037 A 
ATOM     26  C   UNL d   1      34.972 -14.388   2.451  0.00  0.00     0.069 A 
ATOM     27  C   UNL d   1      34.247 -15.452   2.992  0.00  0.00     0.037 A 
ATOM     28  C   UNL d   1      33.187 -16.023   2.280  0.00  0.00     0.016 A 
BRANCH  26  29
ATOM     29  O   UNL d   1      35.998 -13.724   3.070  0.00  0.00    -0.347 OA
BRANCH  29  30
ATOM     30  C   UNL d   1      35.611 -12.825   4.116  0.00  0.00     0.216 C 
BRANCH  30  31
ATOM     31  C   UNL d   1      34.635 -11.790   3.609  0.00  0.00    -0.012 A 
ATOM     32  C   UNL d   1      33.301 -11.841   4.053  0.00  0.00     0.011 A 
ATOM     33  C   UNL d   1      32.320 -11.039   3.469  0.00  0.00     0.001 A 
ATOM     34  C   UNL d   1      32.669 -10.119   2.485  0.00  0.00     0.002 A 
ATOM     35  C   UNL d   1      33.993 -10.025   2.060  0.00  0.00     0.024 A 
ATOM     36  C   UNL d   1      34.970 -10.860   2.611  0.00  0.00     0.042 A 
ATOM     37 CL   UNL d   1      36.581 -10.689   2.004  0.00  0.00    -0.084 Cl
ENDBRANCH  30  31
ENDBRANCH  29  30
ENDBRANCH  26  29
ENDBRANCH   3  23
TORSDOF 8
ENDMDL
MODEL 4
REMARK VINA RESULT:   -28.409      3.015      4.323
REMARK INTER + INTRA:         -32.227
REMARK INTER:                 -30.795
REMARK INTRA:                  -1.432
REMARK CONF_INDEPENDENT:        2.386
REMARK UNBOUND:                -1.432
REMARK  8 active torsions:
REMARK  status: ('A' for Active; 'I' for Inactive)
REMARK    1  A    between atoms: C_2  and  C_27 
REMARK    2  A    between atoms: N_3  and  N_4 
REMARK       I    between atoms: N_4  and  C_5 
REMARK    3  A    between atoms: C_5  and  C_7 
REMARK    4  A    between atoms: C_9  and  C_10 
REMARK    5  A    between atoms: C_13  and  O_14 
REMARK    6  A    between atoms: O_14  and  C_15 
REMARK    7  A    between atoms: C_15  and  C_16 
REMARK    8  A    between atoms: C_30  and  N_31 
ROOT
ATOM      1  C   UNL d   1      28.793 -13.957   0.682  0.00  0.00     0.148 A 
ATOM      2  C   UNL d   1      29.826 -14.743   1.278  0.00  0.00     0.071 A 
ATOM      3  C   UNL d   1      31.007 -14.037   1.116  0.00  0.00     0.062 A 
ATOM      4  N   UNL d   1      30.637 -12.898   0.452  0.00  0.00    -0.277 N 
ATOM      5  N   UNL d   1      29.321 -12.813   0.200  0.00  0.00    -0.169 NA
ATOM      6  H   UNL d   1      31.241 -12.158   0.107  0.00  0.00     0.189 HD
ENDROOT
BRANCH   1   7
ATOM      7  C   UNL d   1      27.352 -14.292   0.498  0.00  0.00     0.292 C 
ATOM      8  N   UNL d   1      27.089 -15.589   0.040  0.00  0.00    -0.241 N 
ATOM      9  H   UNL d   1      27.856 -16.242  -0.029  0.00  0.00     0.192 HD
ATOM     10  O   UNL d   1      26.465 -13.463   0.735  0.00  0.00    -0.264 OA
BRANCH   8  11
ATOM     11  N   UNL d   1      25.787 -16.008  -0.176  0.00  0.00    -0.176 NA
ATOM     12  C   UNL d   1      25.461 -17.273  -0.170  0.00  0.00     0.061 C 
ATOM     13  C   UNL d   1      26.425 -18.421   0.033  0.00  0.00     0.073 C 
BRANCH  12  14
ATOM     14  C   UNL d   1      24.017 -17.657  -0.423  0.00  0.00    -0.010 A 
ATOM     15  C   UNL d   1      23.088 -16.663  -0.740  0.00  0.00     0.015 A 
ATOM     16  C   UNL d   1      21.726 -16.975  -0.896  0.00  0.00     0.024 A 
ATOM     17  C   UNL d   1      21.271 -18.296  -0.842  0.00  0.00     0.005 A 
ATOM     18  C   UNL d   1      22.196 -19.287  -0.501  0.00  0.00     0.024 A 
ATOM     19  C   UNL d   1      23.560 -18.978  -0.309  0.00  0.00     0.015 A 
BRANCH  17  20
ATOM     20  N   UNL d   1      19.903 -18.576  -0.895  0.00  0.00    -0.303 NA
ATOM     21  H   UNL d   1      19.444 -18.661   0.007  0.00  0.00     0.124 HD
ATOM     22  H   UNL d   1      19.363 -18.025  -1.555  0.00  0.00     0.124 HD
ENDBRANCH  17  20
ENDBRANCH  12  14
ENDBRANCH   8  11
ENDBRANCH   1   7
BRANCH   3  23
ATOM     23  C   UNL d   1      32.398 -14.375   1.401  0.00  0.00    -0.008 A 
ATOM     24  C   UNL d   1      33.336 -14.543   0.375  0.00  0.00     0.016 A 
ATOM     25  C   UNL d   1      34.644 -14.953   0.668  0.00  0.00     0.037 A 
ATOM     26  C   UNL d   1      35.055 -15.132   1.991  0.00  0.00     0.069 A 
ATOM     27  C   UNL d   1      34.123 -14.957   3.015  0.00  0.00     0.037 A 
ATOM     28  C   UNL d   1      32.807 -14.582   2.722  0.00  0.00     0.016 A 
BRANCH  26  29
ATOM     29  O   UNL d   1      36.376 -15.456   2.159  0.00  0.00    -0.347 OA
BRANCH  29  30
ATOM     30  C   UNL d   1      36.767 -16.737   1.655  0.00  0.00     0.216 C 
BRANCH  30  31
ATOM     31  C   UNL d   1      35.684 -17.765   1.882  0.00  0.00    -0.012 A 
ATOM     32  C   UNL d   1      34.912 -18.191   0.785  0.00  0.00     0.011 A 
ATOM     33  C   UNL d   1      33.778 -18.982   0.971  0.00  0.00     0.001 A 
ATOM     34  C   UNL d   1      33.439 -19.423   2.246  0.00  0.00     0.002 A 
ATOM     35  C   UNL d   1      34.214 -19.045   3.341  0.00  0.00     0.024 A 
ATOM     36  C   UNL d   1      35.326 -18.214   3.164  0.00  0.00     0.042 A 
ATOM     37 CL   UNL d   1      36.213 -17.778   4.583  0.00  0.00    -0.084 Cl
ENDBRANCH  30  31
ENDBRANCH  29  30
ENDBRANCH  26  29
ENDBRANCH   3  23
TORSDOF 8
ENDMDL
MODEL 5
REMARK VINA RESULT:   -28.194      1.787      2.105
REMARK INTER + INTRA:         -32.006
REMARK INTER:                 -30.581
REMARK INTRA:                  -1.426
REMARK CONF_INDEPENDENT:        2.386
REMARK UNBOUND:                -1.426
REMARK  8 active torsions:
REMARK  status: ('A' for Active; 'I' for Inactive)
REMARK    1  A    between atoms: C_2  and  C_27 
REMARK    2  A    between atoms: N_3  and  N_4 
REMARK       I    between atoms: N_4  and  C_5 
REMARK    3  A    between atoms: C_5  and  C_7 
REMARK    4  A    between atoms: C_9  and  C_10 
REMARK    5  A    between atoms: C_13  and  O_14 
REMARK    6  A    between atoms: O_14  and  C_15 
REMARK    7  A    between atoms: C_15  and  C_16 
REMARK    8  A    between atoms: C_30  and  N_31 
ROOT
ATOM      1  C   UNL d   1      29.336 -15.459   0.460  0.00  0.00     0.148 A 
ATOM      2  C   UNL d   1      30.067 -14.751   1.463  0.00  0.00     0.071 A 
ATOM      3  C   UNL d   1      31.402 -14.813   1.099  0.00  0.00     0.062 A 
ATOM      4  N   UNL d   1      31.409 -15.530  -0.067  0.00  0.00    -0.277 N 
ATOM      5  N   UNL d   1      30.189 -15.909  -0.483  0.00  0.00    -0.169 NA
ATOM      6  H   UNL d   1      32.215 -15.829  -0.607  0.00  0.00     0.189 HD
ENDROOT
BRANCH   1   7
ATOM      7  C   UNL d   1      27.881 -15.774   0.411  0.00  0.00     0.292 C 
ATOM      8  N   UNL d   1      27.426 -16.334  -0.790  0.00  0.00    -0.241 N 
ATOM      9  H   UNL d   1      28.105 -16.591  -1.491  0.00  0.00     0.192 HD
ATOM     10  O   UNL d   1      27.141 -15.544   1.376  0.00  0.00    -0.264 OA
BRANCH   8  11
ATOM     11  N   UNL d   1      26.090 -16.660  -0.952  0.00  0.00    -0.176 NA
ATOM     12  C   UNL d   1      25.505 -17.563  -0.211  0.00  0.00     0.061 C 
ATOM     13  C   UNL d   1      26.185 -18.376   0.870  0.00  0.00     0.073 C 
BRANCH  12  14
ATOM     14  C   UNL d   1      24.043 -17.873  -0.453  0.00  0.00    -0.010 A 
ATOM     15  C   UNL d   1      23.163 -16.834  -0.768  0.00  0.00     0.015 A 
ATOM     16  C   UNL d   1      21.786 -17.077  -0.914  0.00  0.00     0.024 A 
ATOM     17  C   UNL d   1      21.265 -18.373  -0.852  0.00  0.00     0.005 A 
ATOM     18  C   UNL d   1      22.140 -19.408  -0.514  0.00  0.00     0.024 A 
ATOM     19  C   UNL d   1      23.519 -19.169  -0.332  0.00  0.00     0.015 A 
BRANCH  17  20
ATOM     20  N   UNL d   1      19.883 -18.583  -0.896  0.00  0.00    -0.303 NA
ATOM     21  H   UNL d   1      19.394 -18.087  -1.635  0.00  0.00     0.124 HD
ATOM     22  H   UNL d   1      19.579 -19.547  -0.806  0.00  0.00     0.124 HD
ENDBRANCH  17  20
ENDBRANCH  12  14
ENDBRANCH   8  11
ENDBRANCH   1   7
BRANCH   3  23
ATOM     23  C   UNL d   1      32.623 -14.389   1.778  0.00  0.00    -0.008 A 
ATOM     24  C   UNL d   1      33.727 -15.240   1.898  0.00  0.00     0.016 A 
ATOM     25  C   UNL d   1      34.856 -14.843   2.630  0.00  0.00     0.037 A 
ATOM     26  C   UNL d   1      34.927 -13.567   3.191  0.00  0.00     0.069 A 
ATOM     27  C   UNL d   1      33.830 -12.713   3.066  0.00  0.00     0.037 A 
ATOM     28  C   UNL d   1      32.689 -13.121   2.365  0.00  0.00     0.016 A 
BRANCH  26  29
ATOM     29  O   UNL d   1      36.109 -13.262   3.815  0.00  0.00    -0.347 OA
BRANCH  29  30
ATOM     30  C   UNL d   1      36.033 -13.092   5.234  0.00  0.00     0.216 C 
BRANCH  30  31
ATOM     31  C   UNL d   1      35.676 -11.669   5.594  0.00  0.00    -0.012 A 
ATOM     32  C   UNL d   1      35.843 -10.662   4.625  0.00  0.00     0.011 A 
ATOM     33  C   UNL d   1      35.720  -9.315   4.964  0.00  0.00     0.001 A 
ATOM     34  C   UNL d   1      35.355  -8.952   6.256  0.00  0.00     0.002 A 
ATOM     35  C   UNL d   1      35.147  -9.937   7.220  0.00  0.00     0.024 A 
ATOM     36  C   UNL d   1      35.314 -11.287   6.897  0.00  0.00     0.042 A 
ATOM     37 CL   UNL d   1      35.057 -12.436   8.164  0.00  0.00    -0.084 Cl
ENDBRANCH  30  31
ENDBRANCH  29  30
ENDBRANCH  26  29
ENDBRANCH   3  23
TORSDOF 8
ENDMDL
MODEL 6
REMARK VINA RESULT:   -28.158      2.072      2.523
REMARK INTER + INTRA:         -32.164
REMARK INTER:                 -30.545
REMARK INTRA:                  -1.619
REMARK CONF_INDEPENDENT:        2.386
REMARK UNBOUND:                -1.619
REMARK  8 active torsions:
REMARK  status: ('A' for Active; 'I' for Inactive)
REMARK    1  A    between atoms: C_2  and  C_27 
REMARK    2  A    between atoms: N_3  and  N_4 
REMARK       I    between atoms: N_4  and  C_5 
REMARK    3  A    between atoms: C_5  and  C_7 
REMARK    4  A    between atoms: C_9  and  C_10 
REMARK    5  A    between atoms: C_13  and  O_14 
REMARK    6  A    between atoms: O_14  and  C_15 
REMARK    7  A    between atoms: C_15  and  C_16 
REMARK    8  A    between atoms: C_30  and  N_31 
ROOT
ATOM      1  C   UNL d   1      28.946 -14.373   0.844  0.00  0.00     0.148 A 
ATOM      2  C   UNL d   1      29.564 -13.427   1.718  0.00  0.00     0.071 A 
ATOM      3  C   UNL d   1      30.932 -13.593   1.581  0.00  0.00     0.062 A 
ATOM      4  N   UNL d   1      31.066 -14.598   0.660  0.00  0.00    -0.277 N 
ATOM      5  N   UNL d   1      29.899 -15.066   0.187  0.00  0.00    -0.169 NA
ATOM      6  H   UNL d   1      31.925 -15.035   0.340  0.00  0.00     0.189 HD
ENDROOT
BRANCH   1   7
ATOM      7  C   UNL d   1      27.498 -14.681   0.672  0.00  0.00     0.292 C 
ATOM      8  N   UNL d   1      27.212 -15.840  -0.061  0.00  0.00    -0.241 N 
ATOM      9  H   UNL d   1      27.975 -16.445  -0.324  0.00  0.00     0.192 HD
ATOM     10  O   UNL d   1      26.624 -13.945   1.147  0.00  0.00    -0.264 OA
BRANCH   8  11
ATOM     11  N   UNL d   1      25.901 -16.220  -0.292  0.00  0.00    -0.176 NA
ATOM     12  C   UNL d   1      25.477 -17.428  -0.028  0.00  0.00     0.061 C 
ATOM     13  C   UNL d   1      26.331 -18.552   0.516  0.00  0.00     0.073 C 
BRANCH  12  14
ATOM     14  C   UNL d   1      24.030 -17.774  -0.316  0.00  0.00    -0.010 A 
ATOM     15  C   UNL d   1      23.147 -16.763  -0.707  0.00  0.00     0.015 A 
ATOM     16  C   UNL d   1      21.781 -17.037  -0.898  0.00  0.00     0.024 A 
ATOM     17  C   UNL d   1      21.280 -18.339  -0.807  0.00  0.00     0.005 A 
ATOM     18  C   UNL d   1      22.158 -19.344  -0.394  0.00  0.00     0.024 A 
ATOM     19  C   UNL d   1      23.524 -19.073  -0.166  0.00  0.00     0.015 A 
BRANCH  17  20
ATOM     20  N   UNL d   1      19.905 -18.575  -0.897  0.00  0.00    -0.303 NA
ATOM     21  H   UNL d   1      19.425 -18.680  -0.008  0.00  0.00     0.124 HD
ATOM     22  H   UNL d   1      19.395 -17.985  -1.547  0.00  0.00     0.124 HD
ENDBRANCH  17  20
ENDBRANCH  12  14
ENDBRANCH   8  11
ENDBRANCH   1   7
BRANCH   3  23
ATOM     23  C   UNL d   1      32.066 -13.011   2.292  0.00  0.00    -0.008 A 
ATOM     24  C   UNL d   1      32.101 -11.652   2.627  0.00  0.00     0.016 A 
ATOM     25  C   UNL d   1      33.238 -11.097   3.232  0.00  0.00     0.037 A 
ATOM     26  C   UNL d   1      34.325 -11.903   3.575  0.00  0.00     0.069 A 
ATOM     27  C   UNL d   1      34.289 -13.260   3.250  0.00  0.00     0.037 A 
ATOM     28  C   UNL d   1      33.169 -13.808   2.614  0.00  0.00     0.016 A 
BRANCH  26  29
ATOM     29  O   UNL d   1      35.346 -11.266   4.233  0.00  0.00    -0.347 OA
BRANCH  29  30
ATOM     30  C   UNL d   1      35.694 -11.813   5.509  0.00  0.00     0.216 C 
BRANCH  30  31
ATOM     31  C   UNL d   1      34.771 -11.302   6.591  0.00  0.00    -0.012 A 
ATOM     32  C   UNL d   1      34.020 -12.231   7.335  0.00  0.00     0.011 A 
ATOM     33  C   UNL d   1      33.012 -11.806   8.201  0.00  0.00     0.001 A 
ATOM     34  C   UNL d   1      32.788 -10.447   8.395  0.00  0.00     0.002 A 
ATOM     35  C   UNL d   1      33.548  -9.511   7.697  0.00  0.00     0.024 A 
ATOM     36  C   UNL d   1      34.529  -9.933   6.793  0.00  0.00     0.042 A 
ATOM     37 CL   UNL d   1      35.405  -8.701   5.954  0.00  0.00    -0.084 Cl
ENDBRANCH  30  31
ENDBRANCH  29  30
ENDBRANCH  26  29
ENDBRANCH   3  23
TORSDOF 8
ENDMDL
MODEL 7
REMARK VINA RESULT:   -27.987      2.343      2.888
REMARK INTER + INTRA:         -32.025
REMARK INTER:                 -30.374
REMARK INTRA:                  -1.652
REMARK CONF_INDEPENDENT:        2.386
REMARK UNBOUND:                -1.652
REMARK  8 active torsions:
REMARK  status: ('A' for Active; 'I' for Inactive)
REMARK    1  A    between atoms: C_2  and  C_27 
REMARK    2  A    between atoms: N_3  and  N_4 
REMARK       I    between atoms: N_4  and  C_5 
REMARK    3  A    between atoms: C_5  and  C_7 
REMARK    4  A    between atoms: C_9  and  C_10 
REMARK    5  A    between atoms: C_13  and  O_14 
REMARK    6  A    between atoms: O_14  and  C_15 
REMARK    7  A    between atoms: C_15  and  C_16 
REMARK    8  A    between atoms: C_30  and  N_31 
ROOT
ATOM      1  C   UNL d   1      28.906 -14.297   0.660  0.00  0.00     0.148 A 
ATOM      2  C   UNL d   1      29.499 -13.177   1.318  0.00  0.00     0.071 A 
ATOM      3  C   UNL d   1      30.871 -13.343   1.228  0.00  0.00     0.062 A 
ATOM      4  N   UNL d   1      31.031 -14.516   0.541  0.00  0.00    -0.277 N 
ATOM      5  N   UNL d   1      29.877 -15.095   0.170  0.00  0.00    -0.169 NA
ATOM      6  H   UNL d   1      31.900 -14.996   0.327  0.00  0.00     0.189 HD
ENDROOT
BRANCH   1   7
ATOM      7  C   UNL d   1      27.465 -14.661   0.546  0.00  0.00     0.292 C 
ATOM      8  N   UNL d   1      27.174 -15.691  -0.358  0.00  0.00    -0.241 N 
ATOM      9  H   UNL d   1      27.940 -16.191  -0.783  0.00  0.00     0.192 HD
ATOM     10  O   UNL d   1      26.600 -14.076   1.210  0.00  0.00    -0.264 OA
BRANCH   8  11
ATOM     11  N   UNL d   1      25.867 -16.107  -0.552  0.00  0.00    -0.176 NA
ATOM     12  C   UNL d   1      25.455 -17.285  -0.167  0.00  0.00     0.061 C 
ATOM     13  C   UNL d   1      26.319 -18.338   0.493  0.00  0.00     0.073 C 
BRANCH  12  14
ATOM     14  C   UNL d   1      24.014 -17.675  -0.422  0.00  0.00    -0.010 A 
ATOM     15  C   UNL d   1      23.079 -16.684  -0.735  0.00  0.00     0.015 A 
ATOM     16  C   UNL d   1      21.719 -17.002  -0.892  0.00  0.00     0.024 A 
ATOM     17  C   UNL d   1      21.271 -18.326  -0.845  0.00  0.00     0.005 A 
ATOM     18  C   UNL d   1      22.200 -19.313  -0.509  0.00  0.00     0.024 A 
ATOM     19  C   UNL d   1      23.563 -18.999  -0.315  0.00  0.00     0.015 A 
BRANCH  17  20
ATOM     20  N   UNL d   1      19.904 -18.612  -0.900  0.00  0.00    -0.303 NA
ATOM     21  H   UNL d   1      19.342 -17.942  -1.417  0.00  0.00     0.124 HD
ATOM     22  H   UNL d   1      19.661 -19.574  -1.119  0.00  0.00     0.124 HD
ENDBRANCH  17  20
ENDBRANCH  12  14
ENDBRANCH   8  11
ENDBRANCH   1   7
BRANCH   3  23
ATOM     23  C   UNL d   1      31.987 -12.602   1.807  0.00  0.00    -0.008 A 
ATOM     24  C   UNL d   1      32.482 -12.902   3.082  0.00  0.00     0.016 A 
ATOM     25  C   UNL d   1      33.496 -12.121   3.653  0.00  0.00     0.037 A 
ATOM     26  C   UNL d   1      34.081 -11.077   2.934  0.00  0.00     0.069 A 
ATOM     27  C   UNL d   1      33.595 -10.781   1.659  0.00  0.00     0.037 A 
ATOM     28  C   UNL d   1      32.558 -11.538   1.102  0.00  0.00     0.016 A 
BRANCH  26  29
ATOM     29  O   UNL d   1      35.116 -10.435   3.563  0.00  0.00    -0.347 OA
BRANCH  29  30
ATOM     30  C   UNL d   1      36.390 -11.082   3.473  0.00  0.00     0.216 C 
BRANCH  30  31
ATOM     31  C   UNL d   1      36.411 -12.357   4.282  0.00  0.00    -0.012 A 
ATOM     32  C   UNL d   1      36.434 -12.269   5.686  0.00  0.00     0.011 A 
ATOM     33  C   UNL d   1      36.653 -13.401   6.472  0.00  0.00     0.001 A 
ATOM     34  C   UNL d   1      36.780 -14.650   5.873  0.00  0.00     0.002 A 
ATOM     35  C   UNL d   1      36.721 -14.763   4.485  0.00  0.00     0.024 A 
ATOM     36  C   UNL d   1      36.546 -13.625   3.691  0.00  0.00     0.042 A 
ATOM     37 CL   UNL d   1      36.510 -13.860   1.978  0.00  0.00    -0.084 Cl
ENDBRANCH  30  31
ENDBRANCH  29  30
ENDBRANCH  26  29
ENDBRANCH   3  23
TORSDOF 8
ENDMDL
MODEL 8
REMARK VINA RESULT:   -27.987      2.381      3.051
REMARK INTER + INTRA:         -32.222
REMARK INTER:                 -30.373
REMARK INTRA:                  -1.849
REMARK CONF_INDEPENDENT:        2.386
REMARK UNBOUND:                -1.849
REMARK  8 active torsions:
REMARK  status: ('A' for Active; 'I' for Inactive)
REMARK    1  A    between atoms: C_2  and  C_27 
REMARK    2  A    between atoms: N_3  and  N_4 
REMARK       I    between atoms: N_4  and  C_5 
REMARK    3  A    between atoms: C_5  and  C_7 
REMARK    4  A    between atoms: C_9  and  C_10 
REMARK    5  A    between atoms: C_13  and  O_14 
REMARK    6  A    between atoms: O_14  and  C_15 
REMARK    7  A    between atoms: C_15  and  C_16 
REMARK    8  A    between atoms: C_30  and  N_31 
ROOT
ATOM      1  C   UNL d   1      28.759 -14.198   1.201  0.00  0.00     0.148 A 
ATOM      2  C   UNL d   1      29.320 -13.034   1.810  0.00  0.00     0.071 A 
ATOM      3  C   UNL d   1      30.685 -13.249   1.896  0.00  0.00     0.062 A 
ATOM      4  N   UNL d   1      30.873 -14.491   1.352  0.00  0.00    -0.277 N 
ATOM      5  N   UNL d   1      29.746 -15.071   0.909  0.00  0.00    -0.169 NA
ATOM      6  H   UNL d   1      31.741 -15.015   1.289  0.00  0.00     0.189 HD
ENDROOT
BRANCH   1   7
ATOM      7  C   UNL d   1      27.327 -14.529   0.958  0.00  0.00     0.292 C 
ATOM      8  N   UNL d   1      27.095 -15.707   0.236  0.00  0.00    -0.241 N 
ATOM      9  H   UNL d   1      27.879 -16.307   0.027  0.00  0.00     0.192 HD
ATOM     10  O   UNL d   1      26.419 -13.796   1.369  0.00  0.00    -0.264 OA
BRANCH   8  11
ATOM     11  N   UNL d   1      25.803 -16.110  -0.057  0.00  0.00    -0.176 NA
ATOM     12  C   UNL d   1      25.414 -17.347   0.100  0.00  0.00     0.061 C 
ATOM     13  C   UNL d   1      26.294 -18.483   0.577  0.00  0.00     0.073 C 
BRANCH  12  14
ATOM     14  C   UNL d   1      23.988 -17.716  -0.250  0.00  0.00    -0.010 A 
ATOM     15  C   UNL d   1      23.097 -16.714  -0.647  0.00  0.00     0.015 A 
ATOM     16  C   UNL d   1      21.746 -17.011  -0.896  0.00  0.00     0.024 A 
ATOM     17  C   UNL d   1      21.270 -18.325  -0.857  0.00  0.00     0.005 A 
ATOM     18  C   UNL d   1      22.154 -19.322  -0.437  0.00  0.00     0.024 A 
ATOM     19  C   UNL d   1      23.505 -19.029  -0.152  0.00  0.00     0.015 A 
BRANCH  17  20
ATOM     20  N   UNL d   1      19.905 -18.588  -1.004  0.00  0.00    -0.303 NA
ATOM     21  H   UNL d   1      19.339 -17.792  -1.284  0.00  0.00     0.124 HD
ATOM     22  H   UNL d   1      19.669 -19.432  -1.518  0.00  0.00     0.124 HD
ENDBRANCH  17  20
ENDBRANCH  12  14
ENDBRANCH   8  11
ENDBRANCH   1   7
BRANCH   3  23
ATOM     23  C   UNL d   1      31.759 -12.486   2.525  0.00  0.00    -0.008 A 
ATOM     24  C   UNL d   1      32.954 -13.096   2.924  0.00  0.00     0.016 A 
ATOM     25  C   UNL d   1      33.935 -12.361   3.605  0.00  0.00     0.037 A 
ATOM     26  C   UNL d   1      33.769 -10.994   3.835  0.00  0.00     0.069 A 
ATOM     27  C   UNL d   1      32.581 -10.382   3.431  0.00  0.00     0.037 A 
ATOM     28  C   UNL d   1      31.586 -11.122   2.782  0.00  0.00     0.016 A 
BRANCH  26  29
ATOM     29  O   UNL d   1      34.827 -10.365   4.438  0.00  0.00    -0.347 OA
BRANCH  29  30
ATOM     30  C   UNL d   1      34.999 -10.643   5.831  0.00  0.00     0.216 C 
BRANCH  30  31
ATOM     31  C   UNL d   1      33.676 -10.617   6.559  0.00  0.00    -0.012 A 
ATOM     32  C   UNL d   1      33.145 -11.826   7.046  0.00  0.00     0.011 A 
ATOM     33  C   UNL d   1      31.843 -11.887   7.545  0.00  0.00     0.001 A 
ATOM     34  C   UNL d   1      31.078 -10.729   7.636  0.00  0.00     0.002 A 
ATOM     35  C   UNL d   1      31.601  -9.515   7.196  0.00  0.00     0.024 A 
ATOM     36  C   UNL d   1      32.888  -9.457   6.652  0.00  0.00     0.042 A 
ATOM     37 CL   UNL d   1      33.443  -7.911   6.111  0.00  0.00    -0.084 Cl
ENDBRANCH  30  31
ENDBRANCH  29  30
ENDBRANCH  26  29
ENDBRANCH   3  23
TORSDOF 8
ENDMDL
MODEL 9
REMARK VINA RESULT:   -27.957      2.167      2.520
REMARK INTER + INTRA:         -32.250
REMARK INTER:                 -30.344
REMARK INTRA:                  -1.906
REMARK CONF_INDEPENDENT:        2.386
REMARK UNBOUND:                -1.906
REMARK  8 active torsions:
REMARK  status: ('A' for Active; 'I' for Inactive)
REMARK    1  A    between atoms: C_2  and  C_27 
REMARK    2  A    between atoms: N_3  and  N_4 
REMARK       I    between atoms: N_4  and  C_5 
REMARK    3  A    between atoms: C_5  and  C_7 
REMARK    4  A    between atoms: C_9  and  C_10 
REMARK    5  A    between atoms: C_13  and  O_14 
REMARK    6  A    between atoms: O_14  and  C_15 
REMARK    7  A    between atoms: C_15  and  C_16 
REMARK    8  A    between atoms: C_30  and  N_31 
ROOT
ATOM      1  C   UNL d   1      28.903 -14.250   0.790  0.00  0.00     0.148 A 
ATOM      2  C   UNL d   1      29.507 -13.084   1.352  0.00  0.00     0.071 A 
ATOM      3  C   UNL d   1      30.870 -13.326   1.399  0.00  0.00     0.062 A 
ATOM      4  N   UNL d   1      31.014 -14.584   0.878  0.00  0.00    -0.277 N 
ATOM      5  N   UNL d   1      29.861 -15.149   0.486  0.00  0.00    -0.169 NA
ATOM      6  H   UNL d   1      31.868 -15.128   0.799  0.00  0.00     0.189 HD
ENDROOT
BRANCH   1   7
ATOM      7  C   UNL d   1      27.456 -14.555   0.601  0.00  0.00     0.292 C 
ATOM      8  N   UNL d   1      27.175 -15.789   0.001  0.00  0.00    -0.241 N 
ATOM      9  H   UNL d   1      27.935 -16.432  -0.161  0.00  0.00     0.192 HD
ATOM     10  O   UNL d   1      26.579 -13.756   0.953  0.00  0.00    -0.264 OA
BRANCH   8  11
ATOM     11  N   UNL d   1      25.866 -16.176  -0.232  0.00  0.00    -0.176 NA
ATOM     12  C   UNL d   1      25.476 -17.414  -0.083  0.00  0.00     0.061 C 
ATOM     13  C   UNL d   1      26.371 -18.567   0.317  0.00  0.00     0.073 C 
BRANCH  12  14
ATOM     14  C   UNL d   1      24.030 -17.764  -0.366  0.00  0.00    -0.010 A 
ATOM     15  C   UNL d   1      23.132 -16.750  -0.711  0.00  0.00     0.015 A 
ATOM     16  C   UNL d   1      21.767 -17.030  -0.895  0.00  0.00     0.024 A 
ATOM     17  C   UNL d   1      21.279 -18.339  -0.841  0.00  0.00     0.005 A 
ATOM     18  C   UNL d   1      22.171 -19.349  -0.473  0.00  0.00     0.024 A 
ATOM     19  C   UNL d   1      23.537 -19.073  -0.252  0.00  0.00     0.015 A 
BRANCH  17  20
ATOM     20  N   UNL d   1      19.905 -18.586  -0.923  0.00  0.00    -0.303 NA
ATOM     21  H   UNL d   1      19.428 -18.673  -0.031  0.00  0.00     0.124 HD
ATOM     22  H   UNL d   1      19.390 -18.012  -1.585  0.00  0.00     0.124 HD
ENDBRANCH  17  20
ENDBRANCH  12  14
ENDBRANCH   8  11
ENDBRANCH   1   7
BRANCH   3  23
ATOM     23  C   UNL d   1      31.979 -12.572   1.974  0.00  0.00    -0.008 A 
ATOM     24  C   UNL d   1      32.048 -11.178   1.873  0.00  0.00     0.016 A 
ATOM     25  C   UNL d   1      33.167 -10.483   2.357  0.00  0.00     0.037 A 
ATOM     26  C   UNL d   1      34.197 -11.162   3.011  0.00  0.00     0.069 A 
ATOM     27  C   UNL d   1      34.127 -12.552   3.120  0.00  0.00     0.037 A 
ATOM     28  C   UNL d   1      33.028 -13.249   2.606  0.00  0.00     0.016 A 
BRANCH  26  29
ATOM     29  O   UNL d   1      35.199 -10.371   3.510  0.00  0.00    -0.347 OA
BRANCH  29  30
ATOM     30  C   UNL d   1      34.804  -9.439   4.523  0.00  0.00     0.216 C 
BRANCH  30  31
ATOM     31  C   UNL d   1      34.039 -10.128   5.628  0.00  0.00    -0.012 A 
ATOM     32  C   UNL d   1      34.678 -11.142   6.365  0.00  0.00     0.011 A 
ATOM     33  C   UNL d   1      33.960 -11.941   7.255  0.00  0.00     0.001 A 
ATOM     34  C   UNL d   1      32.610 -11.692   7.481  0.00  0.00     0.002 A 
ATOM     35  C   UNL d   1      31.969 -10.666   6.790  0.00  0.00     0.024 A 
ATOM     36  C   UNL d   1      32.674  -9.892   5.863  0.00  0.00     0.042 A 
ATOM     37 CL   UNL d   1      31.789  -8.657   5.037  0.00  0.00    -0.084 Cl
ENDBRANCH  30  31
ENDBRANCH  29  30
ENDBRANCH  26  29
ENDBRANCH   3  23
TORSDOF 8
ENDMDL
