MODEL 1
REMARK VINA RESULT:    -8.379      0.000      0.000
REMARK INTER + INTRA:         -16.572
REMARK INTER:                 -12.853
REMARK INTRA:                  -3.719
REMARK CONF_INDEPENDENT:        4.474
REMARK UNBOUND:                -3.719
REMARK  15 active torsions:
REMARK  status: ('A' for Active; 'I' for Inactive)
REMARK    1  A    between atoms: C_2  and  N_3 
REMARK       I    between atoms: N_3  and  C_4 
REMARK    2  A    between atoms: N_3  and  C_33 
REMARK    3  A    between atoms: C_4  and  C_6 
REMARK    4  A    between atoms: C_9  and  N_10 
REMARK    5  A    between atoms: N_10  and  C_11 
REMARK    6  A    between atoms: C_11  and  N_13 
REMARK       I    between atoms: N_13  and  C_14 
REMARK    7  A    between atoms: C_14  and  C_16 
REMARK    8  A    between atoms: C_16  and  C_17 
REMARK    9  A    between atoms: C_17  and  C_18 
REMARK   10  A    between atoms: C_18  and  C_19 
REMARK   11  A    between atoms: C_19  and  O_21 
REMARK   12  A    between atoms: O_21  and  C_22 
REMARK   13  A    between atoms: C_22  and  C_23 
REMARK   14  A    between atoms: C_23  and  C_24 
REMARK   15  A    between atoms: C_24  and  C_25 
ROOT
ATOM      1  C   UNL d   1      28.063 -13.238  -1.047  0.00  0.00     0.178 C 
ATOM      2  S   UNL d   1      29.251 -14.427  -1.274  0.00  0.00    -0.040 SA
ENDROOT
BRANCH   1   3
ATOM      3  N   UNL d   1      27.800 -12.578   0.199  0.00  0.00    -0.333 N 
ATOM      4  H   UNL d   1      27.596 -11.584   0.196  0.00  0.00     0.168 HD
BRANCH   3   5
ATOM      5  C   UNL d   1      27.913 -13.165   1.544  0.00  0.00     0.034 C 
ATOM      6  C   UNL d   1      26.839 -13.294   2.440  0.00  0.00     0.030 C 
ATOM      7  C   UNL d   1      27.071 -13.671   3.809  0.00  0.00     0.019 C 
ATOM      8  C   UNL d   1      28.346 -14.068   4.250  0.00  0.00     0.032 C 
ATOM      9  C   UNL d   1      29.313 -14.232   3.299  0.00  0.00     0.019 C 
ATOM     10  C   UNL d   1      29.115 -13.675   2.039  0.00  0.00     0.030 C 
BRANCH   8  11
ATOM     11  C   UNL d   1      28.713 -14.376   5.653  0.00  0.00     0.258 C 
ATOM     12  N   UNL d   1      28.861 -13.353   6.647  0.00  0.00    -0.314 N 
ATOM     13  O   UNL d   1      28.879 -15.580   5.861  0.00  0.00    -0.267 OA
BRANCH  12  14
ATOM     14  C   UNL d   1      28.502 -11.896   6.570  0.00  0.00     0.128 C 
ATOM     15  C   UNL d   1      28.364 -11.214   5.228  0.00  0.00     0.027 C 
ENDBRANCH  12  14
BRANCH  12  16
ATOM     16  C   UNL d   1      29.345 -13.771   7.958  0.00  0.00     0.037 A 
ATOM     17  C   UNL d   1      30.618 -14.335   8.116  0.00  0.00     0.029 A 
ATOM     18  C   UNL d   1      31.022 -14.889   9.338  0.00  0.00     0.002 A 
ATOM     19  C   UNL d   1      30.187 -14.821  10.449  0.00  0.00     0.000 A 
ATOM     20  C   UNL d   1      28.945 -14.209  10.332  0.00  0.00     0.002 A 
ATOM     21  C   UNL d   1      28.532 -13.681   9.102  0.00  0.00     0.029 A 
ENDBRANCH  12  16
ENDBRANCH   8  11
ENDBRANCH   3   5
ENDBRANCH   1   3
BRANCH   1  22
ATOM     22  N   UNL d   1      27.277 -12.819  -2.159  0.00  0.00    -0.304 N 
ATOM     23  C   UNL d   1      26.900 -11.473  -2.360  0.00  0.00     0.223 C 
ATOM     24  O   UNL d   1      27.286 -10.536  -1.658  0.00  0.00    -0.273 OA
ATOM     25  H   UNL d   1      26.936 -13.505  -2.816  0.00  0.00     0.171 HD
BRANCH  23  26
ATOM     26  C   UNL d   1      25.993 -11.072  -3.510  0.00  0.00     0.103 C 
BRANCH  26  27
ATOM     27  C   UNL d   1      25.201 -12.354  -3.929  0.00  0.00     0.019 C 
BRANCH  27  28
ATOM     28  C   UNL d   1      25.847 -13.206  -5.012  0.00  0.00     0.111 C 
BRANCH  28  29
ATOM     29  C   UNL d   1      25.886 -14.671  -4.610  0.00  0.00     0.258 C 
ATOM     30  O   UNL d   1      26.361 -15.582  -5.304  0.00  0.00    -0.265 OA
BRANCH  29  31
ATOM     31  O   UNL d   1      25.330 -14.871  -3.382  0.00  0.00    -0.321 OA
BRANCH  31  32
ATOM     32  C   UNL d   1      25.539 -16.199  -2.859  0.00  0.00     0.179 C 
BRANCH  32  33
ATOM     33  C   UNL d   1      26.389 -16.139  -1.594  0.00  0.00     0.031 C 
BRANCH  33  34
ATOM     34  C   UNL d   1      25.529 -16.256  -0.328  0.00  0.00     0.041 C 
BRANCH  34  35
ATOM     35  C   UNL d   1      24.320 -17.119  -0.588  0.00  0.00    -0.058 A 
ATOM     36  C   UNL d   1      23.066 -16.543  -0.833  0.00  0.00     0.007 A 
ATOM     37  C   UNL d   1      21.925 -17.345  -0.891  0.00  0.00     0.001 A 
ATOM     38  C   UNL d   1      22.037 -18.730  -0.786  0.00  0.00     0.000 A 
ATOM     39  C   UNL d   1      23.286 -19.315  -0.586  0.00  0.00     0.001 A 
ATOM     40  C   UNL d   1      24.421 -18.513  -0.480  0.00  0.00     0.007 A 
ENDBRANCH  34  35
ENDBRANCH  33  34
ENDBRANCH  32  33
ENDBRANCH  31  32
ENDBRANCH  29  31
ENDBRANCH  28  29
ENDBRANCH  27  28
ENDBRANCH  26  27
ENDBRANCH  23  26
ENDBRANCH   1  22
TORSDOF 15
ENDMDL
MODEL 2
REMARK VINA RESULT:    -7.721      2.356      4.558
REMARK INTER + INTRA:         -16.211
REMARK INTER:                 -12.196
REMARK INTRA:                  -4.015
REMARK CONF_INDEPENDENT:        4.474
REMARK UNBOUND:                -4.015
REMARK  15 active torsions:
REMARK  status: ('A' for Active; 'I' for Inactive)
REMARK    1  A    between atoms: C_2  and  N_3 
REMARK       I    between atoms: N_3  and  C_4 
REMARK    2  A    between atoms: N_3  and  C_33 
REMARK    3  A    between atoms: C_4  and  C_6 
REMARK    4  A    between atoms: C_9  and  N_10 
REMARK    5  A    between atoms: N_10  and  C_11 
REMARK    6  A    between atoms: C_11  and  N_13 
REMARK       I    between atoms: N_13  and  C_14 
REMARK    7  A    between atoms: C_14  and  C_16 
REMARK    8  A    between atoms: C_16  and  C_17 
REMARK    9  A    between atoms: C_17  and  C_18 
REMARK   10  A    between atoms: C_18  and  C_19 
REMARK   11  A    between atoms: C_19  and  O_21 
REMARK   12  A    between atoms: O_21  and  C_22 
REMARK   13  A    between atoms: C_22  and  C_23 
REMARK   14  A    between atoms: C_23  and  C_24 
REMARK   15  A    between atoms: C_24  and  C_25 
ROOT
ATOM      1  C   UNL d   1      27.782 -14.489   0.602  0.00  0.00     0.178 C 
ATOM      2  S   UNL d   1      28.166 -13.009  -0.130  0.00  0.00    -0.040 SA
ENDROOT
BRANCH   1   3
ATOM      3  N   UNL d   1      28.461 -15.036   1.741  0.00  0.00    -0.333 N 
ATOM      4  H   UNL d   1      28.804 -15.990   1.699  0.00  0.00     0.168 HD
BRANCH   3   5
ATOM      5  C   UNL d   1      28.621 -14.397   3.057  0.00  0.00     0.034 C 
ATOM      6  C   UNL d   1      29.852 -14.248   3.716  0.00  0.00     0.030 C 
ATOM      7  C   UNL d   1      29.899 -13.816   5.088  0.00  0.00     0.019 C 
ATOM      8  C   UNL d   1      28.739 -13.387   5.757  0.00  0.00     0.032 C 
ATOM      9  C   UNL d   1      27.603 -13.247   5.011  0.00  0.00     0.019 C 
ATOM     10  C   UNL d   1      27.544 -13.854   3.761  0.00  0.00     0.030 C 
BRANCH   8  11
ATOM     11  C   UNL d   1      28.661 -13.021   7.192  0.00  0.00     0.258 C 
ATOM     12  N   UNL d   1      29.531 -13.596   8.176  0.00  0.00    -0.314 N 
ATOM     13  O   UNL d   1      27.779 -12.195   7.438  0.00  0.00    -0.267 OA
BRANCH  12  14
ATOM     14  C   UNL d   1      30.752 -14.450   7.981  0.00  0.00     0.128 C 
ATOM     15  C   UNL d   1      31.452 -15.064   9.172  0.00  0.00     0.027 C 
ENDBRANCH  12  14
BRANCH  12  16
ATOM     16  C   UNL d   1      29.274 -13.249   9.569  0.00  0.00     0.037 A 
ATOM     17  C   UNL d   1      28.178 -13.785  10.260  0.00  0.00     0.029 A 
ATOM     18  C   UNL d   1      27.830 -13.329  11.539  0.00  0.00     0.002 A 
ATOM     19  C   UNL d   1      28.619 -12.381  12.184  0.00  0.00     0.000 A 
ATOM     20  C   UNL d   1      29.747 -11.882  11.544  0.00  0.00     0.002 A 
ATOM     21  C   UNL d   1      30.076 -12.319  10.254  0.00  0.00     0.029 A 
ENDBRANCH  12  16
ENDBRANCH   8  11
ENDBRANCH   3   5
ENDBRANCH   1   3
BRANCH   1  22
ATOM     22  N   UNL d   1      26.691 -15.253   0.095  0.00  0.00    -0.304 N 
ATOM     23  C   UNL d   1      26.679 -16.665   0.109  0.00  0.00     0.223 C 
ATOM     24  O   UNL d   1      27.551 -17.357   0.637  0.00  0.00    -0.273 OA
ATOM     25  H   UNL d   1      25.906 -14.781  -0.330  0.00  0.00     0.171 HD
BRANCH  23  26
ATOM     26  C   UNL d   1      25.537 -17.450  -0.514  0.00  0.00     0.103 C 
BRANCH  26  27
ATOM     27  C   UNL d   1      25.311 -16.859  -1.944  0.00  0.00     0.019 C 
BRANCH  27  28
ATOM     28  C   UNL d   1      24.405 -15.637  -2.020  0.00  0.00     0.111 C 
BRANCH  28  29
ATOM     29  C   UNL d   1      25.095 -14.483  -2.728  0.00  0.00     0.258 C 
ATOM     30  O   UNL d   1      25.786 -13.621  -2.167  0.00  0.00    -0.265 OA
BRANCH  29  31
ATOM     31  O   UNL d   1      24.862 -14.506  -4.071  0.00  0.00    -0.321 OA
BRANCH  31  32
ATOM     32  C   UNL d   1      25.906 -15.150  -4.830  0.00  0.00     0.179 C 
BRANCH  32  33
ATOM     33  C   UNL d   1      27.048 -14.173  -5.087  0.00  0.00     0.031 C 
BRANCH  33  34
ATOM     34  C   UNL d   1      28.289 -14.886  -5.644  0.00  0.00     0.041 C 
BRANCH  34  35
ATOM     35  C   UNL d   1      28.985 -15.663  -4.554  0.00  0.00    -0.058 A 
ATOM     36  C   UNL d   1      29.874 -16.699  -4.868  0.00  0.00     0.007 A 
ATOM     37  C   UNL d   1      30.370 -17.528  -3.860  0.00  0.00     0.001 A 
ATOM     38  C   UNL d   1      30.048 -17.278  -2.528  0.00  0.00     0.000 A 
ATOM     39  C   UNL d   1      29.199 -16.222  -2.202  0.00  0.00     0.001 A 
ATOM     40  C   UNL d   1      28.664 -15.423  -3.211  0.00  0.00     0.007 A 
ENDBRANCH  34  35
ENDBRANCH  33  34
ENDBRANCH  32  33
ENDBRANCH  31  32
ENDBRANCH  29  31
ENDBRANCH  28  29
ENDBRANCH  27  28
ENDBRANCH  26  27
ENDBRANCH  23  26
ENDBRANCH   1  22
TORSDOF 15
ENDMDL
MODEL 3
REMARK VINA RESULT:    -7.523      1.651      2.397
REMARK INTER + INTRA:         -16.560
REMARK INTER:                 -11.997
REMARK INTRA:                  -4.562
REMARK CONF_INDEPENDENT:        4.474
REMARK UNBOUND:                -4.562
REMARK  15 active torsions:
REMARK  status: ('A' for Active; 'I' for Inactive)
REMARK    1  A    between atoms: C_2  and  N_3 
REMARK       I    between atoms: N_3  and  C_4 
REMARK    2  A    between atoms: N_3  and  C_33 
REMARK    3  A    between atoms: C_4  and  C_6 
REMARK    4  A    between atoms: C_9  and  N_10 
REMARK    5  A    between atoms: N_10  and  C_11 
REMARK    6  A    between atoms: C_11  and  N_13 
REMARK       I    between atoms: N_13  and  C_14 
REMARK    7  A    between atoms: C_14  and  C_16 
REMARK    8  A    between atoms: C_16  and  C_17 
REMARK    9  A    between atoms: C_17  and  C_18 
REMARK   10  A    between atoms: C_18  and  C_19 
REMARK   11  A    between atoms: C_19  and  O_21 
REMARK   12  A    between atoms: O_21  and  C_22 
REMARK   13  A    between atoms: C_22  and  C_23 
REMARK   14  A    between atoms: C_23  and  C_24 
REMARK   15  A    between atoms: C_24  and  C_25 
ROOT
ATOM      1  C   UNL d   1      28.867 -14.543  -2.260  0.00  0.00     0.178 C 
ATOM      2  S   UNL d   1      29.453 -16.050  -1.750  0.00  0.00    -0.040 SA
ENDROOT
BRANCH   1   3
ATOM      3  N   UNL d   1      28.198 -13.600  -1.411  0.00  0.00    -0.333 N 
ATOM      4  H   UNL d   1      27.926 -12.699  -1.793  0.00  0.00     0.168 HD
BRANCH   3   5
ATOM      5  C   UNL d   1      27.958 -13.737   0.035  0.00  0.00     0.034 C 
ATOM      6  C   UNL d   1      26.823 -13.240   0.696  0.00  0.00     0.030 C 
ATOM      7  C   UNL d   1      26.765 -13.217   2.133  0.00  0.00     0.019 C 
ATOM      8  C   UNL d   1      27.765 -13.825   2.913  0.00  0.00     0.032 C 
ATOM      9  C   UNL d   1      28.703 -14.569   2.255  0.00  0.00     0.019 C 
ATOM     10  C   UNL d   1      28.845 -14.406   0.880  0.00  0.00     0.030 C 
BRANCH   8  11
ATOM     11  C   UNL d   1      27.853 -13.771   4.392  0.00  0.00     0.258 C 
ATOM     12  N   UNL d   1      28.334 -12.614   5.087  0.00  0.00    -0.314 N 
ATOM     13  O   UNL d   1      27.483 -14.812   4.941  0.00  0.00    -0.267 OA
BRANCH  12  14
ATOM     14  C   UNL d   1      28.625 -11.239   4.554  0.00  0.00     0.128 C 
ATOM     15  C   UNL d   1      27.559 -10.468   3.809  0.00  0.00     0.027 C 
ENDBRANCH  12  14
BRANCH  12  16
ATOM     16  C   UNL d   1      28.489 -12.728   6.533  0.00  0.00     0.037 A 
ATOM     17  C   UNL d   1      28.921 -13.924   7.123  0.00  0.00     0.029 A 
ATOM     18  C   UNL d   1      28.912 -14.093   8.514  0.00  0.00     0.002 A 
ATOM     19  C   UNL d   1      28.543 -13.040   9.347  0.00  0.00     0.000 A 
ATOM     20  C   UNL d   1      28.172 -11.825   8.785  0.00  0.00     0.002 A 
ATOM     21  C   UNL d   1      28.155 -11.667   7.393  0.00  0.00     0.029 A 
ENDBRANCH  12  16
ENDBRANCH   8  11
ENDBRANCH   3   5
ENDBRANCH   1   3
BRANCH   1  22
ATOM     22  N   UNL d   1      29.064 -14.141  -3.612  0.00  0.00    -0.304 N 
ATOM     23  C   UNL d   1      29.255 -12.792  -3.985  0.00  0.00     0.223 C 
ATOM     24  O   UNL d   1      29.361 -11.863  -3.183  0.00  0.00    -0.273 OA
ATOM     25  H   UNL d   1      29.030 -14.831  -4.348  0.00  0.00     0.171 HD
BRANCH  23  26
ATOM     26  C   UNL d   1      29.380 -12.388  -5.444  0.00  0.00     0.103 C 
BRANCH  26  27
ATOM     27  C   UNL d   1      28.171 -13.033  -6.197  0.00  0.00     0.019 C 
BRANCH  27  28
ATOM     28  C   UNL d   1      26.878 -13.144  -5.400  0.00  0.00     0.111 C 
BRANCH  28  29
ATOM     29  C   UNL d   1      26.473 -14.596  -5.207  0.00  0.00     0.258 C 
ATOM     30  O   UNL d   1      27.235 -15.565  -5.332  0.00  0.00    -0.265 OA
BRANCH  29  31
ATOM     31  O   UNL d   1      25.155 -14.710  -4.876  0.00  0.00    -0.321 OA
BRANCH  31  32
ATOM     32  C   UNL d   1      24.754 -13.851  -3.789  0.00  0.00     0.179 C 
BRANCH  32  33
ATOM     33  C   UNL d   1      25.172 -14.461  -2.455  0.00  0.00     0.031 C 
BRANCH  33  34
ATOM     34  C   UNL d   1      24.216 -15.580  -2.019  0.00  0.00     0.041 C 
BRANCH  34  35
ATOM     35  C   UNL d   1      24.903 -16.515  -1.055  0.00  0.00    -0.058 A 
ATOM     36  C   UNL d   1      26.256 -16.348  -0.733  0.00  0.00     0.007 A 
ATOM     37  C   UNL d   1      26.926 -17.320   0.013  0.00  0.00     0.001 A 
ATOM     38  C   UNL d   1      26.232 -18.422   0.509  0.00  0.00     0.000 A 
ATOM     39  C   UNL d   1      24.875 -18.574   0.231  0.00  0.00     0.001 A 
ATOM     40  C   UNL d   1      24.215 -17.629  -0.554  0.00  0.00     0.007 A 
ENDBRANCH  34  35
ENDBRANCH  33  34
ENDBRANCH  32  33
ENDBRANCH  31  32
ENDBRANCH  29  31
ENDBRANCH  28  29
ENDBRANCH  27  28
ENDBRANCH  26  27
ENDBRANCH  23  26
ENDBRANCH   1  22
TORSDOF 15
ENDMDL
MODEL 4
REMARK VINA RESULT:    -7.499      5.379      9.626
REMARK INTER + INTRA:         -16.011
REMARK INTER:                 -11.974
REMARK INTRA:                  -4.038
REMARK CONF_INDEPENDENT:        4.474
REMARK UNBOUND:                -4.038
REMARK  15 active torsions:
REMARK  status: ('A' for Active; 'I' for Inactive)
REMARK    1  A    between atoms: C_2  and  N_3 
REMARK       I    between atoms: N_3  and  C_4 
REMARK    2  A    between atoms: N_3  and  C_33 
REMARK    3  A    between atoms: C_4  and  C_6 
REMARK    4  A    between atoms: C_9  and  N_10 
REMARK    5  A    between atoms: N_10  and  C_11 
REMARK    6  A    between atoms: C_11  and  N_13 
REMARK       I    between atoms: N_13  and  C_14 
REMARK    7  A    between atoms: C_14  and  C_16 
REMARK    8  A    between atoms: C_16  and  C_17 
REMARK    9  A    between atoms: C_17  and  C_18 
REMARK   10  A    between atoms: C_18  and  C_19 
REMARK   11  A    between atoms: C_19  and  O_21 
REMARK   12  A    between atoms: O_21  and  C_22 
REMARK   13  A    between atoms: C_22  and  C_23 
REMARK   14  A    between atoms: C_23  and  C_24 
REMARK   15  A    between atoms: C_24  and  C_25 
ROOT
ATOM      1  C   UNL d   1      29.059 -14.950  -6.046  0.00  0.00     0.178 C 
ATOM      2  S   UNL d   1      30.288 -16.115  -6.123  0.00  0.00    -0.040 SA
ENDROOT
BRANCH   1   3
ATOM      3  N   UNL d   1      28.800 -13.970  -7.062  0.00  0.00    -0.333 N 
ATOM      4  H   UNL d   1      29.067 -14.172  -8.020  0.00  0.00     0.168 HD
BRANCH   3   5
ATOM      5  C   UNL d   1      28.285 -12.607  -6.855  0.00  0.00     0.034 C 
ATOM      6  C   UNL d   1      28.552 -11.828  -5.718  0.00  0.00     0.030 C 
ATOM      7  C   UNL d   1      27.838 -10.600  -5.488  0.00  0.00     0.019 C 
ATOM      8  C   UNL d   1      26.971 -10.069  -6.459  0.00  0.00     0.032 C 
ATOM      9  C   UNL d   1      26.956 -10.677  -7.683  0.00  0.00     0.019 C 
ATOM     10  C   UNL d   1      27.494 -11.955  -7.802  0.00  0.00     0.030 C 
BRANCH   8  11
ATOM     11  C   UNL d   1      26.114  -8.871  -6.284  0.00  0.00     0.258 C 
ATOM     12  N   UNL d   1      25.241  -8.715  -5.157  0.00  0.00    -0.314 N 
ATOM     13  O   UNL d   1      26.229  -8.051  -7.197  0.00  0.00    -0.267 OA
BRANCH  12  14
ATOM     14  C   UNL d   1      25.156  -9.535  -3.901  0.00  0.00     0.128 C 
ATOM     15  C   UNL d   1      26.024  -9.198  -2.709  0.00  0.00     0.027 C 
ENDBRANCH  12  14
BRANCH  12  16
ATOM     16  C   UNL d   1      24.360  -7.553  -5.161  0.00  0.00     0.037 A 
ATOM     17  C   UNL d   1      24.848  -6.271  -4.870  0.00  0.00     0.029 A 
ATOM     18  C   UNL d   1      23.981  -5.182  -4.708  0.00  0.00     0.002 A 
ATOM     19  C   UNL d   1      22.613  -5.338  -4.910  0.00  0.00     0.000 A 
ATOM     20  C   UNL d   1      22.114  -6.586  -5.262  0.00  0.00     0.002 A 
ATOM     21  C   UNL d   1      22.979  -7.679  -5.396  0.00  0.00     0.029 A 
ENDBRANCH  12  16
ENDBRANCH   8  11
ENDBRANCH   3   5
ENDBRANCH   1   3
BRANCH   1  22
ATOM     22  N   UNL d   1      28.182 -14.935  -4.922  0.00  0.00    -0.304 N 
ATOM     23  C   UNL d   1      26.815 -15.273  -5.019  0.00  0.00     0.223 C 
ATOM     24  O   UNL d   1      26.280 -15.696  -6.046  0.00  0.00    -0.273 OA
ATOM     25  H   UNL d   1      28.530 -14.636  -4.023  0.00  0.00     0.171 HD
BRANCH  23  26
ATOM     26  C   UNL d   1      25.890 -15.169  -3.818  0.00  0.00     0.103 C 
BRANCH  26  27
ATOM     27  C   UNL d   1      25.169 -13.785  -3.923  0.00  0.00     0.019 C 
BRANCH  27  28
ATOM     28  C   UNL d   1      25.916 -12.602  -3.323  0.00  0.00     0.111 C 
BRANCH  28  29
ATOM     29  C   UNL d   1      27.073 -13.064  -2.454  0.00  0.00     0.258 C 
ATOM     30  O   UNL d   1      28.271 -12.921  -2.737  0.00  0.00    -0.265 OA
BRANCH  29  31
ATOM     31  O   UNL d   1      26.635 -13.663  -1.310  0.00  0.00    -0.321 OA
BRANCH  31  32
ATOM     32  C   UNL d   1      27.517 -14.694  -0.821  0.00  0.00     0.179 C 
BRANCH  32  33
ATOM     33  C   UNL d   1      26.778 -15.594   0.165  0.00  0.00     0.031 C 
BRANCH  33  34
ATOM     34  C   UNL d   1      26.576 -17.007  -0.401  0.00  0.00     0.041 C 
BRANCH  34  35
ATOM     35  C   UNL d   1      25.106 -17.316  -0.538  0.00  0.00    -0.058 A 
ATOM     36  C   UNL d   1      24.200 -16.327  -0.946  0.00  0.00     0.007 A 
ATOM     37  C   UNL d   1      22.826 -16.570  -0.895  0.00  0.00     0.001 A 
ATOM     38  C   UNL d   1      22.351 -17.823  -0.513  0.00  0.00     0.000 A 
ATOM     39  C   UNL d   1      23.247 -18.826  -0.148  0.00  0.00     0.001 A 
ATOM     40  C   UNL d   1      24.617 -18.571  -0.153  0.00  0.00     0.007 A 
ENDBRANCH  34  35
ENDBRANCH  33  34
ENDBRANCH  32  33
ENDBRANCH  31  32
ENDBRANCH  29  31
ENDBRANCH  28  29
ENDBRANCH  27  28
ENDBRANCH  26  27
ENDBRANCH  23  26
ENDBRANCH   1  22
TORSDOF 15
ENDMDL
MODEL 5
REMARK VINA RESULT:    -7.422      4.952     10.493
REMARK INTER + INTRA:         -15.992
REMARK INTER:                 -11.896
REMARK INTRA:                  -4.096
REMARK CONF_INDEPENDENT:        4.474
REMARK UNBOUND:                -4.096
REMARK  15 active torsions:
REMARK  status: ('A' for Active; 'I' for Inactive)
REMARK    1  A    between atoms: C_2  and  N_3 
REMARK       I    between atoms: N_3  and  C_4 
REMARK    2  A    between atoms: N_3  and  C_33 
REMARK    3  A    between atoms: C_4  and  C_6 
REMARK    4  A    between atoms: C_9  and  N_10 
REMARK    5  A    between atoms: N_10  and  C_11 
REMARK    6  A    between atoms: C_11  and  N_13 
REMARK       I    between atoms: N_13  and  C_14 
REMARK    7  A    between atoms: C_14  and  C_16 
REMARK    8  A    between atoms: C_16  and  C_17 
REMARK    9  A    between atoms: C_17  and  C_18 
REMARK   10  A    between atoms: C_18  and  C_19 
REMARK   11  A    between atoms: C_19  and  O_21 
REMARK   12  A    between atoms: O_21  and  C_22 
REMARK   13  A    between atoms: C_22  and  C_23 
REMARK   14  A    between atoms: C_23  and  C_24 
REMARK   15  A    between atoms: C_24  and  C_25 
ROOT
ATOM      1  C   UNL d   1      27.643 -16.099   0.590  0.00  0.00     0.178 C 
ATOM      2  S   UNL d   1      27.975 -14.726   1.527  0.00  0.00    -0.040 SA
ENDROOT
BRANCH   1   3
ATOM      3  N   UNL d   1      28.641 -16.950   0.009  0.00  0.00    -0.333 N 
ATOM      4  H   UNL d   1      29.140 -17.603   0.605  0.00  0.00     0.168 HD
BRANCH   3   5
ATOM      5  C   UNL d   1      29.134 -16.903  -1.377  0.00  0.00     0.034 C 
ATOM      6  C   UNL d   1      28.540 -16.145  -2.399  0.00  0.00     0.030 C 
ATOM      7  C   UNL d   1      28.943 -16.323  -3.769  0.00  0.00     0.019 C 
ATOM      8  C   UNL d   1      30.037 -17.139  -4.107  0.00  0.00     0.032 C 
ATOM      9  C   UNL d   1      30.794 -17.626  -3.080  0.00  0.00     0.019 C 
ATOM     10  C   UNL d   1      30.269 -17.603  -1.791  0.00  0.00     0.030 C 
BRANCH   8  11
ATOM     11  C   UNL d   1      30.469 -17.468  -5.487  0.00  0.00     0.258 C 
ATOM     12  N   UNL d   1      30.712 -18.816  -5.911  0.00  0.00    -0.314 N 
ATOM     13  O   UNL d   1      30.601 -16.476  -6.207  0.00  0.00    -0.267 OA
BRANCH  12  14
ATOM     14  C   UNL d   1      30.404 -20.105  -5.200  0.00  0.00     0.128 C 
ATOM     15  C   UNL d   1      31.442 -20.751  -4.310  0.00  0.00     0.027 C 
ENDBRANCH  12  14
BRANCH  12  16
ATOM     16  C   UNL d   1      31.251 -19.000  -7.253  0.00  0.00     0.037 A 
ATOM     17  C   UNL d   1      32.226 -18.134  -7.768  0.00  0.00     0.029 A 
ATOM     18  C   UNL d   1      32.624 -18.204  -9.110  0.00  0.00     0.002 A 
ATOM     19  C   UNL d   1      32.110 -19.192  -9.944  0.00  0.00     0.000 A 
ATOM     20  C   UNL d   1      31.190 -20.102  -9.438  0.00  0.00     0.002 A 
ATOM     21  C   UNL d   1      30.772 -20.013  -8.104  0.00  0.00     0.029 A 
ENDBRANCH  12  16
ENDBRANCH   8  11
ENDBRANCH   3   5
ENDBRANCH   1   3
BRANCH   1  22
ATOM     22  N   UNL d   1      26.288 -16.482   0.374  0.00  0.00    -0.304 N 
ATOM     23  C   UNL d   1      25.893 -17.829   0.216  0.00  0.00     0.223 C 
ATOM     24  O   UNL d   1      26.654 -18.790   0.343  0.00  0.00    -0.273 OA
ATOM     25  H   UNL d   1      25.576 -15.771   0.288  0.00  0.00     0.171 HD
BRANCH  23  26
ATOM     26  C   UNL d   1      24.453 -18.197  -0.096  0.00  0.00     0.103 C 
BRANCH  26  27
ATOM     27  C   UNL d   1      23.941 -17.163  -1.151  0.00  0.00     0.019 C 
BRANCH  27  28
ATOM     28  C   UNL d   1      24.805 -17.003  -2.395  0.00  0.00     0.111 C 
BRANCH  28  29
ATOM     29  C   UNL d   1      25.271 -15.567  -2.562  0.00  0.00     0.258 C 
ATOM     30  O   UNL d   1      25.519 -14.791  -1.628  0.00  0.00    -0.265 OA
BRANCH  29  31
ATOM     31  O   UNL d   1      25.386 -15.226  -3.877  0.00  0.00    -0.321 OA
BRANCH  31  32
ATOM     32  C   UNL d   1      24.790 -13.952  -4.200  0.00  0.00     0.179 C 
BRANCH  32  33
ATOM     33  C   UNL d   1      25.727 -12.817  -3.801  0.00  0.00     0.031 C 
BRANCH  33  34
ATOM     34  C   UNL d   1      27.201 -13.218  -3.957  0.00  0.00     0.041 C 
BRANCH  34  35
ATOM     35  C   UNL d   1      27.612 -13.165  -5.408  0.00  0.00    -0.058 A 
ATOM     36  C   UNL d   1      28.339 -14.214  -5.986  0.00  0.00     0.007 A 
ATOM     37  C   UNL d   1      28.870 -14.076  -7.270  0.00  0.00     0.001 A 
ATOM     38  C   UNL d   1      28.612 -12.926  -8.013  0.00  0.00     0.000 A 
ATOM     39  C   UNL d   1      27.853 -11.896  -7.462  0.00  0.00     0.001 A 
ATOM     40  C   UNL d   1      27.362 -12.011  -6.163  0.00  0.00     0.007 A 
ENDBRANCH  34  35
ENDBRANCH  33  34
ENDBRANCH  32  33
ENDBRANCH  31  32
ENDBRANCH  29  31
ENDBRANCH  28  29
ENDBRANCH  27  28
ENDBRANCH  26  27
ENDBRANCH  23  26
ENDBRANCH   1  22
TORSDOF 15
ENDMDL
MODEL 6
REMARK VINA RESULT:    -7.224      2.114      3.155
REMARK INTER + INTRA:         -16.116
REMARK INTER:                 -11.698
REMARK INTRA:                  -4.418
REMARK CONF_INDEPENDENT:        4.474
REMARK UNBOUND:                -4.418
REMARK  15 active torsions:
REMARK  status: ('A' for Active; 'I' for Inactive)
REMARK    1  A    between atoms: C_2  and  N_3 
REMARK       I    between atoms: N_3  and  C_4 
REMARK    2  A    between atoms: N_3  and  C_33 
REMARK    3  A    between atoms: C_4  and  C_6 
REMARK    4  A    between atoms: C_9  and  N_10 
REMARK    5  A    between atoms: N_10  and  C_11 
REMARK    6  A    between atoms: C_11  and  N_13 
REMARK       I    between atoms: N_13  and  C_14 
REMARK    7  A    between atoms: C_14  and  C_16 
REMARK    8  A    between atoms: C_16  and  C_17 
REMARK    9  A    between atoms: C_17  and  C_18 
REMARK   10  A    between atoms: C_18  and  C_19 
REMARK   11  A    between atoms: C_19  and  O_21 
REMARK   12  A    between atoms: O_21  and  C_22 
REMARK   13  A    between atoms: C_22  and  C_23 
REMARK   14  A    between atoms: C_23  and  C_24 
REMARK   15  A    between atoms: C_24  and  C_25 
ROOT
ATOM      1  C   UNL d   1      29.036 -14.027  -1.801  0.00  0.00     0.178 C 
ATOM      2  S   UNL d   1      28.533 -12.409  -1.859  0.00  0.00    -0.040 SA
ENDROOT
BRANCH   1   3
ATOM      3  N   UNL d   1      28.814 -14.910  -0.693  0.00  0.00    -0.333 N 
ATOM      4  H   UNL d   1      28.507 -15.860  -0.873  0.00  0.00     0.168 HD
BRANCH   3   5
ATOM      5  C   UNL d   1      28.863 -14.555   0.735  0.00  0.00     0.034 C 
ATOM      6  C   UNL d   1      30.050 -14.441   1.478  0.00  0.00     0.030 C 
ATOM      7  C   UNL d   1      30.006 -14.310   2.910  0.00  0.00     0.019 C 
ATOM      8  C   UNL d   1      28.786 -14.138   3.589  0.00  0.00     0.032 C 
ATOM      9  C   UNL d   1      27.669 -13.944   2.827  0.00  0.00     0.019 C 
ATOM     10  C   UNL d   1      27.714 -14.273   1.476  0.00  0.00     0.030 C 
BRANCH   8  11
ATOM     11  C   UNL d   1      28.621 -14.096   5.062  0.00  0.00     0.258 C 
ATOM     12  N   UNL d   1      29.043 -12.972   5.847  0.00  0.00    -0.314 N 
ATOM     13  O   UNL d   1      28.102 -15.114   5.525  0.00  0.00    -0.267 OA
BRANCH  12  14
ATOM     14  C   UNL d   1      29.501 -11.615   5.391  0.00  0.00     0.128 C 
ATOM     15  C   UNL d   1      28.707 -10.849   4.357  0.00  0.00     0.027 C 
ENDBRANCH  12  14
BRANCH  12  16
ATOM     16  C   UNL d   1      28.940 -13.102   7.296  0.00  0.00     0.037 A 
ATOM     17  C   UNL d   1      28.156 -12.217   8.049  0.00  0.00     0.029 A 
ATOM     18  C   UNL d   1      28.185 -12.232   9.450  0.00  0.00     0.002 A 
ATOM     19  C   UNL d   1      28.941 -13.184  10.126  0.00  0.00     0.000 A 
ATOM     20  C   UNL d   1      29.677 -14.112   9.399  0.00  0.00     0.002 A 
ATOM     21  C   UNL d   1      29.668 -14.078   7.998  0.00  0.00     0.029 A 
ENDBRANCH  12  16
ENDBRANCH   8  11
ENDBRANCH   3   5
ENDBRANCH   1   3
BRANCH   1  22
ATOM     22  N   UNL d   1      29.699 -14.590  -2.930  0.00  0.00    -0.304 N 
ATOM     23  C   UNL d   1      29.946 -15.975  -3.055  0.00  0.00     0.223 C 
ATOM     24  O   UNL d   1      29.537 -16.823  -2.260  0.00  0.00    -0.273 OA
ATOM     25  H   UNL d   1      30.045 -13.984  -3.658  0.00  0.00     0.171 HD
BRANCH  23  26
ATOM     26  C   UNL d   1      30.728 -16.533  -4.231  0.00  0.00     0.103 C 
BRANCH  26  27
ATOM     27  C   UNL d   1      29.700 -16.764  -5.387  0.00  0.00     0.019 C 
BRANCH  27  28
ATOM     28  C   UNL d   1      29.409 -15.555  -6.266  0.00  0.00     0.111 C 
BRANCH  28  29
ATOM     29  C   UNL d   1      28.388 -14.635  -5.617  0.00  0.00     0.258 C 
ATOM     30  O   UNL d   1      28.625 -13.487  -5.216  0.00  0.00    -0.265 OA
BRANCH  29  31
ATOM     31  O   UNL d   1      27.164 -15.228  -5.526  0.00  0.00    -0.321 OA
BRANCH  31  32
ATOM     32  C   UNL d   1      26.204 -14.463  -4.768  0.00  0.00     0.179 C 
BRANCH  32  33
ATOM     33  C   UNL d   1      25.530 -15.349  -3.725  0.00  0.00     0.031 C 
BRANCH  33  34
ATOM     34  C   UNL d   1      26.157 -15.166  -2.336  0.00  0.00     0.041 C 
BRANCH  34  35
ATOM     35  C   UNL d   1      25.582 -16.162  -1.361  0.00  0.00    -0.058 A 
ATOM     36  C   UNL d   1      26.420 -16.960  -0.571  0.00  0.00     0.007 A 
ATOM     37  C   UNL d   1      25.885 -18.001   0.191  0.00  0.00     0.001 A 
ATOM     38  C   UNL d   1      24.507 -18.200   0.232  0.00  0.00     0.000 A 
ATOM     39  C   UNL d   1      23.662 -17.383  -0.516  0.00  0.00     0.001 A 
ATOM     40  C   UNL d   1      24.197 -16.374  -1.315  0.00  0.00     0.007 A 
ENDBRANCH  34  35
ENDBRANCH  33  34
ENDBRANCH  32  33
ENDBRANCH  31  32
ENDBRANCH  29  31
ENDBRANCH  28  29
ENDBRANCH  27  28
ENDBRANCH  26  27
ENDBRANCH  23  26
ENDBRANCH   1  22
TORSDOF 15
ENDMDL
MODEL 7
REMARK VINA RESULT:    -7.170      1.642      2.509
REMARK INTER + INTRA:         -16.244
REMARK INTER:                 -11.644
REMARK INTRA:                  -4.600
REMARK CONF_INDEPENDENT:        4.474
REMARK UNBOUND:                -4.600
REMARK  15 active torsions:
REMARK  status: ('A' for Active; 'I' for Inactive)
REMARK    1  A    between atoms: C_2  and  N_3 
REMARK       I    between atoms: N_3  and  C_4 
REMARK    2  A    between atoms: N_3  and  C_33 
REMARK    3  A    between atoms: C_4  and  C_6 
REMARK    4  A    between atoms: C_9  and  N_10 
REMARK    5  A    between atoms: N_10  and  C_11 
REMARK    6  A    between atoms: C_11  and  N_13 
REMARK       I    between atoms: N_13  and  C_14 
REMARK    7  A    between atoms: C_14  and  C_16 
REMARK    8  A    between atoms: C_16  and  C_17 
REMARK    9  A    between atoms: C_17  and  C_18 
REMARK   10  A    between atoms: C_18  and  C_19 
REMARK   11  A    between atoms: C_19  and  O_21 
REMARK   12  A    between atoms: O_21  and  C_22 
REMARK   13  A    between atoms: C_22  and  C_23 
REMARK   14  A    between atoms: C_23  and  C_24 
REMARK   15  A    between atoms: C_24  and  C_25 
ROOT
ATOM      1  C   UNL d   1      29.205 -14.052  -1.924  0.00  0.00     0.178 C 
ATOM      2  S   UNL d   1      30.669 -14.321  -1.112  0.00  0.00    -0.040 SA
ENDROOT
BRANCH   1   3
ATOM      3  N   UNL d   1      27.965 -13.725  -1.282  0.00  0.00    -0.333 N 
ATOM      4  H   UNL d   1      27.178 -13.429  -1.851  0.00  0.00     0.168 HD
BRANCH   3   5
ATOM      5  C   UNL d   1      27.722 -13.646   0.168  0.00  0.00     0.034 C 
ATOM      6  C   UNL d   1      27.164 -12.531   0.814  0.00  0.00     0.030 C 
ATOM      7  C   UNL d   1      27.163 -12.442   2.250  0.00  0.00     0.019 C 
ATOM      8  C   UNL d   1      27.575 -13.525   3.047  0.00  0.00     0.032 C 
ATOM      9  C   UNL d   1      27.824 -14.709   2.412  0.00  0.00     0.019 C 
ATOM     10  C   UNL d   1      28.008 -14.704   1.033  0.00  0.00     0.030 C 
BRANCH   8  11
ATOM     11  C   UNL d   1      27.707 -13.503   4.524  0.00  0.00     0.258 C 
ATOM     12  N   UNL d   1      28.818 -12.881   5.182  0.00  0.00    -0.314 N 
ATOM     13  O   UNL d   1      26.782 -14.074   5.105  0.00  0.00    -0.267 OA
BRANCH  12  14
ATOM     14  C   UNL d   1      29.890 -11.998   4.607  0.00  0.00     0.128 C 
ATOM     15  C   UNL d   1      30.824 -12.528   3.542  0.00  0.00     0.027 C 
ENDBRANCH  12  14
BRANCH  12  16
ATOM     16  C   UNL d   1      28.898 -13.033   6.631  0.00  0.00     0.037 A 
ATOM     17  C   UNL d   1      29.638 -14.073   7.211  0.00  0.00     0.029 A 
ATOM     18  C   UNL d   1      29.583 -14.325   8.588  0.00  0.00     0.002 A 
ATOM     19  C   UNL d   1      28.846 -13.492   9.424  0.00  0.00     0.000 A 
ATOM     20  C   UNL d   1      28.156 -12.416   8.879  0.00  0.00     0.002 A 
ATOM     21  C   UNL d   1      28.189 -12.184   7.498  0.00  0.00     0.029 A 
ENDBRANCH  12  16
ENDBRANCH   8  11
ENDBRANCH   3   5
ENDBRANCH   1   3
BRANCH   1  22
ATOM     22  N   UNL d   1      29.177 -14.117  -3.347  0.00  0.00    -0.304 N 
ATOM     23  C   UNL d   1      29.144 -15.340  -4.053  0.00  0.00     0.223 C 
ATOM     24  O   UNL d   1      29.042 -16.444  -3.515  0.00  0.00    -0.273 OA
ATOM     25  H   UNL d   1      29.222 -13.265  -3.886  0.00  0.00     0.171 HD
BRANCH  23  26
ATOM     26  C   UNL d   1      29.198 -15.376  -5.570  0.00  0.00     0.103 C 
BRANCH  26  27
ATOM     27  C   UNL d   1      27.951 -14.584  -6.085  0.00  0.00     0.019 C 
BRANCH  27  28
ATOM     28  C   UNL d   1      26.658 -14.812  -5.315  0.00  0.00     0.111 C 
BRANCH  28  29
ATOM     29  C   UNL d   1      26.525 -13.834  -4.160  0.00  0.00     0.258 C 
ATOM     30  O   UNL d   1      27.110 -12.744  -4.085  0.00  0.00    -0.265 OA
BRANCH  29  31
ATOM     31  O   UNL d   1      25.675 -14.301  -3.201  0.00  0.00    -0.321 OA
BRANCH  31  32
ATOM     32  C   UNL d   1      25.529 -15.736  -3.206  0.00  0.00     0.179 C 
BRANCH  32  33
ATOM     33  C   UNL d   1      26.140 -16.331  -1.942  0.00  0.00     0.031 C 
BRANCH  33  34
ATOM     34  C   UNL d   1      25.275 -16.047  -0.706  0.00  0.00     0.041 C 
BRANCH  34  35
ATOM     35  C   UNL d   1      24.139 -17.035  -0.617  0.00  0.00    -0.058 A 
ATOM     36  C   UNL d   1      24.388 -18.400  -0.421  0.00  0.00     0.007 A 
ATOM     37  C   UNL d   1      23.347 -19.325  -0.523  0.00  0.00     0.001 A 
ATOM     38  C   UNL d   1      22.042 -18.888  -0.741  0.00  0.00     0.000 A 
ATOM     39  C   UNL d   1      21.779 -17.528  -0.894  0.00  0.00     0.001 A 
ATOM     40  C   UNL d   1      22.823 -16.607  -0.840  0.00  0.00     0.007 A 
ENDBRANCH  34  35
ENDBRANCH  33  34
ENDBRANCH  32  33
ENDBRANCH  31  32
ENDBRANCH  29  31
ENDBRANCH  28  29
ENDBRANCH  27  28
ENDBRANCH  26  27
ENDBRANCH  23  26
ENDBRANCH   1  22
TORSDOF 15
ENDMDL
MODEL 8
REMARK VINA RESULT:    -7.100      2.328      3.688
REMARK INTER + INTRA:         -16.189
REMARK INTER:                 -11.575
REMARK INTRA:                  -4.614
REMARK CONF_INDEPENDENT:        4.474
REMARK UNBOUND:                -4.614
REMARK  15 active torsions:
REMARK  status: ('A' for Active; 'I' for Inactive)
REMARK    1  A    between atoms: C_2  and  N_3 
REMARK       I    between atoms: N_3  and  C_4 
REMARK    2  A    between atoms: N_3  and  C_33 
REMARK    3  A    between atoms: C_4  and  C_6 
REMARK    4  A    between atoms: C_9  and  N_10 
REMARK    5  A    between atoms: N_10  and  C_11 
REMARK    6  A    between atoms: C_11  and  N_13 
REMARK       I    between atoms: N_13  and  C_14 
REMARK    7  A    between atoms: C_14  and  C_16 
REMARK    8  A    between atoms: C_16  and  C_17 
REMARK    9  A    between atoms: C_17  and  C_18 
REMARK   10  A    between atoms: C_18  and  C_19 
REMARK   11  A    between atoms: C_19  and  O_21 
REMARK   12  A    between atoms: O_21  and  C_22 
REMARK   13  A    between atoms: C_22  and  C_23 
REMARK   14  A    between atoms: C_23  and  C_24 
REMARK   15  A    between atoms: C_24  and  C_25 
ROOT
ATOM      1  C   UNL d   1      26.797 -13.844  -3.565  0.00  0.00     0.178 C 
ATOM      2  S   UNL d   1      25.537 -14.452  -4.523  0.00  0.00    -0.040 SA
ENDROOT
BRANCH   1   3
ATOM      3  N   UNL d   1      26.684 -12.708  -2.696  0.00  0.00    -0.333 N 
ATOM      4  H   UNL d   1      26.476 -11.799  -3.097  0.00  0.00     0.168 HD
BRANCH   3   5
ATOM      5  C   UNL d   1      26.963 -12.679  -1.251  0.00  0.00     0.034 C 
ATOM      6  C   UNL d   1      27.908 -11.833  -0.648  0.00  0.00     0.030 C 
ATOM      7  C   UNL d   1      28.281 -12.017   0.729  0.00  0.00     0.019 C 
ATOM      8  C   UNL d   1      27.606 -12.938   1.550  0.00  0.00     0.032 C 
ATOM      9  C   UNL d   1      26.489 -13.532   1.035  0.00  0.00     0.019 C 
ATOM     10  C   UNL d   1      26.280 -13.487  -0.340  0.00  0.00     0.030 C 
BRANCH   8  11
ATOM     11  C   UNL d   1      27.974 -13.276   2.946  0.00  0.00     0.258 C 
ATOM     12  N   UNL d   1      28.137 -12.273   3.958  0.00  0.00    -0.314 N 
ATOM     13  O   UNL d   1      28.129 -14.485   3.131  0.00  0.00    -0.267 OA
BRANCH  12  14
ATOM     14  C   UNL d   1      27.792 -10.811   3.909  0.00  0.00     0.128 C 
ATOM     15  C   UNL d   1      26.699 -10.315   2.989  0.00  0.00     0.027 C 
ENDBRANCH  12  14
BRANCH  12  16
ATOM     16  C   UNL d   1      28.620 -12.720   5.259  0.00  0.00     0.037 A 
ATOM     17  C   UNL d   1      29.510 -13.797   5.372  0.00  0.00     0.029 A 
ATOM     18  C   UNL d   1      29.846 -14.336   6.621  0.00  0.00     0.002 A 
ATOM     19  C   UNL d   1      29.357 -13.757   7.788  0.00  0.00     0.000 A 
ATOM     20  C   UNL d   1      28.524 -12.648   7.703  0.00  0.00     0.002 A 
ATOM     21  C   UNL d   1      28.168 -12.129   6.452  0.00  0.00     0.029 A 
ENDBRANCH  12  16
ENDBRANCH   8  11
ENDBRANCH   3   5
ENDBRANCH   1   3
BRANCH   1  22
ATOM     22  N   UNL d   1      28.060 -14.503  -3.577  0.00  0.00    -0.304 N 
ATOM     23  C   UNL d   1      28.453 -15.376  -4.615  0.00  0.00     0.223 C 
ATOM     24  O   UNL d   1      27.793 -15.574  -5.637  0.00  0.00    -0.273 OA
ATOM     25  H   UNL d   1      28.693 -14.381  -2.800  0.00  0.00     0.171 HD
BRANCH  23  26
ATOM     26  C   UNL d   1      29.772 -16.126  -4.556  0.00  0.00     0.103 C 
BRANCH  26  27
ATOM     27  C   UNL d   1      29.664 -17.136  -3.367  0.00  0.00     0.019 C 
BRANCH  27  28
ATOM     28  C   UNL d   1      30.393 -16.737  -2.091  0.00  0.00     0.111 C 
BRANCH  28  29
ATOM     29  C   UNL d   1      29.781 -15.490  -1.474  0.00  0.00     0.258 C 
ATOM     30  O   UNL d   1      30.362 -14.402  -1.356  0.00  0.00    -0.265 OA
BRANCH  29  31
ATOM     31  O   UNL d   1      28.502 -15.711  -1.058  0.00  0.00    -0.321 OA
BRANCH  31  32
ATOM     32  C   UNL d   1      28.409 -16.233   0.283  0.00  0.00     0.179 C 
BRANCH  32  33
ATOM     33  C   UNL d   1      27.054 -16.899   0.497  0.00  0.00     0.031 C 
BRANCH  33  34
ATOM     34  C   UNL d   1      26.522 -17.528  -0.799  0.00  0.00     0.041 C 
BRANCH  34  35
ATOM     35  C   UNL d   1      25.013 -17.531  -0.803  0.00  0.00    -0.058 A 
ATOM     36  C   UNL d   1      24.293 -16.344  -0.997  0.00  0.00     0.007 A 
ATOM     37  C   UNL d   1      22.909 -16.326  -0.818  0.00  0.00     0.001 A 
ATOM     38  C   UNL d   1      22.226 -17.505  -0.526  0.00  0.00     0.000 A 
ATOM     39  C   UNL d   1      22.929 -18.698  -0.375  0.00  0.00     0.001 A 
ATOM     40  C   UNL d   1      24.317 -18.710  -0.506  0.00  0.00     0.007 A 
ENDBRANCH  34  35
ENDBRANCH  33  34
ENDBRANCH  32  33
ENDBRANCH  31  32
ENDBRANCH  29  31
ENDBRANCH  28  29
ENDBRANCH  27  28
ENDBRANCH  26  27
ENDBRANCH  23  26
ENDBRANCH   1  22
TORSDOF 15
ENDMDL
MODEL 9
REMARK VINA RESULT:    -6.561      1.756      2.574
REMARK INTER + INTRA:         -16.057
REMARK INTER:                 -11.035
REMARK INTRA:                  -5.022
REMARK CONF_INDEPENDENT:        4.474
REMARK UNBOUND:                -5.022
REMARK  15 active torsions:
REMARK  status: ('A' for Active; 'I' for Inactive)
REMARK    1  A    between atoms: C_2  and  N_3 
REMARK       I    between atoms: N_3  and  C_4 
REMARK    2  A    between atoms: N_3  and  C_33 
REMARK    3  A    between atoms: C_4  and  C_6 
REMARK    4  A    between atoms: C_9  and  N_10 
REMARK    5  A    between atoms: N_10  and  C_11 
REMARK    6  A    between atoms: C_11  and  N_13 
REMARK       I    between atoms: N_13  and  C_14 
REMARK    7  A    between atoms: C_14  and  C_16 
REMARK    8  A    between atoms: C_16  and  C_17 
REMARK    9  A    between atoms: C_17  and  C_18 
REMARK   10  A    between atoms: C_18  and  C_19 
REMARK   11  A    between atoms: C_19  and  O_21 
REMARK   12  A    between atoms: O_21  and  C_22 
REMARK   13  A    between atoms: C_22  and  C_23 
REMARK   14  A    between atoms: C_23  and  C_24 
REMARK   15  A    between atoms: C_24  and  C_25 
ROOT
ATOM      1  C   UNL d   1      27.242 -12.199  -1.674  0.00  0.00     0.178 C 
ATOM      2  S   UNL d   1      28.104 -10.770  -1.371  0.00  0.00    -0.040 SA
ENDROOT
BRANCH   1   3
ATOM      3  N   UNL d   1      26.653 -13.026  -0.661  0.00  0.00    -0.333 N 
ATOM      4  H   UNL d   1      25.783 -13.509  -0.864  0.00  0.00     0.168 HD
BRANCH   3   5
ATOM      5  C   UNL d   1      27.111 -13.168   0.730  0.00  0.00     0.034 C 
ATOM      6  C   UNL d   1      27.810 -14.284   1.220  0.00  0.00     0.030 C 
ATOM      7  C   UNL d   1      28.027 -14.449   2.632  0.00  0.00     0.019 C 
ATOM      8  C   UNL d   1      27.686 -13.435   3.545  0.00  0.00     0.032 C 
ATOM      9  C   UNL d   1      27.289 -12.235   3.027  0.00  0.00     0.019 C 
ATOM     10  C   UNL d   1      26.904 -12.177   1.691  0.00  0.00     0.030 C 
BRANCH   8  11
ATOM     11  C   UNL d   1      27.773 -13.544   5.022  0.00  0.00     0.258 C 
ATOM     12  N   UNL d   1      28.545 -12.630   5.811  0.00  0.00    -0.314 N 
ATOM     13  O   UNL d   1      27.129 -14.491   5.480  0.00  0.00    -0.267 OA
BRANCH  12  14
ATOM     14  C   UNL d   1      29.203 -11.343   5.401  0.00  0.00     0.128 C 
ATOM     15  C   UNL d   1      30.708 -11.263   5.272  0.00  0.00     0.027 C 
ENDBRANCH  12  14
BRANCH  12  16
ATOM     16  C   UNL d   1      28.651 -12.915   7.238  0.00  0.00     0.037 A 
ATOM     17  C   UNL d   1      28.169 -12.012   8.196  0.00  0.00     0.029 A 
ATOM     18  C   UNL d   1      28.416 -12.201   9.562  0.00  0.00     0.002 A 
ATOM     19  C   UNL d   1      29.086 -13.338  10.003  0.00  0.00     0.000 A 
ATOM     20  C   UNL d   1      29.517 -14.279   9.076  0.00  0.00     0.002 A 
ATOM     21  C   UNL d   1      29.293 -14.074   7.708  0.00  0.00     0.029 A 
ENDBRANCH  12  16
ENDBRANCH   8  11
ENDBRANCH   3   5
ENDBRANCH   1   3
BRANCH   1  22
ATOM     22  N   UNL d   1      27.043 -12.618  -3.022  0.00  0.00    -0.304 N 
ATOM     23  C   UNL d   1      25.838 -13.205  -3.466  0.00  0.00     0.223 C 
ATOM     24  O   UNL d   1      24.829 -13.323  -2.768  0.00  0.00    -0.273 OA
ATOM     25  H   UNL d   1      27.798 -12.535  -3.687  0.00  0.00     0.171 HD
BRANCH  23  26
ATOM     26  C   UNL d   1      25.688 -13.716  -4.888  0.00  0.00     0.103 C 
BRANCH  26  27
ATOM     27  C   UNL d   1      26.337 -15.138  -4.928  0.00  0.00     0.019 C 
BRANCH  27  28
ATOM     28  C   UNL d   1      27.764 -15.200  -5.456  0.00  0.00     0.111 C 
BRANCH  28  29
ATOM     29  C   UNL d   1      28.650 -14.174  -4.771  0.00  0.00     0.258 C 
ATOM     30  O   UNL d   1      29.114 -13.162  -5.318  0.00  0.00    -0.265 OA
BRANCH  29  31
ATOM     31  O   UNL d   1      28.880 -14.498  -3.467  0.00  0.00    -0.321 OA
BRANCH  31  32
ATOM     32  C   UNL d   1      29.351 -15.849  -3.281  0.00  0.00     0.179 C 
BRANCH  32  33
ATOM     33  C   UNL d   1      28.527 -16.550  -2.206  0.00  0.00     0.031 C 
BRANCH  33  34
ATOM     34  C   UNL d   1      27.409 -15.645  -1.670  0.00  0.00     0.041 C 
BRANCH  34  35
ATOM     35  C   UNL d   1      26.292 -16.474  -1.086  0.00  0.00    -0.058 A 
ATOM     36  C   UNL d   1      26.517 -17.305   0.019  0.00  0.00     0.007 A 
ATOM     37  C   UNL d   1      25.531 -18.201   0.437  0.00  0.00     0.001 A 
ATOM     38  C   UNL d   1      24.289 -18.218  -0.194  0.00  0.00     0.000 A 
ATOM     39  C   UNL d   1      24.041 -17.364  -1.267  0.00  0.00     0.001 A 
ATOM     40  C   UNL d   1      25.040 -16.502  -1.716  0.00  0.00     0.007 A 
ENDBRANCH  34  35
ENDBRANCH  33  34
ENDBRANCH  32  33
ENDBRANCH  31  32
ENDBRANCH  29  31
ENDBRANCH  28  29
ENDBRANCH  27  28
ENDBRANCH  26  27
ENDBRANCH  23  26
ENDBRANCH   1  22
TORSDOF 15
ENDMDL
