MODEL 1
REMARK VINA RESULT:   -30.979      0.000      0.000
REMARK INTER + INTRA:         -32.903
REMARK INTER:                 -32.172
REMARK INTRA:                  -0.731
REMARK CONF_INDEPENDENT:        1.193
REMARK UNBOUND:                -0.731
REMARK  4 active torsions:
REMARK  status: ('A' for Active; 'I' for Inactive)
REMARK       I    between atoms: C_2  and  N_4 
REMARK    1  A    between atoms: N_4  and  C_5 
REMARK    2  A    between atoms: C_11  and  N_12 
REMARK    3  A    between atoms: N_12  and  C_13 
REMARK    4  A    between atoms: C_13  and  C_14 
ROOT
ATOM      1  C   UNL d   1      24.524 -17.198  -0.647  0.00  0.00    -0.041 A 
ATOM      2  C   UNL d   1      23.420 -16.366  -0.838  0.00  0.00     0.010 A 
ATOM      3  C   UNL d   1      22.145 -16.916  -0.895  0.00  0.00     0.023 A 
ATOM      4  C   UNL d   1      21.970 -18.297  -0.760  0.00  0.00     0.044 A 
ATOM      5  C   UNL d   1      20.669 -18.869  -0.956  0.00  0.00     0.099 C 
ATOM      6  N   UNL d   1      19.625 -19.324  -1.151  0.00  0.00    -0.191 NA
ATOM      7  C   UNL d   1      23.064 -19.121  -0.491  0.00  0.00     0.023 A 
ATOM      8  C   UNL d   1      24.340 -18.572  -0.426  0.00  0.00     0.010 A 
ENDROOT
BRANCH   1   9
ATOM      9  C   UNL d   1      25.902 -16.624  -0.668  0.00  0.00     0.158 C 
BRANCH   9  10
ATOM     10  N   UNL d   1      26.472 -16.558  -1.992  0.00  0.00    -0.384 N 
ATOM     11  H   UNL d   1      26.848 -17.414  -2.387  0.00  0.00     0.160 HD
BRANCH  10  12
ATOM     12  C   UNL d   1      26.399 -15.418  -2.790  0.00  0.00     0.055 A 
ATOM     13  C   UNL d   1      25.248 -14.601  -2.660  0.00  0.00     0.033 A 
ATOM     14  C   UNL d   1      25.086 -13.426  -3.409  0.00  0.00     0.026 A 
ATOM     15  C   UNL d   1      26.080 -13.037  -4.295  0.00  0.00     0.036 A 
ATOM     16  C   UNL d   1      27.224 -13.807  -4.440  0.00  0.00     0.055 A 
ATOM     17 CL   UNL d   1      25.902 -11.607  -5.234  0.00  0.00    -0.084 Cl
ATOM     18  C   UNL d   1      27.402 -14.986  -3.705  0.00  0.00     0.062 A 
BRANCH  18  19
ATOM     19  N   UNL d   1      28.596 -15.714  -3.961  0.00  0.00    -0.325 N 
ATOM     20  C   UNL d   1      29.102 -15.908  -5.234  0.00  0.00     0.218 C 
ATOM     21  C   UNL d   1      30.481 -16.529  -5.275  0.00  0.00     0.117 C 
ATOM     22  O   UNL d   1      28.537 -15.572  -6.271  0.00  0.00    -0.274 OA
ATOM     23  H   UNL d   1      29.195 -15.928  -3.186  0.00  0.00     0.169 HD
ENDBRANCH  18  19
ENDBRANCH  10  12
ENDBRANCH   9  10
ENDBRANCH   1   9
TORSDOF 4
ENDMDL
MODEL 2
REMARK VINA RESULT:   -30.405      2.793      3.422
REMARK INTER + INTRA:         -33.022
REMARK INTER:                 -31.599
REMARK INTRA:                  -1.424
REMARK CONF_INDEPENDENT:        1.193
REMARK UNBOUND:                -1.424
REMARK  4 active torsions:
REMARK  status: ('A' for Active; 'I' for Inactive)
REMARK       I    between atoms: C_2  and  N_4 
REMARK    1  A    between atoms: N_4  and  C_5 
REMARK    2  A    between atoms: C_11  and  N_12 
REMARK    3  A    between atoms: N_12  and  C_13 
REMARK    4  A    between atoms: C_13  and  C_14 
ROOT
ATOM      1  C   UNL d   1      24.519 -17.465  -0.467  0.00  0.00    -0.041 A 
ATOM      2  C   UNL d   1      23.449 -16.574  -0.555  0.00  0.00     0.010 A 
ATOM      3  C   UNL d   1      22.153 -17.063  -0.675  0.00  0.00     0.023 A 
ATOM      4  C   UNL d   1      21.924 -18.443  -0.706  0.00  0.00     0.044 A 
ATOM      5  C   UNL d   1      20.604 -18.937  -0.966  0.00  0.00     0.099 C 
ATOM      6  N   UNL d   1      19.543 -19.324  -1.212  0.00  0.00    -0.191 NA
ATOM      7  C   UNL d   1      22.986 -19.335  -0.539  0.00  0.00     0.023 A 
ATOM      8  C   UNL d   1      24.282 -18.847  -0.410  0.00  0.00     0.010 A 
ENDROOT
BRANCH   1   9
ATOM      9  C   UNL d   1      25.918 -16.947  -0.421  0.00  0.00     0.158 C 
BRANCH   9  10
ATOM     10  N   UNL d   1      25.990 -15.515  -0.257  0.00  0.00    -0.384 N 
ATOM     11  H   UNL d   1      26.124 -15.154   0.682  0.00  0.00     0.160 HD
BRANCH  10  12
ATOM     12  C   UNL d   1      26.023 -14.632  -1.334  0.00  0.00     0.055 A 
ATOM     13  C   UNL d   1      25.303 -14.994  -2.500  0.00  0.00     0.033 A 
ATOM     14  C   UNL d   1      25.264 -14.168  -3.632  0.00  0.00     0.026 A 
ATOM     15  C   UNL d   1      25.935 -12.954  -3.618  0.00  0.00     0.036 A 
ATOM     16  C   UNL d   1      26.641 -12.563  -2.490  0.00  0.00     0.055 A 
ATOM     17 CL   UNL d   1      25.913 -11.927  -4.996  0.00  0.00    -0.084 Cl
ATOM     18  C   UNL d   1      26.696 -13.376  -1.351  0.00  0.00     0.062 A 
BRANCH  18  19
ATOM     19  N   UNL d   1      27.480 -12.891  -0.269  0.00  0.00    -0.325 N 
ATOM     20  C   UNL d   1      27.042 -12.903   1.044  0.00  0.00     0.218 C 
ATOM     21  C   UNL d   1      28.097 -12.536   2.063  0.00  0.00     0.117 C 
ATOM     22  O   UNL d   1      25.913 -13.228   1.402  0.00  0.00    -0.274 OA
ATOM     23  H   UNL d   1      28.454 -12.715  -0.431  0.00  0.00     0.169 HD
ENDBRANCH  18  19
ENDBRANCH  10  12
ENDBRANCH   9  10
ENDBRANCH   1   9
TORSDOF 4
ENDMDL
MODEL 3
REMARK VINA RESULT:   -30.305      2.247      3.280
REMARK INTER + INTRA:         -32.931
REMARK INTER:                 -31.498
REMARK INTRA:                  -1.432
REMARK CONF_INDEPENDENT:        1.193
REMARK UNBOUND:                -1.432
REMARK  4 active torsions:
REMARK  status: ('A' for Active; 'I' for Inactive)
REMARK       I    between atoms: C_2  and  N_4 
REMARK    1  A    between atoms: N_4  and  C_5 
REMARK    2  A    between atoms: C_11  and  N_12 
REMARK    3  A    between atoms: N_12  and  C_13 
REMARK    4  A    between atoms: C_13  and  C_14 
ROOT
ATOM      1  C   UNL d   1      24.697 -17.162  -0.519  0.00  0.00    -0.041 A 
ATOM      2  C   UNL d   1      23.582 -16.336  -0.674  0.00  0.00     0.010 A 
ATOM      3  C   UNL d   1      22.318 -16.900  -0.791  0.00  0.00     0.023 A 
ATOM      4  C   UNL d   1      22.164 -18.290  -0.752  0.00  0.00     0.044 A 
ATOM      5  C   UNL d   1      20.877 -18.868  -1.010  0.00  0.00     0.099 C 
ATOM      6  N   UNL d   1      19.844 -19.325  -1.254  0.00  0.00    -0.191 NA
ATOM      7  C   UNL d   1      23.268 -19.114  -0.519  0.00  0.00     0.023 A 
ATOM      8  C   UNL d   1      24.533 -18.550  -0.394  0.00  0.00     0.010 A 
ENDROOT
BRANCH   1   9
ATOM      9  C   UNL d   1      26.065 -16.566  -0.476  0.00  0.00     0.158 C 
BRANCH   9  10
ATOM     10  N   UNL d   1      26.389 -15.798  -1.654  0.00  0.00    -0.384 N 
ATOM     11  H   UNL d   1      25.740 -15.071  -1.936  0.00  0.00     0.160 HD
BRANCH  10  12
ATOM     12  C   UNL d   1      27.605 -15.918  -2.324  0.00  0.00     0.055 A 
ATOM     13  C   UNL d   1      28.512 -16.904  -1.860  0.00  0.00     0.033 A 
ATOM     14  C   UNL d   1      29.756 -17.112  -2.473  0.00  0.00     0.026 A 
ATOM     15  C   UNL d   1      30.114 -16.345  -3.573  0.00  0.00     0.036 A 
ATOM     16  C   UNL d   1      29.246 -15.380  -4.061  0.00  0.00     0.055 A 
ATOM     17 CL   UNL d   1      31.637 -16.572  -4.338  0.00  0.00    -0.084 Cl
ATOM     18  C   UNL d   1      28.002 -15.153  -3.458  0.00  0.00     0.062 A 
BRANCH  18  19
ATOM     19  N   UNL d   1      27.211 -14.113  -4.019  0.00  0.00    -0.325 N 
ATOM     20  C   UNL d   1      25.846 -14.227  -4.216  0.00  0.00     0.218 C 
ATOM     21  C   UNL d   1      25.162 -12.943  -4.630  0.00  0.00     0.117 C 
ATOM     22  O   UNL d   1      25.195 -15.251  -4.033  0.00  0.00    -0.274 OA
ATOM     23  H   UNL d   1      27.616 -13.199  -4.094  0.00  0.00     0.169 HD
ENDBRANCH  18  19
ENDBRANCH  10  12
ENDBRANCH   9  10
ENDBRANCH   1   9
TORSDOF 4
ENDMDL
MODEL 4
REMARK VINA RESULT:   -30.115      2.494      2.903
REMARK INTER + INTRA:         -32.815
REMARK INTER:                 -31.309
REMARK INTRA:                  -1.507
REMARK CONF_INDEPENDENT:        1.193
REMARK UNBOUND:                -1.507
REMARK  4 active torsions:
REMARK  status: ('A' for Active; 'I' for Inactive)
REMARK       I    between atoms: C_2  and  N_4 
REMARK    1  A    between atoms: N_4  and  C_5 
REMARK    2  A    between atoms: C_11  and  N_12 
REMARK    3  A    between atoms: N_12  and  C_13 
REMARK    4  A    between atoms: C_13  and  C_14 
ROOT
ATOM      1  C   UNL d   1      24.571 -17.496  -0.322  0.00  0.00    -0.041 A 
ATOM      2  C   UNL d   1      23.528 -16.596  -0.542  0.00  0.00     0.010 A 
ATOM      3  C   UNL d   1      22.233 -17.071  -0.713  0.00  0.00     0.023 A 
ATOM      4  C   UNL d   1      21.978 -18.445  -0.663  0.00  0.00     0.044 A 
ATOM      5  C   UNL d   1      20.666 -18.934  -0.975  0.00  0.00     0.099 C 
ATOM      6  N   UNL d   1      19.616 -19.321  -1.263  0.00  0.00    -0.191 NA
ATOM      7  C   UNL d   1      23.007 -19.341  -0.365  0.00  0.00     0.023 A 
ATOM      8  C   UNL d   1      24.302 -18.867  -0.186  0.00  0.00     0.010 A 
ENDROOT
BRANCH   1   9
ATOM      9  C   UNL d   1      25.975 -16.999  -0.220  0.00  0.00     0.158 C 
BRANCH   9  10
ATOM     10  N   UNL d   1      26.285 -15.967  -1.180  0.00  0.00    -0.384 N 
ATOM     11  H   UNL d   1      26.196 -16.197  -2.165  0.00  0.00     0.160 HD
BRANCH  10  12
ATOM     12  C   UNL d   1      26.558 -14.651  -0.813  0.00  0.00     0.055 A 
ATOM     13  C   UNL d   1      26.379 -14.301   0.548  0.00  0.00     0.033 A 
ATOM     14  C   UNL d   1      26.638 -13.006   1.020  0.00  0.00     0.026 A 
ATOM     15  C   UNL d   1      27.096 -12.036   0.140  0.00  0.00     0.036 A 
ATOM     16  C   UNL d   1      27.294 -12.346  -1.197  0.00  0.00     0.055 A 
ATOM     17 CL   UNL d   1      27.413 -10.438   0.690  0.00  0.00    -0.084 Cl
ATOM     18  C   UNL d   1      27.035 -13.632  -1.688  0.00  0.00     0.062 A 
BRANCH  18  19
ATOM     19  N   UNL d   1      27.237 -13.826  -3.082  0.00  0.00    -0.325 N 
ATOM     20  C   UNL d   1      26.274 -14.369  -3.914  0.00  0.00     0.218 C 
ATOM     21  C   UNL d   1      26.608 -14.301  -5.388  0.00  0.00     0.117 C 
ATOM     22  O   UNL d   1      25.201 -14.830  -3.538  0.00  0.00    -0.274 OA
ATOM     23  H   UNL d   1      28.025 -13.380  -3.512  0.00  0.00     0.169 HD
ENDBRANCH  18  19
ENDBRANCH  10  12
ENDBRANCH   9  10
ENDBRANCH   1   9
TORSDOF 4
ENDMDL
MODEL 5
REMARK VINA RESULT:   -30.069      2.391      2.989
REMARK INTER + INTRA:         -32.706
REMARK INTER:                 -31.262
REMARK INTRA:                  -1.444
REMARK CONF_INDEPENDENT:        1.193
REMARK UNBOUND:                -1.444
REMARK  4 active torsions:
REMARK  status: ('A' for Active; 'I' for Inactive)
REMARK       I    between atoms: C_2  and  N_4 
REMARK    1  A    between atoms: N_4  and  C_5 
REMARK    2  A    between atoms: C_11  and  N_12 
REMARK    3  A    between atoms: N_12  and  C_13 
REMARK    4  A    between atoms: C_13  and  C_14 
ROOT
ATOM      1  C   UNL d   1      24.520 -17.486  -0.246  0.00  0.00    -0.041 A 
ATOM      2  C   UNL d   1      24.274 -18.860  -0.248  0.00  0.00     0.010 A 
ATOM      3  C   UNL d   1      22.995 -19.330  -0.523  0.00  0.00     0.023 A 
ATOM      4  C   UNL d   1      21.961 -18.429  -0.797  0.00  0.00     0.044 A 
ATOM      5  C   UNL d   1      20.619 -18.914  -0.944  0.00  0.00     0.099 C 
ATOM      6  N   UNL d   1      19.537 -19.310  -1.025  0.00  0.00    -0.191 NA
ATOM      7  C   UNL d   1      22.223 -17.059  -0.872  0.00  0.00     0.023 A 
ATOM      8  C   UNL d   1      23.504 -16.588  -0.605  0.00  0.00     0.010 A 
ENDROOT
BRANCH   1   9
ATOM      9  C   UNL d   1      25.871 -16.972   0.130  0.00  0.00     0.158 C 
BRANCH   9  10
ATOM     10  N   UNL d   1      26.156 -15.667  -0.417  0.00  0.00    -0.384 N 
ATOM     11  H   UNL d   1      26.118 -14.873   0.215  0.00  0.00     0.160 HD
BRANCH  10  12
ATOM     12  C   UNL d   1      26.611 -15.477  -1.720  0.00  0.00     0.055 A 
ATOM     13  C   UNL d   1      25.638 -15.398  -2.747  0.00  0.00     0.033 A 
ATOM     14  C   UNL d   1      25.993 -15.197  -4.089  0.00  0.00     0.026 A 
ATOM     15  C   UNL d   1      27.331 -15.056  -4.429  0.00  0.00     0.036 A 
ATOM     16  C   UNL d   1      28.309 -15.117  -3.448  0.00  0.00     0.055 A 
ATOM     17 CL   UNL d   1      27.795 -14.818  -6.068  0.00  0.00    -0.084 Cl
ATOM     18  C   UNL d   1      27.975 -15.323  -2.104  0.00  0.00     0.062 A 
BRANCH  18  19
ATOM     19  N   UNL d   1      29.061 -15.406  -1.190  0.00  0.00    -0.325 N 
ATOM     20  C   UNL d   1      29.033 -14.831   0.068  0.00  0.00     0.218 C 
ATOM     21  C   UNL d   1      30.199 -15.205   0.956  0.00  0.00     0.117 C 
ATOM     22  O   UNL d   1      28.131 -14.113   0.490  0.00  0.00    -0.274 OA
ATOM     23  H   UNL d   1      29.793 -16.063  -1.384  0.00  0.00     0.169 HD
ENDBRANCH  18  19
ENDBRANCH  10  12
ENDBRANCH   9  10
ENDBRANCH   1   9
TORSDOF 4
ENDMDL
MODEL 6
REMARK VINA RESULT:   -29.665      3.513      4.009
REMARK INTER + INTRA:         -31.777
REMARK INTER:                 -30.859
REMARK INTRA:                  -0.918
REMARK CONF_INDEPENDENT:        1.193
REMARK UNBOUND:                -0.918
REMARK  4 active torsions:
REMARK  status: ('A' for Active; 'I' for Inactive)
REMARK       I    between atoms: C_2  and  N_4 
REMARK    1  A    between atoms: N_4  and  C_5 
REMARK    2  A    between atoms: C_11  and  N_12 
REMARK    3  A    between atoms: N_12  and  C_13 
REMARK    4  A    between atoms: C_13  and  C_14 
ROOT
ATOM      1  C   UNL d   1      25.073 -17.480  -0.718  0.00  0.00    -0.041 A 
ATOM      2  C   UNL d   1      24.124 -16.469  -0.876  0.00  0.00     0.010 A 
ATOM      3  C   UNL d   1      22.771 -16.784  -0.848  0.00  0.00     0.023 A 
ATOM      4  C   UNL d   1      22.363 -18.109  -0.661  0.00  0.00     0.044 A 
ATOM      5  C   UNL d   1      20.973 -18.444  -0.770  0.00  0.00     0.099 C 
ATOM      6  N   UNL d   1      19.855 -18.710  -0.895  0.00  0.00    -0.191 NA
ATOM      7  C   UNL d   1      23.309 -19.109  -0.424  0.00  0.00     0.023 A 
ATOM      8  C   UNL d   1      24.663 -18.794  -0.443  0.00  0.00     0.010 A 
ENDROOT
BRANCH   1   9
ATOM      9  C   UNL d   1      26.527 -17.161  -0.829  0.00  0.00     0.158 C 
BRANCH   9  10
ATOM     10  N   UNL d   1      26.793 -15.748  -0.946  0.00  0.00    -0.384 N 
ATOM     11  H   UNL d   1      26.585 -15.300  -1.832  0.00  0.00     0.160 HD
BRANCH  10  12
ATOM     12  C   UNL d   1      27.183 -14.961   0.137  0.00  0.00     0.055 A 
ATOM     13  C   UNL d   1      26.299 -13.935   0.553  0.00  0.00     0.033 A 
ATOM     14  C   UNL d   1      26.594 -13.098   1.638  0.00  0.00     0.026 A 
ATOM     15  C   UNL d   1      27.778 -13.278   2.339  0.00  0.00     0.036 A 
ATOM     16  C   UNL d   1      28.662 -14.279   1.966  0.00  0.00     0.055 A 
ATOM     17 CL   UNL d   1      28.171 -12.259   3.667  0.00  0.00    -0.084 Cl
ATOM     18  C   UNL d   1      28.387 -15.122   0.882  0.00  0.00     0.062 A 
BRANCH  18  19
ATOM     19  N   UNL d   1      29.382 -16.088   0.567  0.00  0.00    -0.325 N 
ATOM     20  C   UNL d   1      29.961 -16.193  -0.685  0.00  0.00     0.218 C 
ATOM     21  C   UNL d   1      31.136 -17.143  -0.757  0.00  0.00     0.117 C 
ATOM     22  O   UNL d   1      29.616 -15.550  -1.673  0.00  0.00    -0.274 OA
ATOM     23  H   UNL d   1      29.818 -16.581   1.323  0.00  0.00     0.169 HD
ENDBRANCH  18  19
ENDBRANCH  10  12
ENDBRANCH   9  10
ENDBRANCH   1   9
TORSDOF 4
ENDMDL
MODEL 7
REMARK VINA RESULT:   -29.531      3.848      4.773
REMARK INTER + INTRA:         -31.458
REMARK INTER:                 -30.724
REMARK INTRA:                  -0.734
REMARK CONF_INDEPENDENT:        1.193
REMARK UNBOUND:                -0.734
REMARK  4 active torsions:
REMARK  status: ('A' for Active; 'I' for Inactive)
REMARK       I    between atoms: C_2  and  N_4 
REMARK    1  A    between atoms: N_4  and  C_5 
REMARK    2  A    between atoms: C_11  and  N_12 
REMARK    3  A    between atoms: N_12  and  C_13 
REMARK    4  A    between atoms: C_13  and  C_14 
ROOT
ATOM      1  C   UNL d   1      24.648 -17.230  -0.209  0.00  0.00    -0.041 A 
ATOM      2  C   UNL d   1      23.548 -16.390  -0.391  0.00  0.00     0.010 A 
ATOM      3  C   UNL d   1      22.288 -16.939  -0.593  0.00  0.00     0.023 A 
ATOM      4  C   UNL d   1      22.123 -18.328  -0.612  0.00  0.00     0.044 A 
ATOM      5  C   UNL d   1      20.847 -18.886  -0.957  0.00  0.00     0.099 C 
ATOM      6  N   UNL d   1      19.825 -19.325  -1.270  0.00  0.00    -0.191 NA
ATOM      7  C   UNL d   1      23.208 -19.169  -0.352  0.00  0.00     0.023 A 
ATOM      8  C   UNL d   1      24.468 -18.620  -0.142  0.00  0.00     0.010 A 
ENDROOT
BRANCH   1   9
ATOM      9  C   UNL d   1      26.016 -16.648  -0.074  0.00  0.00     0.158 C 
BRANCH   9  10
ATOM     10  N   UNL d   1      26.007 -15.245   0.262  0.00  0.00    -0.384 N 
ATOM     11  H   UNL d   1      25.229 -14.896   0.813  0.00  0.00     0.160 HD
BRANCH  10  12
ATOM     12  C   UNL d   1      27.076 -14.395  -0.015  0.00  0.00     0.055 A 
ATOM     13  C   UNL d   1      27.152 -13.843  -1.318  0.00  0.00     0.033 A 
ATOM     14  C   UNL d   1      28.182 -12.968  -1.693  0.00  0.00     0.026 A 
ATOM     15  C   UNL d   1      29.152 -12.616  -0.765  0.00  0.00     0.036 A 
ATOM     16  C   UNL d   1      29.102 -13.128   0.523  0.00  0.00     0.055 A 
ATOM     17 CL   UNL d   1      30.432 -11.553  -1.200  0.00  0.00    -0.084 Cl
ATOM     18  C   UNL d   1      28.085 -14.008   0.914  0.00  0.00     0.062 A 
BRANCH  18  19
ATOM     19  N   UNL d   1      28.155 -14.499   2.246  0.00  0.00    -0.325 N 
ATOM     20  C   UNL d   1      27.738 -13.766   3.342  0.00  0.00     0.218 C 
ATOM     21  C   UNL d   1      27.705 -14.541   4.641  0.00  0.00     0.117 C 
ATOM     22  O   UNL d   1      27.367 -12.596   3.303  0.00  0.00    -0.274 OA
ATOM     23  H   UNL d   1      28.329 -15.478   2.381  0.00  0.00     0.169 HD
ENDBRANCH  18  19
ENDBRANCH  10  12
ENDBRANCH   9  10
ENDBRANCH   1   9
TORSDOF 4
ENDMDL
MODEL 8
REMARK VINA RESULT:   -28.415      2.872      3.298
REMARK INTER + INTRA:         -30.321
REMARK INTER:                 -29.608
REMARK INTRA:                  -0.712
REMARK CONF_INDEPENDENT:        1.193
REMARK UNBOUND:                -0.712
REMARK  4 active torsions:
REMARK  status: ('A' for Active; 'I' for Inactive)
REMARK       I    between atoms: C_2  and  N_4 
REMARK    1  A    between atoms: N_4  and  C_5 
REMARK    2  A    between atoms: C_11  and  N_12 
REMARK    3  A    between atoms: N_12  and  C_13 
REMARK    4  A    between atoms: C_13  and  C_14 
ROOT
ATOM      1  C   UNL d   1      24.587 -17.299  -0.240  0.00  0.00    -0.041 A 
ATOM      2  C   UNL d   1      24.409 -18.681  -0.311  0.00  0.00     0.010 A 
ATOM      3  C   UNL d   1      23.155 -19.199  -0.612  0.00  0.00     0.023 A 
ATOM      4  C   UNL d   1      22.078 -18.338  -0.845  0.00  0.00     0.044 A 
ATOM      5  C   UNL d   1      20.762 -18.880  -1.020  0.00  0.00     0.099 C 
ATOM      6  N   UNL d   1      19.700 -19.325  -1.124  0.00  0.00    -0.191 NA
ATOM      7  C   UNL d   1      22.272 -16.955  -0.852  0.00  0.00     0.023 A 
ATOM      8  C   UNL d   1      23.528 -16.435  -0.559  0.00  0.00     0.010 A 
ENDROOT
BRANCH   1   9
ATOM      9  C   UNL d   1      25.911 -16.738   0.164  0.00  0.00     0.158 C 
BRANCH   9  10
ATOM     10  N   UNL d   1      26.424 -15.761  -0.765  0.00  0.00    -0.384 N 
ATOM     11  H   UNL d   1      26.103 -15.811  -1.727  0.00  0.00     0.160 HD
BRANCH  10  12
ATOM     12  C   UNL d   1      27.217 -14.685  -0.370  0.00  0.00     0.055 A 
ATOM     13  C   UNL d   1      27.112 -14.256   0.977  0.00  0.00     0.033 A 
ATOM     14  C   UNL d   1      27.875 -13.191   1.476  0.00  0.00     0.026 A 
ATOM     15  C   UNL d   1      28.771 -12.540   0.639  0.00  0.00     0.036 A 
ATOM     16  C   UNL d   1      28.907 -12.941  -0.681  0.00  0.00     0.055 A 
ATOM     17 CL   UNL d   1      29.712 -11.224   1.222  0.00  0.00    -0.084 Cl
ATOM     18  C   UNL d   1      28.149 -13.999  -1.199  0.00  0.00     0.062 A 
BRANCH  18  19
ATOM     19  N   UNL d   1      28.344 -14.298  -2.575  0.00  0.00    -0.325 N 
ATOM     20  C   UNL d   1      29.518 -14.839  -3.070  0.00  0.00     0.218 C 
ATOM     21  C   UNL d   1      29.449 -15.272  -4.518  0.00  0.00     0.117 C 
ATOM     22  O   UNL d   1      30.538 -15.021  -2.411  0.00  0.00    -0.274 OA
ATOM     23  H   UNL d   1      27.542 -14.301  -3.177  0.00  0.00     0.169 HD
ENDBRANCH  18  19
ENDBRANCH  10  12
ENDBRANCH   9  10
ENDBRANCH   1   9
TORSDOF 4
ENDMDL
