MODEL 1
REMARK VINA RESULT:    -8.319      0.000      0.000
REMARK INTER + INTRA:         -14.039
REMARK INTER:                 -12.197
REMARK INTRA:                  -1.842
REMARK CONF_INDEPENDENT:        3.878
REMARK UNBOUND:                -1.842
REMARK  13 active torsions:
REMARK  status: ('A' for Active; 'I' for Inactive)
REMARK       I    between atoms: C_2  and  N_3 
REMARK    1  A    between atoms: C_2  and  C_16 
REMARK    2  A    between atoms: N_3  and  N_4 
REMARK    3  A    between atoms: N_4  and  C_5 
REMARK    4  A    between atoms: C_5  and  N_7 
REMARK    5  A    between atoms: N_7  and  C_8 
REMARK    6  A    between atoms: C_8  and  C_9 
REMARK    7  A    between atoms: C_9  and  C_10 
REMARK       I    between atoms: C_16  and  N_18 
REMARK    8  A    between atoms: N_18  and  N_19 
REMARK    9  A    between atoms: N_19  and  C_20 
REMARK   10  A    between atoms: C_20  and  N_22 
REMARK   11  A    between atoms: N_22  and  C_23 
REMARK   12  A    between atoms: C_23  and  C_24 
REMARK   13  A    between atoms: C_24  and  C_25 
ROOT
ATOM      1  O   UNL d   1      26.508 -12.507  -2.121  0.00  0.00    -0.261 OA
ATOM      2  C   UNL d   1      25.717 -12.819  -3.014  0.00  0.00     0.329 C 
ATOM      3  N   UNL d   1      25.218 -11.871  -3.902  0.00  0.00    -0.260 N 
ATOM      4  H   UNL d   1      24.564 -12.073  -4.652  0.00  0.00     0.190 HD
ENDROOT
BRANCH   2   5
ATOM      5  C   UNL d   1      25.254 -14.325  -3.165  0.00  0.00     0.329 C 
ATOM      6  O   UNL d   1      25.029 -14.791  -4.283  0.00  0.00    -0.261 OA
ATOM      7  N   UNL d   1      25.109 -15.099  -2.017  0.00  0.00    -0.260 N 
ATOM      8  H   UNL d   1      25.284 -14.770  -1.073  0.00  0.00     0.190 HD
BRANCH   7   9
ATOM      9  N   UNL d   1      24.692 -16.484  -2.101  0.00  0.00    -0.273 N 
ATOM     10  H   UNL d   1      25.094 -17.035  -2.858  0.00  0.00     0.189 HD
BRANCH   9  11
ATOM     11  C   UNL d   1      23.791 -16.991  -1.168  0.00  0.00     0.186 C 
ATOM     12  S   UNL d   1      22.523 -16.050  -0.575  0.00  0.00    -0.040 SA
BRANCH  11  13
ATOM     13  N   UNL d   1      24.031 -18.308  -0.778  0.00  0.00    -0.366 N 
ATOM     14  H   UNL d   1      24.957 -18.595  -0.493  0.00  0.00     0.161 HD
BRANCH  13  15
ATOM     15  C   UNL d   1      22.989 -19.342  -0.835  0.00  0.00     0.126 C 
BRANCH  15  16
ATOM     16  C   UNL d   1      21.555 -18.912  -1.182  0.00  0.00     0.058 C 
BRANCH  16  17
ATOM     17  C   UNL d   1      20.520 -19.406  -0.173  0.00  0.00    -0.057 A 
ATOM     18  C   UNL d   1      20.779 -19.323   1.204  0.00  0.00     0.007 A 
ATOM     19  C   UNL d   1      19.905 -19.908   2.128  0.00  0.00     0.001 A 
ATOM     20  C   UNL d   1      18.723 -20.512   1.700  0.00  0.00     0.000 A 
ATOM     21  C   UNL d   1      18.430 -20.565   0.344  0.00  0.00     0.001 A 
ATOM     22  C   UNL d   1      19.324 -20.024  -0.578  0.00  0.00     0.007 A 
ENDBRANCH  16  17
ENDBRANCH  15  16
ENDBRANCH  13  15
ENDBRANCH  11  13
ENDBRANCH   9  11
ENDBRANCH   7   9
ENDBRANCH   2   5
BRANCH   3  23
ATOM     23  N   UNL d   1      25.606 -10.476  -3.808  0.00  0.00    -0.273 N 
ATOM     24  H   UNL d   1      26.200 -10.226  -3.017  0.00  0.00     0.189 HD
BRANCH  23  25
ATOM     25  C   UNL d   1      25.163  -9.570  -4.768  0.00  0.00     0.186 C 
ATOM     26  S   UNL d   1      25.554  -9.759  -6.397  0.00  0.00    -0.040 SA
BRANCH  25  27
ATOM     27  N   UNL d   1      24.388  -8.522  -4.276  0.00  0.00    -0.366 N 
ATOM     28  H   UNL d   1      24.616  -8.099  -3.385  0.00  0.00     0.161 HD
BRANCH  27  29
ATOM     29  C   UNL d   1      23.255  -7.946  -5.026  0.00  0.00     0.126 C 
BRANCH  29  30
ATOM     30  C   UNL d   1      23.571  -6.783  -5.983  0.00  0.00     0.058 C 
BRANCH  30  31
ATOM     31  C   UNL d   1      22.461  -6.526  -6.993  0.00  0.00    -0.057 A 
ATOM     32  C   UNL d   1      21.164  -6.233  -6.545  0.00  0.00     0.007 A 
ATOM     33  C   UNL d   1      20.105  -6.112  -7.452  0.00  0.00     0.001 A 
ATOM     34  C   UNL d   1      20.343  -6.187  -8.822  0.00  0.00     0.000 A 
ATOM     35  C   UNL d   1      21.633  -6.419  -9.286  0.00  0.00     0.001 A 
ATOM     36  C   UNL d   1      22.682  -6.583  -8.379  0.00  0.00     0.007 A 
ENDBRANCH  30  31
ENDBRANCH  29  30
ENDBRANCH  27  29
ENDBRANCH  25  27
ENDBRANCH  23  25
ENDBRANCH   3  23
TORSDOF 13
ENDMDL
MODEL 2
REMARK VINA RESULT:    -8.141      4.316      5.080
REMARK INTER + INTRA:         -14.063
REMARK INTER:                 -12.019
REMARK INTRA:                  -2.044
REMARK CONF_INDEPENDENT:        3.878
REMARK UNBOUND:                -2.044
REMARK  13 active torsions:
REMARK  status: ('A' for Active; 'I' for Inactive)
REMARK       I    between atoms: C_2  and  N_3 
REMARK    1  A    between atoms: C_2  and  C_16 
REMARK    2  A    between atoms: N_3  and  N_4 
REMARK    3  A    between atoms: N_4  and  C_5 
REMARK    4  A    between atoms: C_5  and  N_7 
REMARK    5  A    between atoms: N_7  and  C_8 
REMARK    6  A    between atoms: C_8  and  C_9 
REMARK    7  A    between atoms: C_9  and  C_10 
REMARK       I    between atoms: C_16  and  N_18 
REMARK    8  A    between atoms: N_18  and  N_19 
REMARK    9  A    between atoms: N_19  and  C_20 
REMARK   10  A    between atoms: C_20  and  N_22 
REMARK   11  A    between atoms: N_22  and  C_23 
REMARK   12  A    between atoms: C_23  and  C_24 
REMARK   13  A    between atoms: C_24  and  C_25 
ROOT
ATOM      1  O   UNL d   1      26.761 -15.395  -5.662  0.00  0.00    -0.261 OA
ATOM      2  C   UNL d   1      26.809 -14.953  -4.511  0.00  0.00     0.329 C 
ATOM      3  N   UNL d   1      27.883 -14.184  -4.075  0.00  0.00    -0.260 N 
ATOM      4  H   UNL d   1      27.973 -13.799  -3.141  0.00  0.00     0.190 HD
ENDROOT
BRANCH   2   5
ATOM      5  C   UNL d   1      25.630 -15.262  -3.501  0.00  0.00     0.329 C 
ATOM      6  O   UNL d   1      24.608 -14.572  -3.519  0.00  0.00    -0.261 OA
ATOM      7  N   UNL d   1      25.774 -16.316  -2.605  0.00  0.00    -0.260 N 
ATOM      8  H   UNL d   1      26.590 -16.918  -2.548  0.00  0.00     0.190 HD
BRANCH   7   9
ATOM      9  N   UNL d   1      24.723 -16.642  -1.662  0.00  0.00    -0.273 N 
ATOM     10  H   UNL d   1      23.802 -16.250  -1.856  0.00  0.00     0.189 HD
BRANCH   9  11
ATOM     11  C   UNL d   1      25.004 -17.457  -0.569  0.00  0.00     0.186 C 
ATOM     12  S   UNL d   1      26.552 -17.523   0.098  0.00  0.00    -0.040 SA
BRANCH  11  13
ATOM     13  N   UNL d   1      23.921 -18.196  -0.096  0.00  0.00    -0.366 N 
ATOM     14  H   UNL d   1      23.841 -18.411   0.889  0.00  0.00     0.161 HD
BRANCH  13  15
ATOM     15  C   UNL d   1      22.905 -18.757  -0.996  0.00  0.00     0.126 C 
BRANCH  15  16
ATOM     16  C   UNL d   1      21.474 -18.202  -0.913  0.00  0.00     0.058 C 
BRANCH  16  17
ATOM     17  C   UNL d   1      20.520 -19.115  -0.145  0.00  0.00    -0.057 A 
ATOM     18  C   UNL d   1      19.419 -19.695  -0.794  0.00  0.00     0.007 A 
ATOM     19  C   UNL d   1      18.460 -20.409  -0.066  0.00  0.00     0.001 A 
ATOM     20  C   UNL d   1      18.625 -20.623   1.302  0.00  0.00     0.000 A 
ATOM     21  C   UNL d   1      19.730 -20.093   1.952  0.00  0.00     0.001 A 
ATOM     22  C   UNL d   1      20.660 -19.343   1.236  0.00  0.00     0.007 A 
ENDBRANCH  16  17
ENDBRANCH  15  16
ENDBRANCH  13  15
ENDBRANCH  11  13
ENDBRANCH   9  11
ENDBRANCH   7   9
ENDBRANCH   2   5
BRANCH   3  23
ATOM     23  N   UNL d   1      28.991 -13.874  -4.958  0.00  0.00    -0.273 N 
ATOM     24  H   UNL d   1      29.479 -12.996  -4.778  0.00  0.00     0.189 HD
BRANCH  23  25
ATOM     25  C   UNL d   1      29.327 -14.757  -5.983  0.00  0.00     0.186 C 
ATOM     26  S   UNL d   1      29.944 -16.290  -5.649  0.00  0.00    -0.040 SA
BRANCH  25  27
ATOM     27  N   UNL d   1      29.111 -14.274  -7.271  0.00  0.00    -0.366 N 
ATOM     28  H   UNL d   1      28.889 -14.915  -8.022  0.00  0.00     0.161 HD
BRANCH  27  29
ATOM     29  C   UNL d   1      29.140 -12.836  -7.599  0.00  0.00     0.126 C 
BRANCH  29  30
ATOM     30  C   UNL d   1      27.782 -12.136  -7.787  0.00  0.00     0.058 C 
BRANCH  30  31
ATOM     31  C   UNL d   1      27.326 -11.380  -6.546  0.00  0.00    -0.057 A 
ATOM     32  C   UNL d   1      27.991 -10.205  -6.161  0.00  0.00     0.007 A 
ATOM     33  C   UNL d   1      27.667  -9.561  -4.962  0.00  0.00     0.001 A 
ATOM     34  C   UNL d   1      26.614 -10.025  -4.178  0.00  0.00     0.000 A 
ATOM     35  C   UNL d   1      25.906 -11.154  -4.574  0.00  0.00     0.001 A 
ATOM     36  C   UNL d   1      26.257 -11.823  -5.749  0.00  0.00     0.007 A 
ENDBRANCH  30  31
ENDBRANCH  29  30
ENDBRANCH  27  29
ENDBRANCH  25  27
ENDBRANCH  23  25
ENDBRANCH   3  23
TORSDOF 13
ENDMDL
MODEL 3
REMARK VINA RESULT:    -8.102      5.627      7.900
REMARK INTER + INTRA:         -14.038
REMARK INTER:                 -11.980
REMARK INTRA:                  -2.058
REMARK CONF_INDEPENDENT:        3.878
REMARK UNBOUND:                -2.058
REMARK  13 active torsions:
REMARK  status: ('A' for Active; 'I' for Inactive)
REMARK       I    between atoms: C_2  and  N_3 
REMARK    1  A    between atoms: C_2  and  C_16 
REMARK    2  A    between atoms: N_3  and  N_4 
REMARK    3  A    between atoms: N_4  and  C_5 
REMARK    4  A    between atoms: C_5  and  N_7 
REMARK    5  A    between atoms: N_7  and  C_8 
REMARK    6  A    between atoms: C_8  and  C_9 
REMARK    7  A    between atoms: C_9  and  C_10 
REMARK       I    between atoms: C_16  and  N_18 
REMARK    8  A    between atoms: N_18  and  N_19 
REMARK    9  A    between atoms: N_19  and  C_20 
REMARK   10  A    between atoms: C_20  and  N_22 
REMARK   11  A    between atoms: N_22  and  C_23 
REMARK   12  A    between atoms: C_23  and  C_24 
REMARK   13  A    between atoms: C_24  and  C_25 
ROOT
ATOM      1  O   UNL d   1      26.930 -15.584  -5.387  0.00  0.00    -0.261 OA
ATOM      2  C   UNL d   1      26.882 -15.035  -4.284  0.00  0.00     0.329 C 
ATOM      3  N   UNL d   1      27.847 -14.111  -3.894  0.00  0.00    -0.260 N 
ATOM      4  H   UNL d   1      27.857 -13.633  -2.999  0.00  0.00     0.190 HD
ENDROOT
BRANCH   2   5
ATOM      5  C   UNL d   1      25.705 -15.379  -3.283  0.00  0.00     0.329 C 
ATOM      6  O   UNL d   1      24.659 -14.729  -3.317  0.00  0.00    -0.261 OA
ATOM      7  N   UNL d   1      25.880 -16.421  -2.377  0.00  0.00    -0.260 N 
ATOM      8  H   UNL d   1      26.717 -16.990  -2.307  0.00  0.00     0.190 HD
BRANCH   7   9
ATOM      9  N   UNL d   1      24.832 -16.778  -1.443  0.00  0.00    -0.273 N 
ATOM     10  H   UNL d   1      23.929 -16.324  -1.577  0.00  0.00     0.189 HD
BRANCH   9  11
ATOM     11  C   UNL d   1      25.090 -17.705  -0.436  0.00  0.00     0.186 C 
ATOM     12  S   UNL d   1      26.644 -17.904   0.191  0.00  0.00    -0.040 SA
BRANCH  11  13
ATOM     13  N   UNL d   1      23.981 -18.434  -0.012  0.00  0.00    -0.366 N 
ATOM     14  H   UNL d   1      23.893 -18.713   0.956  0.00  0.00     0.161 HD
BRANCH  13  15
ATOM     15  C   UNL d   1      22.945 -18.894  -0.946  0.00  0.00     0.126 C 
BRANCH  15  16
ATOM     16  C   UNL d   1      21.567 -18.215  -0.897  0.00  0.00     0.058 C 
BRANCH  16  17
ATOM     17  C   UNL d   1      20.518 -19.042  -0.156  0.00  0.00    -0.057 A 
ATOM     18  C   UNL d   1      20.677 -19.326   1.209  0.00  0.00     0.007 A 
ATOM     19  C   UNL d   1      19.801 -20.205   1.859  0.00  0.00     0.001 A 
ATOM     20  C   UNL d   1      18.711 -20.749   1.180  0.00  0.00     0.000 A 
ATOM     21  C   UNL d   1      18.515 -20.444  -0.160  0.00  0.00     0.001 A 
ATOM     22  C   UNL d   1      19.413 -19.607  -0.818  0.00  0.00     0.007 A 
ENDBRANCH  16  17
ENDBRANCH  15  16
ENDBRANCH  13  15
ENDBRANCH  11  13
ENDBRANCH   9  11
ENDBRANCH   7   9
ENDBRANCH   2   5
BRANCH   3  23
ATOM     23  N   UNL d   1      28.949 -13.760  -4.770  0.00  0.00    -0.273 N 
ATOM     24  H   UNL d   1      29.876 -13.742  -4.344  0.00  0.00     0.189 HD
BRANCH  23  25
ATOM     25  C   UNL d   1      28.700 -13.470  -6.110  0.00  0.00     0.186 C 
ATOM     26  S   UNL d   1      27.570 -12.303  -6.557  0.00  0.00    -0.040 SA
BRANCH  25  27
ATOM     27  N   UNL d   1      29.449 -14.211  -7.022  0.00  0.00    -0.366 N 
ATOM     28  H   UNL d   1      29.283 -14.109  -8.015  0.00  0.00     0.161 HD
BRANCH  27  29
ATOM     29  C   UNL d   1      30.535 -15.120  -6.610  0.00  0.00     0.126 C 
BRANCH  29  30
ATOM     30  C   UNL d   1      30.208 -16.624  -6.569  0.00  0.00     0.058 C 
BRANCH  30  31
ATOM     31  C   UNL d   1      30.425 -17.243  -5.195  0.00  0.00    -0.057 A 
ATOM     32  C   UNL d   1      30.242 -16.464  -4.042  0.00  0.00     0.007 A 
ATOM     33  C   UNL d   1      30.551 -16.976  -2.777  0.00  0.00     0.001 A 
ATOM     34  C   UNL d   1      30.955 -18.301  -2.636  0.00  0.00     0.000 A 
ATOM     35  C   UNL d   1      31.086 -19.105  -3.763  0.00  0.00     0.001 A 
ATOM     36  C   UNL d   1      30.820 -18.581  -5.030  0.00  0.00     0.007 A 
ENDBRANCH  30  31
ENDBRANCH  29  30
ENDBRANCH  27  29
ENDBRANCH  25  27
ENDBRANCH  23  25
ENDBRANCH   3  23
TORSDOF 13
ENDMDL
MODEL 4
REMARK VINA RESULT:    -7.950      3.215     11.426
REMARK INTER + INTRA:         -14.380
REMARK INTER:                 -11.828
REMARK INTRA:                  -2.552
REMARK CONF_INDEPENDENT:        3.878
REMARK UNBOUND:                -2.552
REMARK  13 active torsions:
REMARK  status: ('A' for Active; 'I' for Inactive)
REMARK       I    between atoms: C_2  and  N_3 
REMARK    1  A    between atoms: C_2  and  C_16 
REMARK    2  A    between atoms: N_3  and  N_4 
REMARK    3  A    between atoms: N_4  and  C_5 
REMARK    4  A    between atoms: C_5  and  N_7 
REMARK    5  A    between atoms: N_7  and  C_8 
REMARK    6  A    between atoms: C_8  and  C_9 
REMARK    7  A    between atoms: C_9  and  C_10 
REMARK       I    between atoms: C_16  and  N_18 
REMARK    8  A    between atoms: N_18  and  N_19 
REMARK    9  A    between atoms: N_19  and  C_20 
REMARK   10  A    between atoms: C_20  and  N_22 
REMARK   11  A    between atoms: N_22  and  C_23 
REMARK   12  A    between atoms: C_23  and  C_24 
REMARK   13  A    between atoms: C_24  and  C_25 
ROOT
ATOM      1  O   UNL d   1      24.781 -14.796  -4.175  0.00  0.00    -0.261 OA
ATOM      2  C   UNL d   1      25.285 -14.510  -3.087  0.00  0.00     0.329 C 
ATOM      3  N   UNL d   1      25.468 -15.472  -2.099  0.00  0.00    -0.260 N 
ATOM      4  H   UNL d   1      25.875 -15.291  -1.187  0.00  0.00     0.190 HD
ENDROOT
BRANCH   2   5
ATOM      5  C   UNL d   1      25.737 -13.021  -2.796  0.00  0.00     0.329 C 
ATOM      6  O   UNL d   1      26.423 -12.770  -1.803  0.00  0.00    -0.261 OA
ATOM      7  N   UNL d   1      25.344 -12.018  -3.677  0.00  0.00    -0.260 N 
ATOM      8  H   UNL d   1      24.784 -12.168  -4.509  0.00  0.00     0.190 HD
BRANCH   7   9
ATOM      9  N   UNL d   1      25.734 -10.640  -3.457  0.00  0.00    -0.273 N 
ATOM     10  H   UNL d   1      26.133 -10.420  -2.545  0.00  0.00     0.189 HD
BRANCH   9  11
ATOM     11  C   UNL d   1      25.561  -9.703  -4.472  0.00  0.00     0.186 C 
ATOM     12  S   UNL d   1      25.661  -8.048  -4.161  0.00  0.00    -0.040 SA
BRANCH  11  13
ATOM     13  N   UNL d   1      25.298 -10.243  -5.730  0.00  0.00    -0.366 N 
ATOM     14  H   UNL d   1      24.369 -10.189  -6.125  0.00  0.00     0.161 HD
BRANCH  13  15
ATOM     15  C   UNL d   1      26.317 -10.974  -6.495  0.00  0.00     0.126 C 
BRANCH  15  16
ATOM     16  C   UNL d   1      27.715 -11.136  -5.876  0.00  0.00     0.058 C 
BRANCH  16  17
ATOM     17  C   UNL d   1      28.248 -12.564  -5.967  0.00  0.00    -0.057 A 
ATOM     18  C   UNL d   1      29.019 -12.962  -7.070  0.00  0.00     0.007 A 
ATOM     19  C   UNL d   1      29.385 -14.304  -7.235  0.00  0.00     0.001 A 
ATOM     20  C   UNL d   1      29.057 -15.251  -6.265  0.00  0.00     0.000 A 
ATOM     21  C   UNL d   1      28.332 -14.866  -5.146  0.00  0.00     0.001 A 
ATOM     22  C   UNL d   1      27.928 -13.540  -5.006  0.00  0.00     0.007 A 
ENDBRANCH  16  17
ENDBRANCH  15  16
ENDBRANCH  13  15
ENDBRANCH  11  13
ENDBRANCH   9  11
ENDBRANCH   7   9
ENDBRANCH   2   5
BRANCH   3  23
ATOM     23  N   UNL d   1      25.070 -16.852  -2.311  0.00  0.00    -0.273 N 
ATOM     24  H   UNL d   1      25.230 -17.228  -3.246  0.00  0.00     0.189 HD
BRANCH  23  25
ATOM     25  C   UNL d   1      24.501 -17.575  -1.264  0.00  0.00     0.186 C 
ATOM     26  S   UNL d   1      25.242 -17.656   0.247  0.00  0.00    -0.040 SA
BRANCH  25  27
ATOM     27  N   UNL d   1      23.299 -18.208  -1.571  0.00  0.00    -0.366 N 
ATOM     28  H   UNL d   1      23.204 -18.724  -2.436  0.00  0.00     0.161 HD
BRANCH  27  29
ATOM     29  C   UNL d   1      22.143 -18.210  -0.655  0.00  0.00     0.126 C 
BRANCH  29  30
ATOM     30  C   UNL d   1      20.891 -18.980  -1.112  0.00  0.00     0.058 C 
BRANCH  30  31
ATOM     31  C   UNL d   1      20.108 -19.583   0.047  0.00  0.00    -0.057 A 
ATOM     32  C   UNL d   1      20.533 -19.364   1.366  0.00  0.00     0.007 A 
ATOM     33  C   UNL d   1      19.901 -20.005   2.436  0.00  0.00     0.001 A 
ATOM     34  C   UNL d   1      18.777 -20.798   2.215  0.00  0.00     0.000 A 
ATOM     35  C   UNL d   1      18.307 -20.980   0.920  0.00  0.00     0.001 A 
ATOM     36  C   UNL d   1      18.964 -20.375  -0.154  0.00  0.00     0.007 A 
ENDBRANCH  30  31
ENDBRANCH  29  30
ENDBRANCH  27  29
ENDBRANCH  25  27
ENDBRANCH  23  25
ENDBRANCH   3  23
TORSDOF 13
ENDMDL
MODEL 5
REMARK VINA RESULT:    -7.502      3.178      5.493
REMARK INTER + INTRA:         -13.952
REMARK INTER:                 -11.380
REMARK INTRA:                  -2.572
REMARK CONF_INDEPENDENT:        3.878
REMARK UNBOUND:                -2.572
REMARK  13 active torsions:
REMARK  status: ('A' for Active; 'I' for Inactive)
REMARK       I    between atoms: C_2  and  N_3 
REMARK    1  A    between atoms: C_2  and  C_16 
REMARK    2  A    between atoms: N_3  and  N_4 
REMARK    3  A    between atoms: N_4  and  C_5 
REMARK    4  A    between atoms: C_5  and  N_7 
REMARK    5  A    between atoms: N_7  and  C_8 
REMARK    6  A    between atoms: C_8  and  C_9 
REMARK    7  A    between atoms: C_9  and  C_10 
REMARK       I    between atoms: C_16  and  N_18 
REMARK    8  A    between atoms: N_18  and  N_19 
REMARK    9  A    between atoms: N_19  and  C_20 
REMARK   10  A    between atoms: C_20  and  N_22 
REMARK   11  A    between atoms: N_22  and  C_23 
REMARK   12  A    between atoms: C_23  and  C_24 
REMARK   13  A    between atoms: C_24  and  C_25 
ROOT
ATOM      1  O   UNL d   1      26.718 -12.454  -2.132  0.00  0.00    -0.261 OA
ATOM      2  C   UNL d   1      25.839 -12.707  -2.958  0.00  0.00     0.329 C 
ATOM      3  N   UNL d   1      25.421 -11.758  -3.885  0.00  0.00    -0.260 N 
ATOM      4  H   UNL d   1      24.701 -11.912  -4.583  0.00  0.00     0.190 HD
ENDROOT
BRANCH   2   5
ATOM      5  C   UNL d   1      25.163 -14.139  -2.974  0.00  0.00     0.329 C 
ATOM      6  O   UNL d   1      24.402 -14.450  -3.892  0.00  0.00    -0.261 OA
ATOM      7  N   UNL d   1      25.446 -15.025  -1.938  0.00  0.00    -0.260 N 
ATOM      8  H   UNL d   1      26.066 -14.824  -1.160  0.00  0.00     0.190 HD
BRANCH   7   9
ATOM      9  N   UNL d   1      24.857 -16.348  -1.908  0.00  0.00    -0.273 N 
ATOM     10  H   UNL d   1      24.297 -16.614  -2.717  0.00  0.00     0.189 HD
BRANCH   9  11
ATOM     11  C   UNL d   1      25.078 -17.178  -0.812  0.00  0.00     0.186 C 
ATOM     12  S   UNL d   1      26.621 -17.757  -0.451  0.00  0.00    -0.040 SA
BRANCH  11  13
ATOM     13  N   UNL d   1      23.939 -17.482  -0.068  0.00  0.00    -0.366 N 
ATOM     14  H   UNL d   1      24.025 -17.821   0.880  0.00  0.00     0.161 HD
BRANCH  13  15
ATOM     15  C   UNL d   1      22.589 -17.403  -0.639  0.00  0.00     0.126 C 
BRANCH  15  16
ATOM     16  C   UNL d   1      21.964 -18.685  -1.213  0.00  0.00     0.058 C 
BRANCH  16  17
ATOM     17  C   UNL d   1      20.812 -19.221  -0.365  0.00  0.00    -0.057 A 
ATOM     18  C   UNL d   1      20.948 -19.323   1.028  0.00  0.00     0.007 A 
ATOM     19  C   UNL d   1      19.958 -19.951   1.795  0.00  0.00     0.001 A 
ATOM     20  C   UNL d   1      18.787 -20.414   1.196  0.00  0.00     0.000 A 
ATOM     21  C   UNL d   1      18.617 -20.282  -0.175  0.00  0.00     0.001 A 
ATOM     22  C   UNL d   1      19.623 -19.700  -0.943  0.00  0.00     0.007 A 
ENDBRANCH  16  17
ENDBRANCH  15  16
ENDBRANCH  13  15
ENDBRANCH  11  13
ENDBRANCH   9  11
ENDBRANCH   7   9
ENDBRANCH   2   5
BRANCH   3  23
ATOM     23  N   UNL d   1      26.004 -10.429  -3.913  0.00  0.00    -0.273 N 
ATOM     24  H   UNL d   1      26.567 -10.167  -3.103  0.00  0.00     0.189 HD
BRANCH  23  25
ATOM     25  C   UNL d   1      25.774  -9.597  -5.006  0.00  0.00     0.186 C 
ATOM     26  S   UNL d   1      24.975  -8.123  -4.831  0.00  0.00    -0.040 SA
BRANCH  25  27
ATOM     27  N   UNL d   1      26.249 -10.079  -6.224  0.00  0.00    -0.366 N 
ATOM     28  H   UNL d   1      26.273  -9.473  -7.034  0.00  0.00     0.161 HD
BRANCH  27  29
ATOM     29  C   UNL d   1      26.783 -11.445  -6.387  0.00  0.00     0.126 C 
BRANCH  29  30
ATOM     30  C   UNL d   1      28.080 -11.782  -5.631  0.00  0.00     0.058 C 
BRANCH  30  31
ATOM     31  C   UNL d   1      28.464 -13.253  -5.736  0.00  0.00    -0.057 A 
ATOM     32  C   UNL d   1      28.147 -14.133  -4.690  0.00  0.00     0.007 A 
ATOM     33  C   UNL d   1      28.594 -15.459  -4.712  0.00  0.00     0.001 A 
ATOM     34  C   UNL d   1      29.280 -15.950  -5.820  0.00  0.00     0.000 A 
ATOM     35  C   UNL d   1      29.552 -15.106  -6.892  0.00  0.00     0.001 A 
ATOM     36  C   UNL d   1      29.144 -13.771  -6.850  0.00  0.00     0.007 A 
ENDBRANCH  30  31
ENDBRANCH  29  30
ENDBRANCH  27  29
ENDBRANCH  25  27
ENDBRANCH  23  25
ENDBRANCH   3  23
TORSDOF 13
ENDMDL
MODEL 6
REMARK VINA RESULT:    -7.319      7.077     10.512
REMARK INTER + INTRA:         -14.399
REMARK INTER:                 -11.197
REMARK INTRA:                  -3.201
REMARK CONF_INDEPENDENT:        3.878
REMARK UNBOUND:                -3.201
REMARK  13 active torsions:
REMARK  status: ('A' for Active; 'I' for Inactive)
REMARK       I    between atoms: C_2  and  N_3 
REMARK    1  A    between atoms: C_2  and  C_16 
REMARK    2  A    between atoms: N_3  and  N_4 
REMARK    3  A    between atoms: N_4  and  C_5 
REMARK    4  A    between atoms: C_5  and  N_7 
REMARK    5  A    between atoms: N_7  and  C_8 
REMARK    6  A    between atoms: C_8  and  C_9 
REMARK    7  A    between atoms: C_9  and  C_10 
REMARK       I    between atoms: C_16  and  N_18 
REMARK    8  A    between atoms: N_18  and  N_19 
REMARK    9  A    between atoms: N_19  and  C_20 
REMARK   10  A    between atoms: C_20  and  N_22 
REMARK   11  A    between atoms: N_22  and  C_23 
REMARK   12  A    between atoms: C_23  and  C_24 
REMARK   13  A    between atoms: C_24  and  C_25 
ROOT
ATOM      1  O   UNL d   1      31.110 -13.274   0.214  0.00  0.00    -0.261 OA
ATOM      2  C   UNL d   1      30.698 -14.033   1.094  0.00  0.00     0.329 C 
ATOM      3  N   UNL d   1      30.144 -15.270   0.782  0.00  0.00    -0.260 N 
ATOM      4  H   UNL d   1      29.788 -15.930   1.465  0.00  0.00     0.190 HD
ENDROOT
BRANCH   2   5
ATOM      5  C   UNL d   1      30.795 -13.601   2.614  0.00  0.00     0.329 C 
ATOM      6  O   UNL d   1      31.265 -12.501   2.912  0.00  0.00    -0.261 OA
ATOM      7  N   UNL d   1      30.342 -14.482   3.591  0.00  0.00    -0.260 N 
ATOM      8  H   UNL d   1      29.943 -15.396   3.403  0.00  0.00     0.190 HD
BRANCH   7   9
ATOM      9  N   UNL d   1      30.405 -14.134   4.996  0.00  0.00    -0.273 N 
ATOM     10  H   UNL d   1      31.272 -13.705   5.319  0.00  0.00     0.189 HD
BRANCH   9  11
ATOM     11  C   UNL d   1      29.311 -14.384   5.820  0.00  0.00     0.186 C 
ATOM     12  S   UNL d   1      29.375 -14.075   7.477  0.00  0.00    -0.040 SA
BRANCH  11  13
ATOM     13  N   UNL d   1      28.194 -14.905   5.168  0.00  0.00    -0.366 N 
ATOM     14  H   UNL d   1      28.105 -15.902   5.025  0.00  0.00     0.161 HD
BRANCH  13  15
ATOM     15  C   UNL d   1      27.149 -14.043   4.600  0.00  0.00     0.126 C 
BRANCH  15  16
ATOM     16  C   UNL d   1      27.581 -12.772   3.852  0.00  0.00     0.058 C 
BRANCH  16  17
ATOM     17  C   UNL d   1      27.319 -12.844   2.349  0.00  0.00    -0.057 A 
ATOM     18  C   UNL d   1      27.127 -14.085   1.723  0.00  0.00     0.007 A 
ATOM     19  C   UNL d   1      27.036 -14.171   0.328  0.00  0.00     0.001 A 
ATOM     20  C   UNL d   1      27.055 -13.017  -0.455  0.00  0.00     0.000 A 
ATOM     21  C   UNL d   1      27.201 -11.778   0.151  0.00  0.00     0.001 A 
ATOM     22  C   UNL d   1      27.339 -11.696   1.535  0.00  0.00     0.007 A 
ENDBRANCH  16  17
ENDBRANCH  15  16
ENDBRANCH  13  15
ENDBRANCH  11  13
ENDBRANCH   9  11
ENDBRANCH   7   9
ENDBRANCH   2   5
BRANCH   3  23
ATOM     23  N   UNL d   1      30.028 -15.715  -0.595  0.00  0.00    -0.273 N 
ATOM     24  H   UNL d   1      30.777 -15.428  -1.226  0.00  0.00     0.189 HD
BRANCH  23  25
ATOM     25  C   UNL d   1      28.934 -16.485  -0.982  0.00  0.00     0.186 C 
ATOM     26  S   UNL d   1      28.209 -16.280  -2.489  0.00  0.00    -0.040 SA
BRANCH  25  27
ATOM     27  N   UNL d   1      28.504 -17.414  -0.037  0.00  0.00    -0.366 N 
ATOM     28  H   UNL d   1      29.156 -18.089   0.343  0.00  0.00     0.161 HD
BRANCH  27  29
ATOM     29  C   UNL d   1      27.127 -17.435   0.492  0.00  0.00     0.126 C 
BRANCH  29  30
ATOM     30  C   UNL d   1      26.211 -18.574   0.008  0.00  0.00     0.058 C 
BRANCH  30  31
ATOM     31  C   UNL d   1      24.793 -18.108  -0.294  0.00  0.00    -0.057 A 
ATOM     32  C   UNL d   1      24.568 -16.792  -0.727  0.00  0.00     0.007 A 
ATOM     33  C   UNL d   1      23.266 -16.308  -0.895  0.00  0.00     0.001 A 
ATOM     34  C   UNL d   1      22.175 -17.157  -0.727  0.00  0.00     0.000 A 
ATOM     35  C   UNL d   1      22.382 -18.480  -0.354  0.00  0.00     0.001 A 
ATOM     36  C   UNL d   1      23.680 -18.952  -0.144  0.00  0.00     0.007 A 
ENDBRANCH  30  31
ENDBRANCH  29  30
ENDBRANCH  27  29
ENDBRANCH  25  27
ENDBRANCH  23  25
ENDBRANCH   3  23
TORSDOF 13
ENDMDL
MODEL 7
REMARK VINA RESULT:    -6.950      7.096      9.408
REMARK INTER + INTRA:         -14.005
REMARK INTER:                 -10.828
REMARK INTRA:                  -3.178
REMARK CONF_INDEPENDENT:        3.878
REMARK UNBOUND:                -3.178
REMARK  13 active torsions:
REMARK  status: ('A' for Active; 'I' for Inactive)
REMARK       I    between atoms: C_2  and  N_3 
REMARK    1  A    between atoms: C_2  and  C_16 
REMARK    2  A    between atoms: N_3  and  N_4 
REMARK    3  A    between atoms: N_4  and  C_5 
REMARK    4  A    between atoms: C_5  and  N_7 
REMARK    5  A    between atoms: N_7  and  C_8 
REMARK    6  A    between atoms: C_8  and  C_9 
REMARK    7  A    between atoms: C_9  and  C_10 
REMARK       I    between atoms: C_16  and  N_18 
REMARK    8  A    between atoms: N_18  and  N_19 
REMARK    9  A    between atoms: N_19  and  C_20 
REMARK   10  A    between atoms: C_20  and  N_22 
REMARK   11  A    between atoms: N_22  and  C_23 
REMARK   12  A    between atoms: C_23  and  C_24 
REMARK   13  A    between atoms: C_24  and  C_25 
ROOT
ATOM      1  O   UNL d   1      26.810 -13.807   4.274  0.00  0.00    -0.261 OA
ATOM      2  C   UNL d   1      27.768 -14.370   3.741  0.00  0.00     0.329 C 
ATOM      3  N   UNL d   1      28.700 -15.079   4.491  0.00  0.00    -0.260 N 
ATOM      4  H   UNL d   1      29.507 -15.559   4.105  0.00  0.00     0.190 HD
ENDROOT
BRANCH   2   5
ATOM      5  C   UNL d   1      27.952 -14.293   2.170  0.00  0.00     0.329 C 
ATOM      6  O   UNL d   1      27.098 -13.736   1.478  0.00  0.00    -0.261 OA
ATOM      7  N   UNL d   1      29.086 -14.862   1.600  0.00  0.00    -0.260 N 
ATOM      8  H   UNL d   1      29.822 -15.329   2.121  0.00  0.00     0.190 HD
BRANCH   7   9
ATOM      9  N   UNL d   1      29.304 -14.815   0.168  0.00  0.00    -0.273 N 
ATOM     10  H   UNL d   1      30.006 -14.154  -0.163  0.00  0.00     0.189 HD
BRANCH   9  11
ATOM     11  C   UNL d   1      28.573 -15.652  -0.670  0.00  0.00     0.186 C 
ATOM     12  S   UNL d   1      29.077 -15.966  -2.249  0.00  0.00    -0.040 SA
BRANCH  11  13
ATOM     13  N   UNL d   1      27.418 -16.187  -0.101  0.00  0.00    -0.366 N 
ATOM     14  H   UNL d   1      26.961 -15.714   0.666  0.00  0.00     0.161 HD
BRANCH  13  15
ATOM     15  C   UNL d   1      26.863 -17.478  -0.528  0.00  0.00     0.126 C 
BRANCH  15  16
ATOM     16  C   UNL d   1      25.889 -18.200   0.418  0.00  0.00     0.058 C 
BRANCH  16  17
ATOM     17  C   UNL d   1      24.424 -18.005   0.032  0.00  0.00    -0.057 A 
ATOM     18  C   UNL d   1      23.586 -19.116  -0.149  0.00  0.00     0.007 A 
ATOM     19  C   UNL d   1      22.287 -18.954  -0.647  0.00  0.00     0.001 A 
ATOM     20  C   UNL d   1      21.779 -17.679  -0.895  0.00  0.00     0.000 A 
ATOM     21  C   UNL d   1      22.579 -16.566  -0.681  0.00  0.00     0.001 A 
ATOM     22  C   UNL d   1      23.888 -16.731  -0.231  0.00  0.00     0.007 A 
ENDBRANCH  16  17
ENDBRANCH  15  16
ENDBRANCH  13  15
ENDBRANCH  11  13
ENDBRANCH   9  11
ENDBRANCH   7   9
ENDBRANCH   2   5
BRANCH   3  23
ATOM     23  N   UNL d   1      28.582 -15.180   5.934  0.00  0.00    -0.273 N 
ATOM     24  H   UNL d   1      28.324 -16.097   6.303  0.00  0.00     0.189 HD
BRANCH  23  25
ATOM     25  C   UNL d   1      28.813 -14.058   6.726  0.00  0.00     0.186 C 
ATOM     26  S   UNL d   1      29.969 -14.075   7.952  0.00  0.00    -0.040 SA
BRANCH  25  27
ATOM     27  N   UNL d   1      28.025 -12.950   6.422  0.00  0.00    -0.366 N 
ATOM     28  H   UNL d   1      27.039 -13.068   6.225  0.00  0.00     0.161 HD
BRANCH  27  29
ATOM     29  C   UNL d   1      28.552 -11.572   6.423  0.00  0.00     0.126 C 
BRANCH  29  30
ATOM     30  C   UNL d   1      29.250 -11.092   5.138  0.00  0.00     0.058 C 
BRANCH  30  31
ATOM     31  C   UNL d   1      28.270 -10.716   4.034  0.00  0.00    -0.057 A 
ATOM     32  C   UNL d   1      28.521 -11.115   2.712  0.00  0.00     0.007 A 
ATOM     33  C   UNL d   1      27.699 -10.681   1.667  0.00  0.00     0.001 A 
ATOM     34  C   UNL d   1      26.563  -9.922   1.936  0.00  0.00     0.000 A 
ATOM     35  C   UNL d   1      26.267  -9.565   3.247  0.00  0.00     0.001 A 
ATOM     36  C   UNL d   1      27.112  -9.962   4.286  0.00  0.00     0.007 A 
ENDBRANCH  30  31
ENDBRANCH  29  30
ENDBRANCH  27  29
ENDBRANCH  25  27
ENDBRANCH  23  25
ENDBRANCH   3  23
TORSDOF 13
ENDMDL
MODEL 8
REMARK VINA RESULT:    -6.806      4.723     10.078
REMARK INTER + INTRA:         -14.240
REMARK INTER:                 -10.684
REMARK INTRA:                  -3.555
REMARK CONF_INDEPENDENT:        3.878
REMARK UNBOUND:                -3.555
REMARK  13 active torsions:
REMARK  status: ('A' for Active; 'I' for Inactive)
REMARK       I    between atoms: C_2  and  N_3 
REMARK    1  A    between atoms: C_2  and  C_16 
REMARK    2  A    between atoms: N_3  and  N_4 
REMARK    3  A    between atoms: N_4  and  C_5 
REMARK    4  A    between atoms: C_5  and  N_7 
REMARK    5  A    between atoms: N_7  and  C_8 
REMARK    6  A    between atoms: C_8  and  C_9 
REMARK    7  A    between atoms: C_9  and  C_10 
REMARK       I    between atoms: C_16  and  N_18 
REMARK    8  A    between atoms: N_18  and  N_19 
REMARK    9  A    between atoms: N_19  and  C_20 
REMARK   10  A    between atoms: C_20  and  N_22 
REMARK   11  A    between atoms: N_22  and  C_23 
REMARK   12  A    between atoms: C_23  and  C_24 
REMARK   13  A    between atoms: C_24  and  C_25 
ROOT
ATOM      1  O   UNL d   1      30.221 -16.683  -4.651  0.00  0.00    -0.261 OA
ATOM      2  C   UNL d   1      29.189 -16.039  -4.446  0.00  0.00     0.329 C 
ATOM      3  N   UNL d   1      28.605 -15.991  -3.184  0.00  0.00    -0.260 N 
ATOM      4  H   UNL d   1      27.757 -15.480  -2.961  0.00  0.00     0.190 HD
ENDROOT
BRANCH   2   5
ATOM      5  C   UNL d   1      28.507 -15.246  -5.634  0.00  0.00     0.329 C 
ATOM      6  O   UNL d   1      27.278 -15.202  -5.719  0.00  0.00    -0.261 OA
ATOM      7  N   UNL d   1      29.319 -14.609  -6.567  0.00  0.00    -0.260 N 
ATOM      8  H   UNL d   1      30.334 -14.608  -6.544  0.00  0.00     0.190 HD
BRANCH   7   9
ATOM      9  N   UNL d   1      28.745 -13.867  -7.671  0.00  0.00    -0.273 N 
ATOM     10  H   UNL d   1      28.713 -14.344  -8.571  0.00  0.00     0.189 HD
BRANCH   9  11
ATOM     11  C   UNL d   1      28.269 -12.575  -7.462  0.00  0.00     0.186 C 
ATOM     12  S   UNL d   1      28.798 -11.284  -8.410  0.00  0.00    -0.040 SA
BRANCH  11  13
ATOM     13  N   UNL d   1      27.346 -12.451  -6.425  0.00  0.00    -0.366 N 
ATOM     14  H   UNL d   1      27.131 -13.244  -5.835  0.00  0.00     0.161 HD
BRANCH  13  15
ATOM     15  C   UNL d   1      26.597 -11.210  -6.189  0.00  0.00     0.126 C 
BRANCH  15  16
ATOM     16  C   UNL d   1      25.904 -11.025  -4.830  0.00  0.00     0.058 C 
BRANCH  16  17
ATOM     17  C   UNL d   1      25.963 -12.273  -3.951  0.00  0.00    -0.057 A 
ATOM     18  C   UNL d   1      25.185 -13.397  -4.268  0.00  0.00     0.007 A 
ATOM     19  C   UNL d   1      25.119 -14.486  -3.389  0.00  0.00     0.001 A 
ATOM     20  C   UNL d   1      25.887 -14.503  -2.225  0.00  0.00     0.000 A 
ATOM     21  C   UNL d   1      26.695 -13.418  -1.918  0.00  0.00     0.001 A 
ATOM     22  C   UNL d   1      26.724 -12.315  -2.770  0.00  0.00     0.007 A 
ENDBRANCH  16  17
ENDBRANCH  15  16
ENDBRANCH  13  15
ENDBRANCH  11  13
ENDBRANCH   9  11
ENDBRANCH   7   9
ENDBRANCH   2   5
BRANCH   3  23
ATOM     23  N   UNL d   1      29.186 -16.702  -2.060  0.00  0.00    -0.273 N 
ATOM     24  H   UNL d   1      29.502 -17.654  -2.243  0.00  0.00     0.189 HD
BRANCH  23  25
ATOM     25  C   UNL d   1      29.281 -16.073  -0.820  0.00  0.00     0.186 C 
ATOM     26  S   UNL d   1      30.274 -14.730  -0.594  0.00  0.00    -0.040 SA
BRANCH  25  27
ATOM     27  N   UNL d   1      28.503 -16.637   0.188  0.00  0.00    -0.366 N 
ATOM     28  H   UNL d   1      28.946 -17.076   0.984  0.00  0.00     0.161 HD
BRANCH  27  29
ATOM     29  C   UNL d   1      27.028 -16.584   0.181  0.00  0.00     0.126 C 
BRANCH  29  30
ATOM     30  C   UNL d   1      26.281 -17.928   0.238  0.00  0.00     0.058 C 
BRANCH  30  31
ATOM     31  C   UNL d   1      24.803 -17.801  -0.108  0.00  0.00    -0.057 A 
ATOM     32  C   UNL d   1      24.003 -18.951  -0.191  0.00  0.00     0.007 A 
ATOM     33  C   UNL d   1      22.676 -18.869  -0.622  0.00  0.00     0.001 A 
ATOM     34  C   UNL d   1      22.098 -17.629  -0.885  0.00  0.00     0.000 A 
ATOM     35  C   UNL d   1      22.859 -16.473  -0.751  0.00  0.00     0.001 A 
ATOM     36  C   UNL d   1      24.198 -16.559  -0.363  0.00  0.00     0.007 A 
ENDBRANCH  30  31
ENDBRANCH  29  30
ENDBRANCH  27  29
ENDBRANCH  25  27
ENDBRANCH  23  25
ENDBRANCH   3  23
TORSDOF 13
ENDMDL
MODEL 9
REMARK VINA RESULT:    -6.185      6.988     11.035
REMARK INTER + INTRA:         -13.950
REMARK INTER:                 -10.063
REMARK INTRA:                  -3.887
REMARK CONF_INDEPENDENT:        3.878
REMARK UNBOUND:                -3.887
REMARK  13 active torsions:
REMARK  status: ('A' for Active; 'I' for Inactive)
REMARK       I    between atoms: C_2  and  N_3 
REMARK    1  A    between atoms: C_2  and  C_16 
REMARK    2  A    between atoms: N_3  and  N_4 
REMARK    3  A    between atoms: N_4  and  C_5 
REMARK    4  A    between atoms: C_5  and  N_7 
REMARK    5  A    between atoms: N_7  and  C_8 
REMARK    6  A    between atoms: C_8  and  C_9 
REMARK    7  A    between atoms: C_9  and  C_10 
REMARK       I    between atoms: C_16  and  N_18 
REMARK    8  A    between atoms: N_18  and  N_19 
REMARK    9  A    between atoms: N_19  and  C_20 
REMARK   10  A    between atoms: C_20  and  N_22 
REMARK   11  A    between atoms: N_22  and  C_23 
REMARK   12  A    between atoms: C_23  and  C_24 
REMARK   13  A    between atoms: C_24  and  C_25 
ROOT
ATOM      1  O   UNL d   1      28.965 -14.996   1.658  0.00  0.00    -0.261 OA
ATOM      2  C   UNL d   1      27.974 -14.445   2.143  0.00  0.00     0.329 C 
ATOM      3  N   UNL d   1      27.023 -13.828   1.339  0.00  0.00    -0.260 N 
ATOM      4  H   UNL d   1      26.192 -13.359   1.685  0.00  0.00     0.190 HD
ENDROOT
BRANCH   2   5
ATOM      5  C   UNL d   1      27.769 -14.435   3.713  0.00  0.00     0.329 C 
ATOM      6  O   UNL d   1      26.798 -13.856   4.203  0.00  0.00    -0.261 OA
ATOM      7  N   UNL d   1      28.701 -15.089   4.514  0.00  0.00    -0.260 N 
ATOM      8  H   UNL d   1      29.515 -15.584   4.165  0.00  0.00     0.190 HD
BRANCH   7   9
ATOM      9  N   UNL d   1      28.558 -15.112   5.956  0.00  0.00    -0.273 N 
ATOM     10  H   UNL d   1      28.251 -15.993   6.367  0.00  0.00     0.189 HD
BRANCH   9  11
ATOM     11  C   UNL d   1      28.843 -13.969   6.697  0.00  0.00     0.186 C 
ATOM     12  S   UNL d   1      29.337 -14.071   8.307  0.00  0.00    -0.040 SA
BRANCH  11  13
ATOM     13  N   UNL d   1      28.682 -12.768   6.008  0.00  0.00    -0.366 N 
ATOM     14  H   UNL d   1      28.072 -12.720   5.203  0.00  0.00     0.161 HD
BRANCH  13  15
ATOM     15  C   UNL d   1      29.434 -11.557   6.362  0.00  0.00     0.126 C 
BRANCH  15  16
ATOM     16  C   UNL d   1      29.055 -10.237   5.672  0.00  0.00     0.058 C 
BRANCH  16  17
ATOM     17  C   UNL d   1      28.347 -10.441   4.334  0.00  0.00    -0.057 A 
ATOM     18  C   UNL d   1      29.034 -11.008   3.250  0.00  0.00     0.007 A 
ATOM     19  C   UNL d   1      28.442 -11.061   1.982  0.00  0.00     0.001 A 
ATOM     20  C   UNL d   1      27.130 -10.625   1.795  0.00  0.00     0.000 A 
ATOM     21  C   UNL d   1      26.421 -10.101   2.866  0.00  0.00     0.001 A 
ATOM     22  C   UNL d   1      27.028 -10.005   4.117  0.00  0.00     0.007 A 
ENDBRANCH  16  17
ENDBRANCH  15  16
ENDBRANCH  13  15
ENDBRANCH  11  13
ENDBRANCH   9  11
ENDBRANCH   7   9
ENDBRANCH   2   5
BRANCH   3  23
ATOM     23  N   UNL d   1      27.162 -13.804  -0.106  0.00  0.00    -0.273 N 
ATOM     24  H   UNL d   1      27.435 -12.912  -0.518  0.00  0.00     0.189 HD
BRANCH  23  25
ATOM     25  C   UNL d   1      26.921 -14.963  -0.842  0.00  0.00     0.186 C 
ATOM     26  S   UNL d   1      25.985 -14.931  -2.243  0.00  0.00    -0.040 SA
BRANCH  25  27
ATOM     27  N   UNL d   1      27.507 -16.118  -0.329  0.00  0.00    -0.366 N 
ATOM     28  H   UNL d   1      28.292 -16.049   0.306  0.00  0.00     0.161 HD
BRANCH  27  29
ATOM     29  C   UNL d   1      27.000 -17.470  -0.630  0.00  0.00     0.126 C 
BRANCH  29  30
ATOM     30  C   UNL d   1      25.985 -18.071   0.360  0.00  0.00     0.058 C 
BRANCH  30  31
ATOM     31  C   UNL d   1      24.545 -17.957  -0.123  0.00  0.00    -0.057 A 
ATOM     32  C   UNL d   1      23.985 -16.692  -0.359  0.00  0.00     0.007 A 
ATOM     33  C   UNL d   1      22.632 -16.559  -0.687  0.00  0.00     0.001 A 
ATOM     34  C   UNL d   1      21.842 -17.690  -0.879  0.00  0.00     0.000 A 
ATOM     35  C   UNL d   1      22.395 -18.954  -0.707  0.00  0.00     0.001 A 
ATOM     36  C   UNL d   1      23.736 -19.085  -0.336  0.00  0.00     0.007 A 
ENDBRANCH  30  31
ENDBRANCH  29  30
ENDBRANCH  27  29
ENDBRANCH  25  27
ENDBRANCH  23  25
ENDBRANCH   3  23
TORSDOF 13
ENDMDL
