MODEL 1
REMARK VINA RESULT:   -30.440      0.000      0.000
REMARK INTER + INTRA:         -35.443
REMARK INTER:                 -32.528
REMARK INTRA:                  -2.915
REMARK CONF_INDEPENDENT:        2.088
REMARK UNBOUND:                -2.915
REMARK  7 active torsions:
REMARK  status: ('A' for Active; 'I' for Inactive)
REMARK    1  A    between atoms: N_5  and  C_6 
REMARK    2  A    between atoms: C_6  and  C_7 
REMARK    3  A    between atoms: C_8  and  C_9 
REMARK       I    between atoms: C_9  and  N_11 
REMARK    4  A    between atoms: N_11  and  N_12 
REMARK    5  A    between atoms: C_13  and  C_14 
REMARK    6  A    between atoms: N_22  and  C_23 
REMARK    7  A    between atoms: C_27  and  N_28 
ROOT
ATOM      1  C   UNL d   1      24.385 -16.961  -0.918  0.00  0.00     0.096 C 
ATOM      2  C   UNL d   1      25.611 -17.563  -0.565  0.00  0.00     0.170 C 
ATOM      3  N   UNL d   1      25.308 -18.575   0.330  0.00  0.00    -0.152 NA
ATOM      4  N   UNL d   1      24.008 -18.610   0.562  0.00  0.00     0.012 NA
ATOM      5  N   UNL d   1      23.389 -17.793  -0.306  0.00  0.00    -0.215 N 
ENDROOT
BRANCH   2   6
ATOM      6  C   UNL d   1      27.072 -17.333  -0.891  0.00  0.00     0.293 C 
ATOM      7  O   UNL d   1      27.378 -16.925  -2.021  0.00  0.00    -0.264 OA
ATOM      8  N   UNL d   1      28.067 -17.572   0.081  0.00  0.00    -0.242 N 
ATOM      9  H   UNL d   1      27.860 -17.882   1.009  0.00  0.00     0.192 HD
BRANCH   8  10
ATOM     10  N   UNL d   1      29.427 -17.366  -0.200  0.00  0.00    -0.188 NA
ATOM     11  C   UNL d   1      29.882 -17.807  -1.341  0.00  0.00     0.116 C 
BRANCH  11  12
ATOM     12  C   UNL d   1      31.315 -17.523  -1.844  0.00  0.00     0.028 C 
ATOM     13  C   UNL d   1      31.977 -18.656  -2.662  0.00  0.00     0.010 C 
ATOM     14  C   UNL d   1      31.269 -18.925  -3.990  0.00  0.00     0.001 C 
ATOM     15  C   UNL d   1      31.166 -17.654  -4.827  0.00  0.00     0.000 C 
ATOM     16  C   UNL d   1      30.510 -16.527  -4.035  0.00  0.00     0.001 C 
ATOM     17  C   UNL d   1      31.252 -16.261  -2.721  0.00  0.00     0.010 C 
ENDBRANCH  11  12
ENDBRANCH   8  10
ENDBRANCH   2   6
BRANCH   1  18
ATOM     18  C   UNL d   1      24.067 -15.744  -1.721  0.00  0.00     0.296 C 
BRANCH  18  19
ATOM     19  N   UNL d   1      25.196 -15.158  -2.580  0.00  0.00    -0.066 N 
ATOM     20  C   UNL d   1      24.668 -14.336  -3.766  0.00  0.00     0.235 C 
ATOM     21  C   UNL d   1      25.822 -13.619  -4.474  0.00  0.00     0.032 C 
ATOM     22  C   UNL d   1      26.598 -12.721  -3.506  0.00  0.00    -0.015 C 
ATOM     23  C   UNL d   1      25.680 -11.692  -2.819  0.00  0.00     0.010 C 
ATOM     24  C   UNL d   1      27.250 -13.656  -2.507  0.00  0.00     0.032 C 
ATOM     25  C   UNL d   1      26.190 -14.395  -1.741  0.00  0.00     0.235 C 
ATOM     26  H   UNL d   1      25.710 -15.951  -2.984  0.00  0.00     0.280 HD
ENDBRANCH  18  19
ENDBRANCH   1  18
BRANCH   5  27
ATOM     27  C   UNL d   1      21.959 -17.811  -0.472  0.00  0.00     0.225 A 
ATOM     28  N   UNL d   1      21.318 -16.757  -0.997  0.00  0.00    -0.081 NA
ATOM     29  O   UNL d   1      20.027 -17.238  -1.270  0.00  0.00    -0.103 OA
ATOM     30  N   UNL d   1      19.905 -18.575  -0.895  0.00  0.00    -0.083 NA
ATOM     31  C   UNL d   1      21.091 -18.909  -0.392  0.00  0.00     0.201 A 
BRANCH  31  32
ATOM     32  N   UNL d   1      21.439 -20.142   0.025  0.00  0.00    -0.379 N 
ATOM     33  H   UNL d   1      20.827 -20.548   0.735  0.00  0.00     0.158 HD
ATOM     34  H   UNL d   1      22.413 -20.333   0.249  0.00  0.00     0.158 HD
ENDBRANCH  31  32
ENDBRANCH   5  27
TORSDOF 7
ENDMDL
MODEL 2
REMARK VINA RESULT:   -30.337      1.557      2.392
REMARK INTER + INTRA:         -35.173
REMARK INTER:                 -32.425
REMARK INTRA:                  -2.748
REMARK CONF_INDEPENDENT:        2.088
REMARK UNBOUND:                -2.748
REMARK  7 active torsions:
REMARK  status: ('A' for Active; 'I' for Inactive)
REMARK    1  A    between atoms: N_5  and  C_6 
REMARK    2  A    between atoms: C_6  and  C_7 
REMARK    3  A    between atoms: C_8  and  C_9 
REMARK       I    between atoms: C_9  and  N_11 
REMARK    4  A    between atoms: N_11  and  N_12 
REMARK    5  A    between atoms: C_13  and  C_14 
REMARK    6  A    between atoms: N_22  and  C_23 
REMARK    7  A    between atoms: C_27  and  N_28 
ROOT
ATOM      1  C   UNL d   1      24.394 -17.001  -0.925  0.00  0.00     0.096 C 
ATOM      2  C   UNL d   1      25.615 -17.601  -0.548  0.00  0.00     0.170 C 
ATOM      3  N   UNL d   1      25.300 -18.582   0.378  0.00  0.00    -0.152 NA
ATOM      4  N   UNL d   1      23.999 -18.600   0.605  0.00  0.00     0.012 NA
ATOM      5  N   UNL d   1      23.389 -17.806  -0.292  0.00  0.00    -0.215 N 
ENDROOT
BRANCH   2   6
ATOM      6  C   UNL d   1      27.078 -17.391  -0.874  0.00  0.00     0.293 C 
ATOM      7  O   UNL d   1      27.387 -16.937  -1.985  0.00  0.00    -0.264 OA
ATOM      8  N   UNL d   1      28.074 -17.702   0.077  0.00  0.00    -0.242 N 
ATOM      9  H   UNL d   1      27.865 -18.051   0.991  0.00  0.00     0.192 HD
BRANCH   8  10
ATOM     10  N   UNL d   1      29.436 -17.516  -0.204  0.00  0.00    -0.188 NA
ATOM     11  C   UNL d   1      29.867 -16.289  -0.320  0.00  0.00     0.116 C 
BRANCH  11  12
ATOM     12  C   UNL d   1      31.362 -15.933  -0.482  0.00  0.00     0.028 C 
ATOM     13  C   UNL d   1      31.905 -14.856   0.485  0.00  0.00     0.010 C 
ATOM     14  C   UNL d   1      31.886 -15.303   1.947  0.00  0.00     0.001 C 
ATOM     15  C   UNL d   1      32.642 -16.613   2.133  0.00  0.00     0.000 C 
ATOM     16  C   UNL d   1      32.115 -17.690   1.188  0.00  0.00     0.001 C 
ATOM     17  C   UNL d   1      32.168 -17.227  -0.272  0.00  0.00     0.010 C 
ENDBRANCH  11  12
ENDBRANCH   8  10
ENDBRANCH   2   6
BRANCH   1  18
ATOM     18  C   UNL d   1      24.089 -15.807  -1.767  0.00  0.00     0.296 C 
BRANCH  18  19
ATOM     19  N   UNL d   1      25.243 -15.219  -2.591  0.00  0.00    -0.066 N 
ATOM     20  C   UNL d   1      24.749 -14.382  -3.782  0.00  0.00     0.235 C 
ATOM     21  C   UNL d   1      25.924 -13.665  -4.454  0.00  0.00     0.032 C 
ATOM     22  C   UNL d   1      26.680 -12.781  -3.458  0.00  0.00    -0.015 C 
ATOM     23  C   UNL d   1      25.752 -11.754  -2.784  0.00  0.00     0.010 C 
ATOM     24  C   UNL d   1      27.302 -13.730  -2.453  0.00  0.00     0.032 C 
ATOM     25  C   UNL d   1      26.220 -14.470  -1.721  0.00  0.00     0.235 C 
ATOM     26  H   UNL d   1      25.762 -16.012  -2.991  0.00  0.00     0.280 HD
ENDBRANCH  18  19
ENDBRANCH   1  18
BRANCH   5  27
ATOM     27  C   UNL d   1      21.961 -17.818  -0.464  0.00  0.00     0.225 A 
ATOM     28  N   UNL d   1      21.325 -16.762  -0.992  0.00  0.00    -0.081 NA
ATOM     29  O   UNL d   1      20.033 -17.238  -1.270  0.00  0.00    -0.103 OA
ATOM     30  N   UNL d   1      19.905 -18.575  -0.895  0.00  0.00    -0.083 NA
ATOM     31  C   UNL d   1      21.088 -18.913  -0.387  0.00  0.00     0.201 A 
BRANCH  31  32
ATOM     32  N   UNL d   1      21.430 -20.147   0.032  0.00  0.00    -0.379 N 
ATOM     33  H   UNL d   1      20.878 -20.508   0.813  0.00  0.00     0.158 HD
ATOM     34  H   UNL d   1      22.414 -20.372   0.162  0.00  0.00     0.158 HD
ENDBRANCH  31  32
ENDBRANCH   5  27
TORSDOF 7
ENDMDL
MODEL 3
REMARK VINA RESULT:   -28.131      2.366      3.104
REMARK INTER + INTRA:         -30.866
REMARK INTER:                 -30.219
REMARK INTRA:                  -0.647
REMARK CONF_INDEPENDENT:        2.088
REMARK UNBOUND:                -0.647
REMARK  7 active torsions:
REMARK  status: ('A' for Active; 'I' for Inactive)
REMARK    1  A    between atoms: N_5  and  C_6 
REMARK    2  A    between atoms: C_6  and  C_7 
REMARK    3  A    between atoms: C_8  and  C_9 
REMARK       I    between atoms: C_9  and  N_11 
REMARK    4  A    between atoms: N_11  and  N_12 
REMARK    5  A    between atoms: C_13  and  C_14 
REMARK    6  A    between atoms: N_22  and  C_23 
REMARK    7  A    between atoms: C_27  and  N_28 
ROOT
ATOM      1  C   UNL d   1      24.193 -17.144  -0.651  0.00  0.00     0.096 C 
ATOM      2  C   UNL d   1      25.431 -17.399  -0.022  0.00  0.00     0.170 C 
ATOM      3  N   UNL d   1      25.241 -18.513   0.778  0.00  0.00    -0.152 NA
ATOM      4  N   UNL d   1      23.990 -18.928   0.701  0.00  0.00     0.012 NA
ATOM      5  N   UNL d   1      23.371 -18.261  -0.288  0.00  0.00    -0.215 N 
ENDROOT
BRANCH   2   6
ATOM      6  C   UNL d   1      26.796 -16.746   0.002  0.00  0.00     0.293 C 
ATOM      7  O   UNL d   1      27.767 -17.367  -0.455  0.00  0.00    -0.264 OA
ATOM      8  N   UNL d   1      26.958 -15.447   0.529  0.00  0.00    -0.242 N 
ATOM      9  H   UNL d   1      26.198 -14.905   0.889  0.00  0.00     0.192 HD
BRANCH   8  10
ATOM     10  N   UNL d   1      28.215 -14.823   0.562  0.00  0.00    -0.188 NA
ATOM     11  C   UNL d   1      28.297 -13.661   1.153  0.00  0.00     0.116 C 
BRANCH  11  12
ATOM     12  C   UNL d   1      29.638 -12.931   1.392  0.00  0.00     0.028 C 
ATOM     13  C   UNL d   1      30.777 -13.794   1.983  0.00  0.00     0.010 C 
ATOM     14  C   UNL d   1      31.235 -14.906   1.038  0.00  0.00     0.001 C 
ATOM     15  C   UNL d   1      31.643 -14.342  -0.318  0.00  0.00     0.000 C 
ATOM     16  C   UNL d   1      30.527 -13.492  -0.918  0.00  0.00     0.001 C 
ATOM     17  C   UNL d   1      30.103 -12.370   0.037  0.00  0.00     0.010 C 
ENDBRANCH  11  12
ENDBRANCH   8  10
ENDBRANCH   2   6
BRANCH   1  18
ATOM     18  C   UNL d   1      23.725 -16.014  -1.507  0.00  0.00     0.296 C 
BRANCH  18  19
ATOM     19  N   UNL d   1      24.627 -15.603  -2.679  0.00  0.00    -0.066 N 
ATOM     20  C   UNL d   1      24.296 -14.201  -3.213  0.00  0.00     0.235 C 
ATOM     21  C   UNL d   1      25.339 -13.762  -4.245  0.00  0.00     0.032 C 
ATOM     22  C   UNL d   1      26.752 -13.787  -3.654  0.00  0.00    -0.015 C 
ATOM     23  C   UNL d   1      26.860 -12.912  -2.391  0.00  0.00     0.010 C 
ATOM     24  C   UNL d   1      27.052 -15.244  -3.362  0.00  0.00     0.032 C 
ATOM     25  C   UNL d   1      26.087 -15.763  -2.336  0.00  0.00     0.235 C 
ATOM     26  H   UNL d   1      24.439 -16.258  -3.448  0.00  0.00     0.280 HD
ENDBRANCH  18  19
ENDBRANCH   1  18
BRANCH   5  27
ATOM     27  C   UNL d   1      22.082 -18.669  -0.783  0.00  0.00     0.225 A 
ATOM     28  N   UNL d   1      21.686 -19.947  -0.692  0.00  0.00    -0.081 NA
ATOM     29  O   UNL d   1      20.314 -19.906  -0.992  0.00  0.00    -0.103 OA
ATOM     30  N   UNL d   1      19.904 -18.603  -1.269  0.00  0.00    -0.083 NA
ATOM     31  C   UNL d   1      21.000 -17.857  -1.155  0.00  0.00     0.201 A 
BRANCH  31  32
ATOM     32  N   UNL d   1      21.043 -16.515  -1.267  0.00  0.00    -0.379 N 
ATOM     33  H   UNL d   1      21.492 -16.029  -0.488  0.00  0.00     0.158 HD
ATOM     34  H   UNL d   1      20.206 -16.016  -1.558  0.00  0.00     0.158 HD
ENDBRANCH  31  32
ENDBRANCH   5  27
TORSDOF 7
ENDMDL
