MODEL 1
REMARK VINA RESULT:    -7.312      0.000      0.000
REMARK INTER + INTRA:          -8.847
REMARK INTER:                  -8.505
REMARK INTRA:                  -0.342
REMARK CONF_INDEPENDENT:        1.193
REMARK UNBOUND:                -0.342
REMARK  4 active torsions:
REMARK  status: ('A' for Active; 'I' for Inactive)
REMARK    1  A    between atoms: C_4  and  C_5 
REMARK       I    between atoms: C_5  and  N_7 
REMARK    2  A    between atoms: N_7  and  C_8 
REMARK    3  A    between atoms: C_8  and  C_9 
REMARK    4  A    between atoms: C_21  and  N_22 
ROOT
ATOM      1  C   UNL d   1      26.748 -16.916   0.159  0.00  0.00     0.251 C 
ATOM      2  O   UNL d   1      27.697 -17.684   0.043  0.00  0.00    -0.268 OA
ATOM      3  N   UNL d   1      26.925 -15.623   0.607  0.00  0.00    -0.351 N 
ATOM      4  H   UNL d   1      26.117 -15.035   0.683  0.00  0.00     0.163 HD
ENDROOT
BRANCH   3   5
ATOM      5  C   UNL d   1      28.236 -15.105   0.964  0.00  0.00     0.181 C 
BRANCH   5   6
ATOM      6  C   UNL d   1      28.174 -14.315   2.230  0.00  0.00     0.044 A 
ATOM      7  C   UNL d   1      27.970 -12.965   2.446  0.00  0.00     0.125 A 
ATOM      8  N   UNL d   1      28.001 -12.728   3.805  0.00  0.00    -0.311 N 
ATOM      9  C   UNL d   1      27.843 -11.521   4.492  0.00  0.00     0.014 A 
ATOM     10  C   UNL d   1      28.221 -13.899   4.433  0.00  0.00     0.112 A 
ATOM     11  C   UNL d   1      27.593 -10.211   3.801  0.00  0.00     0.068 C 
ATOM     12  C   UNL d   1      27.924 -11.587   5.840  0.00  0.00     0.025 A 
ATOM     13  C   UNL d   1      28.159 -12.822   6.576  0.00  0.00     0.006 A 
ATOM     14  C   UNL d   1      28.309 -13.981   5.911  0.00  0.00     0.049 A 
ATOM     15  N   UNL d   1      28.325 -14.852   3.505  0.00  0.00    -0.343 N 
ATOM     16  H   UNL d   1      28.491 -15.830   3.722  0.00  0.00     0.167 HD
ENDBRANCH   5   6
ENDBRANCH   3   5
BRANCH   1  17
ATOM     17  C   UNL d   1      25.343 -17.347  -0.189  0.00  0.00     0.032 A 
ATOM     18  C   UNL d   1      24.401 -16.363  -0.544  0.00  0.00     0.026 A 
ATOM     19  C   UNL d   1      23.062 -16.690  -0.882  0.00  0.00    -0.028 A 
ATOM     20  C   UNL d   1      22.125 -15.576  -1.268  0.00  0.00     0.050 C 
ATOM     21  C   UNL d   1      22.668 -18.043  -0.851  0.00  0.00     0.108 A 
ATOM     22  C   UNL d   1      23.605 -19.028  -0.498  0.00  0.00     0.037 A 
ATOM     23  C   UNL d   1      24.926 -18.684  -0.176  0.00  0.00     0.019 A 
BRANCH  21  24
ATOM     24  N   UNL d   1      21.293 -18.496  -1.186  0.00  0.00    -0.115 N 
ATOM     25  O   UNL d   1      20.415 -17.624  -1.262  0.00  0.00    -0.532 OA
ATOM     26  O   UNL d   1      21.083 -19.699  -1.373  0.00  0.00    -0.532 OA
ENDBRANCH  21  24
ENDBRANCH   1  17
TORSDOF 4
ENDMDL
MODEL 2
REMARK VINA RESULT:    -6.587      9.266     11.671
REMARK INTER + INTRA:          -8.228
REMARK INTER:                  -7.780
REMARK INTRA:                  -0.448
REMARK CONF_INDEPENDENT:        1.193
REMARK UNBOUND:                -0.448
REMARK  4 active torsions:
REMARK  status: ('A' for Active; 'I' for Inactive)
REMARK    1  A    between atoms: C_4  and  C_5 
REMARK       I    between atoms: C_5  and  N_7 
REMARK    2  A    between atoms: N_7  and  C_8 
REMARK    3  A    between atoms: C_8  and  C_9 
REMARK    4  A    between atoms: C_21  and  N_22 
ROOT
ATOM      1  C   UNL d   1      25.567  -9.435  -4.222  0.00  0.00     0.251 C 
ATOM      2  O   UNL d   1      26.149  -8.818  -3.335  0.00  0.00    -0.268 OA
ATOM      3  N   UNL d   1      24.548  -8.852  -4.947  0.00  0.00    -0.351 N 
ATOM      4  H   UNL d   1      24.105  -9.398  -5.661  0.00  0.00     0.163 HD
ENDROOT
BRANCH   3   5
ATOM      5  C   UNL d   1      24.112  -7.487  -4.702  0.00  0.00     0.181 C 
BRANCH   5   6
ATOM      6  C   UNL d   1      23.091  -7.062  -5.706  0.00  0.00     0.044 A 
ATOM      7  C   UNL d   1      23.156  -6.976  -7.083  0.00  0.00     0.125 A 
ATOM      8  N   UNL d   1      21.939  -6.526  -7.554  0.00  0.00    -0.311 N 
ATOM      9  C   UNL d   1      21.538  -6.288  -8.871  0.00  0.00     0.014 A 
ATOM     10  C   UNL d   1      21.125  -6.330  -6.499  0.00  0.00     0.112 A 
ATOM     11  C   UNL d   1      22.436  -6.507 -10.054  0.00  0.00     0.068 C 
ATOM     12  C   UNL d   1      20.273  -5.842  -9.038  0.00  0.00     0.025 A 
ATOM     13  C   UNL d   1      19.345  -5.611  -7.938  0.00  0.00     0.006 A 
ATOM     14  C   UNL d   1      19.735  -5.843  -6.673  0.00  0.00     0.049 A 
ATOM     15  N   UNL d   1      21.800  -6.646  -5.392  0.00  0.00    -0.343 N 
ATOM     16  H   UNL d   1      21.405  -6.586  -4.458  0.00  0.00     0.167 HD
ENDBRANCH   5   6
ENDBRANCH   3   5
BRANCH   1  17
ATOM     17  C   UNL d   1      25.942 -10.857  -4.564  0.00  0.00     0.032 A 
ATOM     18  C   UNL d   1      25.530 -11.892  -3.703  0.00  0.00     0.026 A 
ATOM     19  C   UNL d   1      25.845 -13.252  -3.956  0.00  0.00    -0.028 A 
ATOM     20  C   UNL d   1      25.349 -14.297  -2.992  0.00  0.00     0.050 C 
ATOM     21  C   UNL d   1      26.600 -13.569  -5.104  0.00  0.00     0.108 A 
ATOM     22  C   UNL d   1      27.012 -12.539  -5.966  0.00  0.00     0.037 A 
ATOM     23  C   UNL d   1      26.683 -11.202  -5.701  0.00  0.00     0.019 A 
BRANCH  21  24
ATOM     24  N   UNL d   1      26.984 -14.958  -5.465  0.00  0.00    -0.115 N 
ATOM     25  O   UNL d   1      26.089 -15.815  -5.440  0.00  0.00    -0.532 OA
ATOM     26  O   UNL d   1      28.157 -15.199  -5.770  0.00  0.00    -0.532 OA
ENDBRANCH  21  24
ENDBRANCH   1  17
TORSDOF 4
ENDMDL
MODEL 3
REMARK VINA RESULT:    -6.427      4.324      8.506
REMARK INTER + INTRA:          -8.246
REMARK INTER:                  -7.620
REMARK INTRA:                  -0.625
REMARK CONF_INDEPENDENT:        1.193
REMARK UNBOUND:                -0.625
REMARK  4 active torsions:
REMARK  status: ('A' for Active; 'I' for Inactive)
REMARK    1  A    between atoms: C_4  and  C_5 
REMARK       I    between atoms: C_5  and  N_7 
REMARK    2  A    between atoms: N_7  and  C_8 
REMARK    3  A    between atoms: C_8  and  C_9 
REMARK    4  A    between atoms: C_21  and  N_22 
ROOT
ATOM      1  C   UNL d   1      27.358 -12.495  -0.213  0.00  0.00     0.251 C 
ATOM      2  O   UNL d   1      27.980 -13.400   0.336  0.00  0.00    -0.268 OA
ATOM      3  N   UNL d   1      26.893 -12.629  -1.505  0.00  0.00    -0.351 N 
ATOM      4  H   UNL d   1      26.390 -11.862  -1.907  0.00  0.00     0.163 HD
ENDROOT
BRANCH   3   5
ATOM      5  C   UNL d   1      27.112 -13.839  -2.281  0.00  0.00     0.181 C 
BRANCH   5   6
ATOM      6  C   UNL d   1      26.335 -14.984  -1.719  0.00  0.00     0.044 A 
ATOM      7  C   UNL d   1      26.722 -16.025  -0.897  0.00  0.00     0.125 A 
ATOM      8  N   UNL d   1      25.626 -16.830  -0.660  0.00  0.00    -0.311 N 
ATOM      9  C   UNL d   1      25.537 -17.992   0.111  0.00  0.00     0.014 A 
ATOM     10  C   UNL d   1      24.571 -16.311  -1.319  0.00  0.00     0.112 A 
ATOM     11  C   UNL d   1      26.704 -18.576   0.852  0.00  0.00     0.068 C 
ATOM     12  C   UNL d   1      24.321 -18.581   0.162  0.00  0.00     0.025 A 
ATOM     13  C   UNL d   1      23.144 -18.068  -0.526  0.00  0.00     0.006 A 
ATOM     14  C   UNL d   1      23.234 -16.949  -1.265  0.00  0.00     0.049 A 
ATOM     15  N   UNL d   1      24.981 -15.211  -1.953  0.00  0.00    -0.343 N 
ATOM     16  H   UNL d   1      24.371 -14.632  -2.523  0.00  0.00     0.167 HD
ENDBRANCH   5   6
ENDBRANCH   3   5
BRANCH   1  17
ATOM     17  C   UNL d   1      27.069 -11.197   0.501  0.00  0.00     0.032 A 
ATOM     18  C   UNL d   1      27.210  -9.988  -0.207  0.00  0.00     0.026 A 
ATOM     19  C   UNL d   1      26.958  -8.728   0.396  0.00  0.00    -0.028 A 
ATOM     20  C   UNL d   1      27.115  -7.486  -0.439  0.00  0.00     0.050 C 
ATOM     21  C   UNL d   1      26.562  -8.693   1.749  0.00  0.00     0.108 A 
ATOM     22  C   UNL d   1      26.419  -9.897   2.459  0.00  0.00     0.037 A 
ATOM     23  C   UNL d   1      26.665 -11.132   1.841  0.00  0.00     0.019 A 
BRANCH  21  24
ATOM     24  N   UNL d   1      26.272  -7.432   2.477  0.00  0.00    -0.115 N 
ATOM     25  O   UNL d   1      25.534  -6.611   1.912  0.00  0.00    -0.532 OA
ATOM     26  O   UNL d   1      26.767  -7.253   3.596  0.00  0.00    -0.532 OA
ENDBRANCH  21  24
ENDBRANCH   1  17
TORSDOF 4
ENDMDL
MODEL 4
REMARK VINA RESULT:    -6.383      4.146      8.274
REMARK INTER + INTRA:          -8.163
REMARK INTER:                  -7.576
REMARK INTRA:                  -0.588
REMARK CONF_INDEPENDENT:        1.193
REMARK UNBOUND:                -0.588
REMARK  4 active torsions:
REMARK  status: ('A' for Active; 'I' for Inactive)
REMARK    1  A    between atoms: C_4  and  C_5 
REMARK       I    between atoms: C_5  and  N_7 
REMARK    2  A    between atoms: N_7  and  C_8 
REMARK    3  A    between atoms: C_8  and  C_9 
REMARK    4  A    between atoms: C_21  and  N_22 
ROOT
ATOM      1  C   UNL d   1      27.629 -12.683   1.856  0.00  0.00     0.251 C 
ATOM      2  O   UNL d   1      27.083 -13.582   2.488  0.00  0.00    -0.268 OA
ATOM      3  N   UNL d   1      28.630 -12.955   0.946  0.00  0.00    -0.351 N 
ATOM      4  H   UNL d   1      29.043 -12.186   0.455  0.00  0.00     0.163 HD
ENDROOT
BRANCH   3   5
ATOM      5  C   UNL d   1      29.089 -14.311   0.689  0.00  0.00     0.181 C 
BRANCH   5   6
ATOM      6  C   UNL d   1      27.961 -15.185   0.251  0.00  0.00     0.044 A 
ATOM      7  C   UNL d   1      26.929 -14.954  -0.639  0.00  0.00     0.125 A 
ATOM      8  N   UNL d   1      26.139 -16.084  -0.700  0.00  0.00    -0.311 N 
ATOM      9  C   UNL d   1      24.990 -16.316  -1.460  0.00  0.00     0.014 A 
ATOM     10  C   UNL d   1      26.658 -17.007   0.134  0.00  0.00     0.112 A 
ATOM     11  C   UNL d   1      24.406 -15.296  -2.395  0.00  0.00     0.068 C 
ATOM     12  C   UNL d   1      24.414 -17.530  -1.314  0.00  0.00     0.025 A 
ATOM     13  C   UNL d   1      24.927 -18.568  -0.431  0.00  0.00     0.006 A 
ATOM     14  C   UNL d   1      26.034 -18.342   0.297  0.00  0.00     0.049 A 
ATOM     15  N   UNL d   1      27.744 -16.483   0.705  0.00  0.00    -0.343 N 
ATOM     16  H   UNL d   1      28.320 -16.981   1.377  0.00  0.00     0.167 HD
ENDBRANCH   5   6
ENDBRANCH   3   5
BRANCH   1  17
ATOM     17  C   UNL d   1      27.227 -11.240   2.040  0.00  0.00     0.032 A 
ATOM     18  C   UNL d   1      27.030 -10.440   0.898  0.00  0.00     0.026 A 
ATOM     19  C   UNL d   1      26.654  -9.075   0.990  0.00  0.00    -0.028 A 
ATOM     20  C   UNL d   1      26.446  -8.298  -0.283  0.00  0.00     0.050 C 
ATOM     21  C   UNL d   1      26.482  -8.506   2.268  0.00  0.00     0.108 A 
ATOM     22  C   UNL d   1      26.677  -9.300   3.410  0.00  0.00     0.037 A 
ATOM     23  C   UNL d   1      27.041 -10.650   3.297  0.00  0.00     0.019 A 
BRANCH  21  24
ATOM     24  N   UNL d   1      26.090  -7.089   2.480  0.00  0.00    -0.115 N 
ATOM     25  O   UNL d   1      26.569  -6.513   3.467  0.00  0.00    -0.532 OA
ATOM     26  O   UNL d   1      25.318  -6.550   1.680  0.00  0.00    -0.532 OA
ENDBRANCH  21  24
ENDBRANCH   1  17
TORSDOF 4
ENDMDL
MODEL 5
REMARK VINA RESULT:    -6.361      5.997      8.904
REMARK INTER + INTRA:          -8.263
REMARK INTER:                  -7.554
REMARK INTRA:                  -0.710
REMARK CONF_INDEPENDENT:        1.193
REMARK UNBOUND:                -0.710
REMARK  4 active torsions:
REMARK  status: ('A' for Active; 'I' for Inactive)
REMARK    1  A    between atoms: C_4  and  C_5 
REMARK       I    between atoms: C_5  and  N_7 
REMARK    2  A    between atoms: N_7  and  C_8 
REMARK    3  A    between atoms: C_8  and  C_9 
REMARK    4  A    between atoms: C_21  and  N_22 
ROOT
ATOM      1  C   UNL d   1      27.110 -14.809  -5.238  0.00  0.00     0.251 C 
ATOM      2  O   UNL d   1      26.231 -15.601  -5.562  0.00  0.00    -0.268 OA
ATOM      3  N   UNL d   1      26.903 -13.881  -4.238  0.00  0.00    -0.351 N 
ATOM      4  H   UNL d   1      27.653 -13.257  -4.011  0.00  0.00     0.163 HD
ENDROOT
BRANCH   3   5
ATOM      5  C   UNL d   1      25.643 -13.793  -3.518  0.00  0.00     0.181 C 
BRANCH   5   6
ATOM      6  C   UNL d   1      25.517 -14.898  -2.521  0.00  0.00     0.044 A 
ATOM      7  C   UNL d   1      24.405 -15.571  -2.052  0.00  0.00     0.125 A 
ATOM      8  N   UNL d   1      24.817 -16.513  -1.131  0.00  0.00    -0.311 N 
ATOM      9  C   UNL d   1      24.051 -17.424  -0.399  0.00  0.00     0.014 A 
ATOM     10  C   UNL d   1      26.158 -16.436  -1.020  0.00  0.00     0.112 A 
ATOM     11  C   UNL d   1      22.557 -17.522  -0.520  0.00  0.00     0.068 C 
ATOM     12  C   UNL d   1      24.731 -18.235   0.441  0.00  0.00     0.025 A 
ATOM     13  C   UNL d   1      26.178 -18.200   0.605  0.00  0.00     0.006 A 
ATOM     14  C   UNL d   1      26.912 -17.324  -0.102  0.00  0.00     0.049 A 
ATOM     15  N   UNL d   1      26.585 -15.477  -1.843  0.00  0.00    -0.343 N 
ATOM     16  H   UNL d   1      27.564 -15.222  -1.947  0.00  0.00     0.167 HD
ENDBRANCH   5   6
ENDBRANCH   3   5
BRANCH   1  17
ATOM     17  C   UNL d   1      28.459 -14.814  -5.916  0.00  0.00     0.032 A 
ATOM     18  C   UNL d   1      29.280 -15.950  -5.781  0.00  0.00     0.026 A 
ATOM     19  C   UNL d   1      30.562 -16.029  -6.387  0.00  0.00    -0.028 A 
ATOM     20  C   UNL d   1      31.366 -17.288  -6.207  0.00  0.00     0.050 C 
ATOM     21  C   UNL d   1      31.023 -14.929  -7.139  0.00  0.00     0.108 A 
ATOM     22  C   UNL d   1      30.206 -13.794  -7.276  0.00  0.00     0.037 A 
ATOM     23  C   UNL d   1      28.939 -13.740  -6.676  0.00  0.00     0.019 A 
BRANCH  21  24
ATOM     24  N   UNL d   1      32.346 -14.905  -7.814  0.00  0.00    -0.115 N 
ATOM     25  O   UNL d   1      33.175 -14.083  -7.399  0.00  0.00    -0.532 OA
ATOM     26  O   UNL d   1      32.563 -15.690  -8.743  0.00  0.00    -0.532 OA
ENDBRANCH  21  24
ENDBRANCH   1  17
TORSDOF 4
ENDMDL
MODEL 6
REMARK VINA RESULT:    -6.308      5.835      8.882
REMARK INTER + INTRA:          -8.150
REMARK INTER:                  -7.502
REMARK INTRA:                  -0.648
REMARK CONF_INDEPENDENT:        1.193
REMARK UNBOUND:                -0.648
REMARK  4 active torsions:
REMARK  status: ('A' for Active; 'I' for Inactive)
REMARK    1  A    between atoms: C_4  and  C_5 
REMARK       I    between atoms: C_5  and  N_7 
REMARK    2  A    between atoms: N_7  and  C_8 
REMARK    3  A    between atoms: C_8  and  C_9 
REMARK    4  A    between atoms: C_21  and  N_22 
ROOT
ATOM      1  C   UNL d   1      27.196 -14.953  -5.121  0.00  0.00     0.251 C 
ATOM      2  O   UNL d   1      26.202 -15.575  -5.481  0.00  0.00    -0.268 OA
ATOM      3  N   UNL d   1      27.125 -14.013  -4.112  0.00  0.00    -0.351 N 
ATOM      4  H   UNL d   1      27.965 -13.533  -3.855  0.00  0.00     0.163 HD
ENDROOT
BRANCH   3   5
ATOM      5  C   UNL d   1      25.878 -13.712  -3.427  0.00  0.00     0.181 C 
BRANCH   5   6
ATOM      6  C   UNL d   1      25.472 -14.837  -2.534  0.00  0.00     0.044 A 
ATOM      7  C   UNL d   1      26.229 -15.721  -1.789  0.00  0.00     0.125 A 
ATOM      8  N   UNL d   1      25.377 -16.582  -1.127  0.00  0.00    -0.311 N 
ATOM      9  C   UNL d   1      25.686 -17.635  -0.262  0.00  0.00     0.014 A 
ATOM     10  C   UNL d   1      24.111 -16.252  -1.448  0.00  0.00     0.112 A 
ATOM     11  C   UNL d   1      27.093 -18.008   0.106  0.00  0.00     0.068 C 
ATOM     12  C   UNL d   1      24.635 -18.318   0.244  0.00  0.00     0.025 A 
ATOM     13  C   UNL d   1      23.246 -18.009  -0.064  0.00  0.00     0.006 A 
ATOM     14  C   UNL d   1      22.953 -16.994  -0.895  0.00  0.00     0.049 A 
ATOM     15  N   UNL d   1      24.155 -15.213  -2.285  0.00  0.00    -0.343 N 
ATOM     16  H   UNL d   1      23.327 -14.772  -2.675  0.00  0.00     0.167 HD
ENDBRANCH   5   6
ENDBRANCH   3   5
BRANCH   1  17
ATOM     17  C   UNL d   1      28.543 -15.189  -5.759  0.00  0.00     0.032 A 
ATOM     18  C   UNL d   1      29.283 -16.325  -5.380  0.00  0.00     0.026 A 
ATOM     19  C   UNL d   1      30.558 -16.613  -5.934  0.00  0.00    -0.028 A 
ATOM     20  C   UNL d   1      31.273 -17.860  -5.485  0.00  0.00     0.050 C 
ATOM     21  C   UNL d   1      31.097 -15.726  -6.888  0.00  0.00     0.108 A 
ATOM     22  C   UNL d   1      30.361 -14.592  -7.270  0.00  0.00     0.037 A 
ATOM     23  C   UNL d   1      29.099 -14.330  -6.716  0.00  0.00     0.019 A 
BRANCH  21  24
ATOM     24  N   UNL d   1      32.420 -15.931  -7.532  0.00  0.00    -0.115 N 
ATOM     25  O   UNL d   1      33.420 -15.588  -6.885  0.00  0.00    -0.532 OA
ATOM     26  O   UNL d   1      32.470 -16.427  -8.662  0.00  0.00    -0.532 OA
ENDBRANCH  21  24
ENDBRANCH   1  17
TORSDOF 4
ENDMDL
MODEL 7
REMARK VINA RESULT:    -5.968      4.351      8.423
REMARK INTER + INTRA:          -8.361
REMARK INTER:                  -7.161
REMARK INTRA:                  -1.200
REMARK CONF_INDEPENDENT:        1.193
REMARK UNBOUND:                -1.200
REMARK  4 active torsions:
REMARK  status: ('A' for Active; 'I' for Inactive)
REMARK    1  A    between atoms: C_4  and  C_5 
REMARK       I    between atoms: C_5  and  N_7 
REMARK    2  A    between atoms: N_7  and  C_8 
REMARK    3  A    between atoms: C_8  and  C_9 
REMARK    4  A    between atoms: C_21  and  N_22 
ROOT
ATOM      1  C   UNL d   1      27.471 -12.049  -0.673  0.00  0.00     0.251 C 
ATOM      2  O   UNL d   1      28.351 -12.831  -0.327  0.00  0.00    -0.268 OA
ATOM      3  N   UNL d   1      26.709 -12.284  -1.799  0.00  0.00    -0.351 N 
ATOM      4  H   UNL d   1      26.002 -11.615  -2.038  0.00  0.00     0.163 HD
ENDROOT
BRANCH   3   5
ATOM      5  C   UNL d   1      26.905 -13.460  -2.630  0.00  0.00     0.181 C 
BRANCH   5   6
ATOM      6  C   UNL d   1      26.591 -14.709  -1.875  0.00  0.00     0.044 A 
ATOM      7  C   UNL d   1      25.470 -15.518  -1.888  0.00  0.00     0.125 A 
ATOM      8  N   UNL d   1      25.668 -16.560  -1.005  0.00  0.00    -0.311 N 
ATOM      9  C   UNL d   1      24.815 -17.620  -0.687  0.00  0.00     0.014 A 
ATOM     10  C   UNL d   1      26.885 -16.412  -0.444  0.00  0.00     0.112 A 
ATOM     11  C   UNL d   1      23.460 -17.796  -1.310  0.00  0.00     0.068 C 
ATOM     12  C   UNL d   1      25.276 -18.502   0.227  0.00  0.00     0.025 A 
ATOM     13  C   UNL d   1      26.580 -18.397   0.867  0.00  0.00     0.006 A 
ATOM     14  C   UNL d   1      27.399 -17.377   0.557  0.00  0.00     0.049 A 
ATOM     15  N   UNL d   1      27.443 -15.313  -0.955  0.00  0.00    -0.343 N 
ATOM     16  H   UNL d   1      28.368 -14.981  -0.694  0.00  0.00     0.167 HD
ENDBRANCH   5   6
ENDBRANCH   3   5
BRANCH   1  17
ATOM     17  C   UNL d   1      27.178 -10.798   0.119  0.00  0.00     0.032 A 
ATOM     18  C   UNL d   1      27.043 -10.897   1.517  0.00  0.00     0.026 A 
ATOM     19  C   UNL d   1      26.766  -9.766   2.329  0.00  0.00    -0.028 A 
ATOM     20  C   UNL d   1      26.656  -9.958   3.818  0.00  0.00     0.050 C 
ATOM     21  C   UNL d   1      26.614  -8.509   1.708  0.00  0.00     0.108 A 
ATOM     22  C   UNL d   1      26.749  -8.406   0.314  0.00  0.00     0.037 A 
ATOM     23  C   UNL d   1      27.031  -9.535  -0.469  0.00  0.00     0.019 A 
BRANCH  21  24
ATOM     24  N   UNL d   1      26.324  -7.262   2.461  0.00  0.00    -0.115 N 
ATOM     25  O   UNL d   1      25.536  -6.459   1.939  0.00  0.00    -0.532 OA
ATOM     26  O   UNL d   1      26.866  -7.078   3.556  0.00  0.00    -0.532 OA
ENDBRANCH  21  24
ENDBRANCH   1  17
TORSDOF 4
ENDMDL
MODEL 8
REMARK VINA RESULT:    -5.791      6.397      8.393
REMARK INTER + INTRA:          -8.111
REMARK INTER:                  -6.984
REMARK INTRA:                  -1.127
REMARK CONF_INDEPENDENT:        1.193
REMARK UNBOUND:                -1.127
REMARK  4 active torsions:
REMARK  status: ('A' for Active; 'I' for Inactive)
REMARK    1  A    between atoms: C_4  and  C_5 
REMARK       I    between atoms: C_5  and  N_7 
REMARK    2  A    between atoms: N_7  and  C_8 
REMARK    3  A    between atoms: C_8  and  C_9 
REMARK    4  A    between atoms: C_21  and  N_22 
ROOT
ATOM      1  C   UNL d   1      28.173 -12.713   5.023  0.00  0.00     0.251 C 
ATOM      2  O   UNL d   1      27.406 -13.591   5.404  0.00  0.00    -0.268 OA
ATOM      3  N   UNL d   1      29.535 -12.823   5.213  0.00  0.00    -0.351 N 
ATOM      4  H   UNL d   1      30.119 -12.079   4.882  0.00  0.00     0.163 HD
ENDROOT
BRANCH   3   5
ATOM      5  C   UNL d   1      30.131 -13.976   5.869  0.00  0.00     0.181 C 
BRANCH   5   6
ATOM      6  C   UNL d   1      29.853 -13.961   7.336  0.00  0.00     0.044 A 
ATOM      7  C   UNL d   1      30.584 -14.450   8.401  0.00  0.00     0.125 A 
ATOM      8  N   UNL d   1      29.893 -14.188   9.567  0.00  0.00    -0.311 N 
ATOM      9  C   UNL d   1      30.241 -14.493  10.885  0.00  0.00     0.014 A 
ATOM     10  C   UNL d   1      28.751 -13.550   9.246  0.00  0.00     0.112 A 
ATOM     11  C   UNL d   1      31.514 -15.200  11.254  0.00  0.00     0.068 C 
ATOM     12  C   UNL d   1      29.361 -14.113  11.838  0.00  0.00     0.025 A 
ATOM     13  C   UNL d   1      28.111 -13.421  11.554  0.00  0.00     0.006 A 
ATOM     14  C   UNL d   1      27.781 -13.127  10.285  0.00  0.00     0.049 A 
ATOM     15  N   UNL d   1      28.716 -13.409   7.919  0.00  0.00    -0.343 N 
ATOM     16  H   UNL d   1      27.954 -12.955   7.423  0.00  0.00     0.167 HD
ENDBRANCH   5   6
ENDBRANCH   3   5
BRANCH   1  17
ATOM     17  C   UNL d   1      27.664 -11.475   4.325  0.00  0.00     0.032 A 
ATOM     18  C   UNL d   1      27.830 -10.226   4.954  0.00  0.00     0.026 A 
ATOM     19  C   UNL d   1      27.376  -9.019   4.362  0.00  0.00    -0.028 A 
ATOM     20  C   UNL d   1      27.611  -7.725   5.095  0.00  0.00     0.050 C 
ATOM     21  C   UNL d   1      26.734  -9.080   3.108  0.00  0.00     0.108 A 
ATOM     22  C   UNL d   1      26.567 -10.324   2.477  0.00  0.00     0.037 A 
ATOM     23  C   UNL d   1      27.030 -11.505   3.076  0.00  0.00     0.019 A 
BRANCH  21  24
ATOM     24  N   UNL d   1      26.222  -7.880   2.399  0.00  0.00    -0.115 N 
ATOM     25  O   UNL d   1      25.511  -8.075   1.402  0.00  0.00    -0.532 OA
ATOM     26  O   UNL d   1      26.517  -6.757   2.822  0.00  0.00    -0.532 OA
ENDBRANCH  21  24
ENDBRANCH   1  17
TORSDOF 4
ENDMDL
MODEL 9
REMARK VINA RESULT:    -5.679      6.203      8.923
REMARK INTER + INTRA:          -8.161
REMARK INTER:                  -6.872
REMARK INTRA:                  -1.290
REMARK CONF_INDEPENDENT:        1.193
REMARK UNBOUND:                -1.290
REMARK  4 active torsions:
REMARK  status: ('A' for Active; 'I' for Inactive)
REMARK    1  A    between atoms: C_4  and  C_5 
REMARK       I    between atoms: C_5  and  N_7 
REMARK    2  A    between atoms: N_7  and  C_8 
REMARK    3  A    between atoms: C_8  and  C_9 
REMARK    4  A    between atoms: C_21  and  N_22 
ROOT
ATOM      1  C   UNL d   1      28.952 -15.421  -4.648  0.00  0.00     0.251 C 
ATOM      2  O   UNL d   1      29.406 -15.046  -3.572  0.00  0.00    -0.268 OA
ATOM      3  N   UNL d   1      27.621 -15.239  -4.965  0.00  0.00    -0.351 N 
ATOM      4  H   UNL d   1      27.301 -15.563  -5.858  0.00  0.00     0.163 HD
ENDROOT
BRANCH   3   5
ATOM      5  C   UNL d   1      26.693 -14.596  -4.049  0.00  0.00     0.181 C 
BRANCH   5   6
ATOM      6  C   UNL d   1      26.359 -15.496  -2.906  0.00  0.00     0.044 A 
ATOM      7  C   UNL d   1      25.148 -16.005  -2.477  0.00  0.00     0.125 A 
ATOM      8  N   UNL d   1      25.369 -16.793  -1.366  0.00  0.00    -0.311 N 
ATOM      9  C   UNL d   1      24.449 -17.510  -0.596  0.00  0.00     0.014 A 
ATOM     10  C   UNL d   1      26.689 -16.781  -1.097  0.00  0.00     0.112 A 
ATOM     11  C   UNL d   1      22.977 -17.534  -0.891  0.00  0.00     0.068 C 
ATOM     12  C   UNL d   1      24.956 -18.200   0.449  0.00  0.00     0.025 A 
ATOM     13  C   UNL d   1      26.372 -18.227   0.791  0.00  0.00     0.006 A 
ATOM     14  C   UNL d   1      27.254 -17.537   0.047  0.00  0.00     0.049 A 
ATOM     15  N   UNL d   1      27.289 -16.012  -2.008  0.00  0.00    -0.343 N 
ATOM     16  H   UNL d   1      28.291 -15.841  -2.025  0.00  0.00     0.167 HD
ENDBRANCH   5   6
ENDBRANCH   3   5
BRANCH   1  17
ATOM     17  C   UNL d   1      29.828 -16.096  -5.677  0.00  0.00     0.032 A 
ATOM     18  C   UNL d   1      30.030 -17.486  -5.588  0.00  0.00     0.026 A 
ATOM     19  C   UNL d   1      30.841 -18.190  -6.516  0.00  0.00    -0.028 A 
ATOM     20  C   UNL d   1      30.989 -19.680  -6.357  0.00  0.00     0.050 C 
ATOM     21  C   UNL d   1      31.466 -17.467  -7.552  0.00  0.00     0.108 A 
ATOM     22  C   UNL d   1      31.265 -16.079  -7.645  0.00  0.00     0.037 A 
ATOM     23  C   UNL d   1      30.453 -15.404  -6.722  0.00  0.00     0.019 A 
BRANCH  21  24
ATOM     24  N   UNL d   1      32.333 -18.103  -8.577  0.00  0.00    -0.115 N 
ATOM     25  O   UNL d   1      31.796 -18.913  -9.345  0.00  0.00    -0.532 OA
ATOM     26  O   UNL d   1      33.532 -17.803  -8.623  0.00  0.00    -0.532 OA
ENDBRANCH  21  24
ENDBRANCH   1  17
TORSDOF 4
ENDMDL
