MODEL 1
REMARK VINA RESULT:    -8.371      0.000      0.000
REMARK INTER + INTRA:         -12.042
REMARK INTER:                 -10.459
REMARK INTRA:                  -1.582
REMARK CONF_INDEPENDENT:        2.088
REMARK UNBOUND:                -1.582
REMARK  7 active torsions:
REMARK  status: ('A' for Active; 'I' for Inactive)
REMARK    1  A    between atoms: O_2  and  C_3 
REMARK    2  A    between atoms: C_5  and  O_6 
REMARK    3  A    between atoms: C_9  and  C_10 
REMARK       I    between atoms: C_10  and  N_12 
REMARK       I    between atoms: C_13  and  N_14 
REMARK       I    between atoms: C_13  and  N_21 
REMARK    4  A    between atoms: N_14  and  C_15 
REMARK    5  A    between atoms: C_15  and  C_16 
REMARK    6  A    between atoms: N_21  and  C_22 
REMARK    7  A    between atoms: C_26  and  C_27 
ROOT
ATOM      1  C   UNL d   1      26.820 -14.364   0.817  0.00  0.00     0.294 C 
ATOM      2  O   UNL d   1      26.393 -13.239   0.560  0.00  0.00    -0.265 OA
ATOM      3  N   UNL d   1      27.692 -14.784   1.808  0.00  0.00    -0.023 NA
ATOM      4  C   UNL d   1      28.188 -13.974   2.716  0.00  0.00     0.704 C 
ATOM      5  N   UNL d   1      27.949 -12.631   2.915  0.00  0.00    -0.222 N 
ATOM      6  N   UNL d   1      29.144 -14.455   3.625  0.00  0.00    -0.190 N 
ATOM      7  H   UNL d   1      28.618 -12.142   3.487  0.00  0.00     0.177 HD
ATOM      8  H   UNL d   1      29.356 -15.443   3.563  0.00  0.00     0.184 HD
ENDROOT
BRANCH   5   9
ATOM      9  C   UNL d   1      27.077 -11.803   2.119  0.00  0.00     0.170 C 
BRANCH   9  10
ATOM     10  C   UNL d   1      26.509 -10.502   2.592  0.00  0.00     0.139 C 
ATOM     11  C   UNL d   1      26.884  -9.368   1.703  0.00  0.00     0.035 C 
ATOM     12  C   UNL d   1      27.031  -8.235   2.665  0.00  0.00     0.029 C 
ATOM     13  C   UNL d   1      27.534  -8.900   3.928  0.00  0.00     0.168 C 
ATOM     14  O   UNL d   1      27.013 -10.222   3.917  0.00  0.00    -0.384 OA
ENDBRANCH   9  10
ENDBRANCH   5   9
BRANCH   6  15
ATOM     15  C   UNL d   1      29.635 -13.839   4.811  0.00  0.00     0.049 A 
ATOM     16  C   UNL d   1      30.459 -12.710   4.795  0.00  0.00     0.030 A 
ATOM     17  C   UNL d   1      30.803 -12.055   5.993  0.00  0.00     0.003 A 
ATOM     18  C   UNL d   1      30.277 -12.483   7.216  0.00  0.00     0.007 A 
ATOM     19  C   UNL d   1      29.476 -13.627   7.267  0.00  0.00    -0.053 A 
ATOM     20  C   UNL d   1      29.224 -14.303   6.063  0.00  0.00     0.037 A 
BRANCH  19  21
ATOM     21  C   UNL d   1      28.905 -14.133   8.583  0.00  0.00     0.010 C 
ATOM     22  C   UNL d   1      29.990 -14.797   9.438  0.00  0.00     0.015 C 
ATOM     23  C   UNL d   1      28.194 -13.042   9.401  0.00  0.00     0.015 C 
ENDBRANCH  19  21
ENDBRANCH   6  15
BRANCH   1  24
ATOM     24  C   UNL d   1      26.289 -15.212  -0.230  0.00  0.00     0.040 A 
ATOM     25  C   UNL d   1      25.907 -16.532   0.146  0.00  0.00     0.054 A 
ATOM     26  C   UNL d   1      25.242 -17.364  -0.716  0.00  0.00     0.071 A 
ATOM     27  C   UNL d   1      25.084 -16.906  -2.020  0.00  0.00     0.073 A 
ATOM     28  C   UNL d   1      25.483 -15.603  -2.400  0.00  0.00     0.071 A 
ATOM     29  C   UNL d   1      26.065 -14.733  -1.492  0.00  0.00     0.054 A 
BRANCH  26  30
ATOM     30  O   UNL d   1      24.715 -18.575  -0.357  0.00  0.00    -0.356 OA
ATOM     31  C   UNL d   1      23.305 -18.756  -0.577  0.00  0.00     0.210 C 
ENDBRANCH  26  30
BRANCH  28  32
ATOM     32  O   UNL d   1      25.164 -15.211  -3.670  0.00  0.00    -0.356 OA
ATOM     33  C   UNL d   1      25.059 -13.798  -3.830  0.00  0.00     0.210 C 
ENDBRANCH  28  32
ENDBRANCH   1  24
TORSDOF 7
ENDMDL
MODEL 2
REMARK VINA RESULT:    -8.081      0.367      2.211
REMARK INTER + INTRA:         -11.687
REMARK INTER:                 -10.169
REMARK INTRA:                  -1.518
REMARK CONF_INDEPENDENT:        2.088
REMARK UNBOUND:                -1.518
REMARK  7 active torsions:
REMARK  status: ('A' for Active; 'I' for Inactive)
REMARK    1  A    between atoms: O_2  and  C_3 
REMARK    2  A    between atoms: C_5  and  O_6 
REMARK    3  A    between atoms: C_9  and  C_10 
REMARK       I    between atoms: C_10  and  N_12 
REMARK       I    between atoms: C_13  and  N_14 
REMARK       I    between atoms: C_13  and  N_21 
REMARK    4  A    between atoms: N_14  and  C_15 
REMARK    5  A    between atoms: C_15  and  C_16 
REMARK    6  A    between atoms: N_21  and  C_22 
REMARK    7  A    between atoms: C_26  and  C_27 
ROOT
ATOM      1  C   UNL d   1      26.621 -14.383   0.631  0.00  0.00     0.294 C 
ATOM      2  O   UNL d   1      26.277 -13.242   0.325  0.00  0.00    -0.265 OA
ATOM      3  N   UNL d   1      27.491 -14.820   1.617  0.00  0.00    -0.023 NA
ATOM      4  C   UNL d   1      28.081 -14.007   2.464  0.00  0.00     0.704 C 
ATOM      5  N   UNL d   1      27.956 -12.639   2.596  0.00  0.00    -0.222 N 
ATOM      6  N   UNL d   1      29.026 -14.515   3.369  0.00  0.00    -0.190 N 
ATOM      7  H   UNL d   1      28.681 -12.177   3.119  0.00  0.00     0.177 HD
ATOM      8  H   UNL d   1      29.157 -15.519   3.355  0.00  0.00     0.184 HD
ENDROOT
BRANCH   5   9
ATOM      9  C   UNL d   1      27.126 -11.787   1.781  0.00  0.00     0.170 C 
BRANCH   9  10
ATOM     10  C   UNL d   1      26.519 -10.509   2.270  0.00  0.00     0.139 C 
ATOM     11  C   UNL d   1      26.978  -9.331   1.485  0.00  0.00     0.035 C 
ATOM     12  C   UNL d   1      27.035  -8.254   2.519  0.00  0.00     0.029 C 
ATOM     13  C   UNL d   1      27.415  -8.991   3.784  0.00  0.00     0.168 C 
ATOM     14  O   UNL d   1      26.894 -10.307   3.651  0.00  0.00    -0.384 OA
ENDBRANCH   9  10
ENDBRANCH   5   9
BRANCH   6  15
ATOM     15  C   UNL d   1      29.604 -13.879   4.504  0.00  0.00     0.049 A 
ATOM     16  C   UNL d   1      30.551 -12.857   4.401  0.00  0.00     0.030 A 
ATOM     17  C   UNL d   1      30.988 -12.165   5.547  0.00  0.00     0.003 A 
ATOM     18  C   UNL d   1      30.439 -12.444   6.801  0.00  0.00     0.007 A 
ATOM     19  C   UNL d   1      29.514 -13.483   6.941  0.00  0.00    -0.053 A 
ATOM     20  C   UNL d   1      29.166 -14.206   5.790  0.00  0.00     0.037 A 
BRANCH  19  21
ATOM     21  C   UNL d   1      28.912 -13.828   8.294  0.00  0.00     0.010 C 
ATOM     22  C   UNL d   1      29.959 -14.454   9.222  0.00  0.00     0.015 C 
ATOM     23  C   UNL d   1      28.250 -12.629   8.993  0.00  0.00     0.015 C 
ENDBRANCH  19  21
ENDBRANCH   6  15
BRANCH   1  24
ATOM     24  C   UNL d   1      25.989 -15.239  -0.352  0.00  0.00     0.040 A 
ATOM     25  C   UNL d   1      25.904 -14.733  -1.682  0.00  0.00     0.054 A 
ATOM     26  C   UNL d   1      25.480 -15.514  -2.724  0.00  0.00     0.071 A 
ATOM     27  C   UNL d   1      25.003 -16.779  -2.396  0.00  0.00     0.073 A 
ATOM     28  C   UNL d   1      25.067 -17.273  -1.072  0.00  0.00     0.071 A 
ATOM     29  C   UNL d   1      25.591 -16.510  -0.041  0.00  0.00     0.054 A 
BRANCH  26  30
ATOM     30  O   UNL d   1      25.530 -15.131  -4.037  0.00  0.00    -0.356 OA
ATOM     31  C   UNL d   1      25.156 -13.773  -4.329  0.00  0.00     0.210 C 
ENDBRANCH  26  30
BRANCH  28  32
ATOM     32  O   UNL d   1      24.692 -18.575  -0.886  0.00  0.00    -0.356 OA
ATOM     33  C   UNL d   1      23.280 -18.770  -0.853  0.00  0.00     0.210 C 
ENDBRANCH  28  32
ENDBRANCH   1  24
TORSDOF 7
ENDMDL
MODEL 3
REMARK VINA RESULT:    -7.978      6.303      9.722
REMARK INTER + INTRA:         -11.321
REMARK INTER:                 -10.066
REMARK INTRA:                  -1.255
REMARK CONF_INDEPENDENT:        2.088
REMARK UNBOUND:                -1.255
REMARK  7 active torsions:
REMARK  status: ('A' for Active; 'I' for Inactive)
REMARK    1  A    between atoms: O_2  and  C_3 
REMARK    2  A    between atoms: C_5  and  O_6 
REMARK    3  A    between atoms: C_9  and  C_10 
REMARK       I    between atoms: C_10  and  N_12 
REMARK       I    between atoms: C_13  and  N_14 
REMARK       I    between atoms: C_13  and  N_21 
REMARK    4  A    between atoms: N_14  and  C_15 
REMARK    5  A    between atoms: C_15  and  C_16 
REMARK    6  A    between atoms: N_21  and  C_22 
REMARK    7  A    between atoms: C_26  and  C_27 
ROOT
ATOM      1  C   UNL d   1      25.723 -15.229  -2.341  0.00  0.00     0.294 C 
ATOM      2  O   UNL d   1      26.816 -15.753  -2.551  0.00  0.00    -0.265 OA
ATOM      3  N   UNL d   1      25.212 -14.020  -2.785  0.00  0.00    -0.023 NA
ATOM      4  C   UNL d   1      25.864 -13.222  -3.599  0.00  0.00     0.704 C 
ATOM      5  N   UNL d   1      27.095 -13.397  -4.197  0.00  0.00    -0.222 N 
ATOM      6  N   UNL d   1      25.322 -11.968  -3.923  0.00  0.00    -0.190 N 
ATOM      7  H   UNL d   1      27.530 -12.567  -4.567  0.00  0.00     0.177 HD
ATOM      8  H   UNL d   1      24.404 -11.772  -3.544  0.00  0.00     0.184 HD
ENDROOT
BRANCH   5   9
ATOM      9  C   UNL d   1      27.960 -14.538  -4.025  0.00  0.00     0.170 C 
BRANCH   9  10
ATOM     10  C   UNL d   1      28.455 -15.380  -5.159  0.00  0.00     0.139 C 
ATOM     11  C   UNL d   1      29.941 -15.459  -5.193  0.00  0.00     0.035 C 
ATOM     12  C   UNL d   1      30.231 -15.510  -6.658  0.00  0.00     0.029 C 
ATOM     13  C   UNL d   1      29.125 -14.678  -7.271  0.00  0.00     0.168 C 
ATOM     14  O   UNL d   1      28.004 -14.804  -6.405  0.00  0.00    -0.384 OA
ENDBRANCH   9  10
ENDBRANCH   5   9
BRANCH   6  15
ATOM     15  C   UNL d   1      25.727 -11.057  -4.939  0.00  0.00     0.049 A 
ATOM     16  C   UNL d   1      26.387 -11.463  -6.103  0.00  0.00     0.030 A 
ATOM     17  C   UNL d   1      26.642 -10.545  -7.140  0.00  0.00     0.003 A 
ATOM     18  C   UNL d   1      26.185  -9.227  -7.054  0.00  0.00     0.007 A 
ATOM     19  C   UNL d   1      25.551  -8.784  -5.890  0.00  0.00    -0.053 A 
ATOM     20  C   UNL d   1      25.390  -9.705  -4.844  0.00  0.00     0.037 A 
BRANCH  19  21
ATOM     21  C   UNL d   1      25.061  -7.350  -5.754  0.00  0.00     0.010 C 
ATOM     22  C   UNL d   1      23.552  -7.256  -6.004  0.00  0.00     0.015 C 
ATOM     23  C   UNL d   1      25.404  -6.714  -4.397  0.00  0.00     0.015 C 
ENDBRANCH  19  21
ENDBRANCH   6  15
BRANCH   1  24
ATOM     24  C   UNL d   1      25.059 -16.114  -1.407  0.00  0.00     0.040 A 
ATOM     25  C   UNL d   1      23.645 -16.242  -1.540  0.00  0.00     0.054 A 
ATOM     26  C   UNL d   1      22.935 -17.171  -0.826  0.00  0.00     0.071 A 
ATOM     27  C   UNL d   1      23.642 -17.885   0.137  0.00  0.00     0.073 A 
ATOM     28  C   UNL d   1      25.042 -17.742   0.284  0.00  0.00     0.071 A 
ATOM     29  C   UNL d   1      25.766 -16.870  -0.514  0.00  0.00     0.054 A 
BRANCH  26  30
ATOM     30  O   UNL d   1      21.610 -17.443  -1.029  0.00  0.00    -0.356 OA
ATOM     31  C   UNL d   1      21.216 -18.825  -0.963  0.00  0.00     0.210 C 
ENDBRANCH  26  30
BRANCH  28  32
ATOM     32  O   UNL d   1      25.654 -18.585   1.170  0.00  0.00    -0.356 OA
ATOM     33  C   UNL d   1      27.021 -18.851   0.865  0.00  0.00     0.210 C 
ENDBRANCH  28  32
ENDBRANCH   1  24
TORSDOF 7
ENDMDL
MODEL 4
REMARK VINA RESULT:    -7.750      6.458      9.766
REMARK INTER + INTRA:         -11.170
REMARK INTER:                  -9.838
REMARK INTRA:                  -1.332
REMARK CONF_INDEPENDENT:        2.088
REMARK UNBOUND:                -1.332
REMARK  7 active torsions:
REMARK  status: ('A' for Active; 'I' for Inactive)
REMARK    1  A    between atoms: O_2  and  C_3 
REMARK    2  A    between atoms: C_5  and  O_6 
REMARK    3  A    between atoms: C_9  and  C_10 
REMARK       I    between atoms: C_10  and  N_12 
REMARK       I    between atoms: C_13  and  N_14 
REMARK       I    between atoms: C_13  and  N_21 
REMARK    4  A    between atoms: N_14  and  C_15 
REMARK    5  A    between atoms: C_15  and  C_16 
REMARK    6  A    between atoms: N_21  and  C_22 
REMARK    7  A    between atoms: C_26  and  C_27 
ROOT
ATOM      1  C   UNL d   1      25.917 -15.213  -2.497  0.00  0.00     0.294 C 
ATOM      2  O   UNL d   1      27.094 -15.565  -2.437  0.00  0.00    -0.265 OA
ATOM      3  N   UNL d   1      25.346 -14.101  -3.095  0.00  0.00    -0.023 NA
ATOM      4  C   UNL d   1      26.039 -13.220  -3.779  0.00  0.00     0.704 C 
ATOM      5  N   UNL d   1      27.385 -13.209  -4.082  0.00  0.00    -0.222 N 
ATOM      6  N   UNL d   1      25.404 -12.067  -4.269  0.00  0.00    -0.190 N 
ATOM      7  H   UNL d   1      27.764 -12.326  -4.383  0.00  0.00     0.177 HD
ATOM      8  H   UNL d   1      24.406 -12.011  -4.111  0.00  0.00     0.184 HD
ENDROOT
BRANCH   5   9
ATOM      9  C   UNL d   1      28.348 -14.202  -3.674  0.00  0.00     0.170 C 
BRANCH   9  10
ATOM     10  C   UNL d   1      28.875 -15.267  -4.584  0.00  0.00     0.139 C 
ATOM     11  C   UNL d   1      30.326 -15.097  -4.867  0.00  0.00     0.035 C 
ATOM     12  C   UNL d   1      30.440 -15.569  -6.280  0.00  0.00     0.029 C 
ATOM     13  C   UNL d   1      29.112 -15.182  -6.894  0.00  0.00     0.168 C 
ATOM     14  O   UNL d   1      28.160 -15.212  -5.838  0.00  0.00    -0.384 OA
ENDBRANCH   9  10
ENDBRANCH   5   9
BRANCH   6  15
ATOM     15  C   UNL d   1      25.889 -11.115  -5.209  0.00  0.00     0.049 A 
ATOM     16  C   UNL d   1      26.673 -11.467  -6.311  0.00  0.00     0.030 A 
ATOM     17  C   UNL d   1      27.010 -10.510  -7.288  0.00  0.00     0.003 A 
ATOM     18  C   UNL d   1      26.515  -9.205  -7.208  0.00  0.00     0.007 A 
ATOM     19  C   UNL d   1      25.755  -8.815  -6.102  0.00  0.00    -0.053 A 
ATOM     20  C   UNL d   1      25.511  -9.774  -5.107  0.00  0.00     0.037 A 
BRANCH  19  21
ATOM     21  C   UNL d   1      25.218  -7.398  -5.973  0.00  0.00     0.010 C 
ATOM     22  C   UNL d   1      24.850  -6.818  -7.343  0.00  0.00     0.015 C 
ATOM     23  C   UNL d   1      24.015  -7.285  -5.021  0.00  0.00     0.015 C 
ENDBRANCH  19  21
ENDBRANCH   6  15
BRANCH   1  24
ATOM     24  C   UNL d   1      25.198 -16.181  -1.695  0.00  0.00     0.040 A 
ATOM     25  C   UNL d   1      25.981 -17.027  -0.857  0.00  0.00     0.054 A 
ATOM     26  C   UNL d   1      25.406 -17.861   0.065  0.00  0.00     0.071 A 
ATOM     27  C   UNL d   1      24.017 -17.945   0.042  0.00  0.00     0.073 A 
ATOM     28  C   UNL d   1      23.240 -17.122  -0.806  0.00  0.00     0.071 A 
ATOM     29  C   UNL d   1      23.831 -16.208  -1.664  0.00  0.00     0.054 A 
BRANCH  26  30
ATOM     30  O   UNL d   1      26.110 -18.572   0.998  0.00  0.00    -0.356 OA
ATOM     31  C   UNL d   1      27.404 -19.057   0.600  0.00  0.00     0.210 C 
ENDBRANCH  26  30
BRANCH  28  32
ATOM     32  O   UNL d   1      21.883 -17.194  -0.653  0.00  0.00    -0.356 OA
ATOM     33  C   UNL d   1      21.386 -18.525  -0.528  0.00  0.00     0.210 C 
ENDBRANCH  28  32
ENDBRANCH   1  24
TORSDOF 7
ENDMDL
MODEL 5
REMARK VINA RESULT:    -7.711      2.375      3.789
REMARK INTER + INTRA:         -11.471
REMARK INTER:                  -9.799
REMARK INTRA:                  -1.673
REMARK CONF_INDEPENDENT:        2.088
REMARK UNBOUND:                -1.673
REMARK  7 active torsions:
REMARK  status: ('A' for Active; 'I' for Inactive)
REMARK    1  A    between atoms: O_2  and  C_3 
REMARK    2  A    between atoms: C_5  and  O_6 
REMARK    3  A    between atoms: C_9  and  C_10 
REMARK       I    between atoms: C_10  and  N_12 
REMARK       I    between atoms: C_13  and  N_14 
REMARK       I    between atoms: C_13  and  N_21 
REMARK    4  A    between atoms: N_14  and  C_15 
REMARK    5  A    between atoms: C_15  and  C_16 
REMARK    6  A    between atoms: N_21  and  C_22 
REMARK    7  A    between atoms: C_26  and  C_27 
ROOT
ATOM      1  C   UNL d   1      27.714 -15.428   0.452  0.00  0.00     0.294 C 
ATOM      2  O   UNL d   1      28.791 -15.420  -0.143  0.00  0.00    -0.265 OA
ATOM      3  N   UNL d   1      27.421 -15.126   1.772  0.00  0.00    -0.023 NA
ATOM      4  C   UNL d   1      28.324 -14.708   2.630  0.00  0.00     0.704 C 
ATOM      5  N   UNL d   1      29.664 -14.447   2.432  0.00  0.00    -0.222 N 
ATOM      6  N   UNL d   1      27.968 -14.520   3.975  0.00  0.00    -0.190 N 
ATOM      7  H   UNL d   1      30.232 -14.393   3.262  0.00  0.00     0.177 HD
ATOM      8  H   UNL d   1      26.992 -14.665   4.198  0.00  0.00     0.184 HD
ENDROOT
BRANCH   5   9
ATOM      9  C   UNL d   1      30.379 -14.605   1.189  0.00  0.00     0.170 C 
BRANCH   9  10
ATOM     10  C   UNL d   1      31.726 -15.247   1.084  0.00  0.00     0.139 C 
ATOM     11  C   UNL d   1      31.676 -16.540   0.349  0.00  0.00     0.035 C 
ATOM     12  C   UNL d   1      32.714 -17.354   1.052  0.00  0.00     0.029 C 
ATOM     13  C   UNL d   1      32.651 -16.859   2.480  0.00  0.00     0.168 C 
ATOM     14  O   UNL d   1      32.232 -15.502   2.413  0.00  0.00    -0.384 OA
ENDBRANCH   9  10
ENDBRANCH   5   9
BRANCH   6  15
ATOM     15  C   UNL d   1      28.700 -13.868   5.007  0.00  0.00     0.049 A 
ATOM     16  C   UNL d   1      29.274 -12.603   4.849  0.00  0.00     0.030 A 
ATOM     17  C   UNL d   1      29.867 -11.943   5.942  0.00  0.00     0.003 A 
ATOM     18  C   UNL d   1      29.839 -12.510   7.219  0.00  0.00     0.007 A 
ATOM     19  C   UNL d   1      29.301 -13.786   7.402  0.00  0.00    -0.053 A 
ATOM     20  C   UNL d   1      28.795 -14.450   6.274  0.00  0.00     0.037 A 
BRANCH  19  21
ATOM     21  C   UNL d   1      29.273 -14.443   8.774  0.00  0.00     0.010 C 
ATOM     22  C   UNL d   1      30.689 -14.762   9.264  0.00  0.00     0.015 C 
ATOM     23  C   UNL d   1      28.532 -13.612   9.835  0.00  0.00     0.015 C 
ENDBRANCH  19  21
ENDBRANCH   6  15
BRANCH   1  24
ATOM     24  C   UNL d   1      26.760 -15.937  -0.511  0.00  0.00     0.040 A 
ATOM     25  C   UNL d   1      26.015 -17.090  -0.128  0.00  0.00     0.054 A 
ATOM     26  C   UNL d   1      24.973 -17.559  -0.883  0.00  0.00     0.071 A 
ATOM     27  C   UNL d   1      24.771 -16.939  -2.112  0.00  0.00     0.073 A 
ATOM     28  C   UNL d   1      25.525 -15.808  -2.502  0.00  0.00     0.071 A 
ATOM     29  C   UNL d   1      26.511 -15.280  -1.684  0.00  0.00     0.054 A 
BRANCH  26  30
ATOM     30  O   UNL d   1      24.129 -18.560  -0.484  0.00  0.00    -0.356 OA
ATOM     31  C   UNL d   1      22.726 -18.245  -0.449  0.00  0.00     0.210 C 
ENDBRANCH  26  30
BRANCH  28  32
ATOM     32  O   UNL d   1      25.155 -15.200  -3.670  0.00  0.00    -0.356 OA
ATOM     33  C   UNL d   1      25.117 -13.776  -3.594  0.00  0.00     0.210 C 
ENDBRANCH  28  32
ENDBRANCH   1  24
TORSDOF 7
ENDMDL
MODEL 6
REMARK VINA RESULT:    -7.624      6.396     10.122
REMARK INTER + INTRA:         -11.458
REMARK INTER:                  -9.712
REMARK INTRA:                  -1.746
REMARK CONF_INDEPENDENT:        2.088
REMARK UNBOUND:                -1.746
REMARK  7 active torsions:
REMARK  status: ('A' for Active; 'I' for Inactive)
REMARK    1  A    between atoms: O_2  and  C_3 
REMARK    2  A    between atoms: C_5  and  O_6 
REMARK    3  A    between atoms: C_9  and  C_10 
REMARK       I    between atoms: C_10  and  N_12 
REMARK       I    between atoms: C_13  and  N_14 
REMARK       I    between atoms: C_13  and  N_21 
REMARK    4  A    between atoms: N_14  and  C_15 
REMARK    5  A    between atoms: C_15  and  C_16 
REMARK    6  A    between atoms: N_21  and  C_22 
REMARK    7  A    between atoms: C_26  and  C_27 
ROOT
ATOM      1  C   UNL d   1      25.647 -15.238  -2.690  0.00  0.00     0.294 C 
ATOM      2  O   UNL d   1      26.554 -15.929  -3.150  0.00  0.00    -0.265 OA
ATOM      3  N   UNL d   1      25.286 -13.931  -2.975  0.00  0.00    -0.023 NA
ATOM      4  C   UNL d   1      25.887 -13.205  -3.890  0.00  0.00     0.704 C 
ATOM      5  N   UNL d   1      26.909 -13.551  -4.750  0.00  0.00    -0.222 N 
ATOM      6  N   UNL d   1      25.530 -11.856  -4.051  0.00  0.00    -0.190 N 
ATOM      7  H   UNL d   1      27.401 -12.786  -5.183  0.00  0.00     0.177 HD
ATOM      8  H   UNL d   1      24.765 -11.530  -3.474  0.00  0.00     0.184 HD
ENDROOT
BRANCH   5   9
ATOM      9  C   UNL d   1      27.565 -14.834  -4.806  0.00  0.00     0.170 C 
BRANCH   9  10
ATOM     10  C   UNL d   1      28.580 -15.201  -5.842  0.00  0.00     0.139 C 
ATOM     11  C   UNL d   1      29.950 -15.312  -5.273  0.00  0.00     0.035 C 
ATOM     12  C   UNL d   1      30.809 -14.815  -6.390  0.00  0.00     0.029 C 
ATOM     13  C   UNL d   1      29.945 -13.776  -7.071  0.00  0.00     0.168 C 
ATOM     14  O   UNL d   1      28.597 -14.182  -6.867  0.00  0.00    -0.384 OA
ENDBRANCH   9  10
ENDBRANCH   5   9
BRANCH   6  15
ATOM     15  C   UNL d   1      25.872 -10.964  -5.105  0.00  0.00     0.049 A 
ATOM     16  C   UNL d   1      26.118  -9.604  -4.899  0.00  0.00     0.030 A 
ATOM     17  C   UNL d   1      26.589  -8.792  -5.949  0.00  0.00     0.003 A 
ATOM     18  C   UNL d   1      26.879  -9.342  -7.201  0.00  0.00     0.007 A 
ATOM     19  C   UNL d   1      26.613 -10.692  -7.446  0.00  0.00    -0.053 A 
ATOM     20  C   UNL d   1      26.065 -11.450  -6.401  0.00  0.00     0.037 A 
BRANCH  19  21
ATOM     21  C   UNL d   1      26.897 -11.319  -8.803  0.00  0.00     0.010 C 
ATOM     22  C   UNL d   1      26.461 -10.391  -9.943  0.00  0.00     0.015 C 
ATOM     23  C   UNL d   1      28.368 -11.722  -8.995  0.00  0.00     0.015 C 
ENDBRANCH  19  21
ENDBRANCH   6  15
BRANCH   1  24
ATOM     24  C   UNL d   1      25.043 -16.055  -1.658  0.00  0.00     0.040 A 
ATOM     25  C   UNL d   1      23.620 -16.124  -1.645  0.00  0.00     0.054 A 
ATOM     26  C   UNL d   1      22.947 -16.991  -0.825  0.00  0.00     0.071 A 
ATOM     27  C   UNL d   1      23.717 -17.699   0.092  0.00  0.00     0.073 A 
ATOM     28  C   UNL d   1      25.129 -17.614   0.094  0.00  0.00     0.071 A 
ATOM     29  C   UNL d   1      25.805 -16.808  -0.808  0.00  0.00     0.054 A 
BRANCH  26  30
ATOM     30  O   UNL d   1      21.597 -17.209  -0.885  0.00  0.00    -0.356 OA
ATOM     31  C   UNL d   1      21.165 -18.581  -0.892  0.00  0.00     0.210 C 
ENDBRANCH  26  30
BRANCH  28  32
ATOM     32  O   UNL d   1      25.791 -18.450   0.950  0.00  0.00    -0.356 OA
ATOM     33  C   UNL d   1      27.156 -18.671   0.603  0.00  0.00     0.210 C 
ENDBRANCH  28  32
ENDBRANCH   1  24
TORSDOF 7
ENDMDL
MODEL 7
REMARK VINA RESULT:    -7.529      2.487      4.448
REMARK INTER + INTRA:         -11.253
REMARK INTER:                  -9.618
REMARK INTRA:                  -1.635
REMARK CONF_INDEPENDENT:        2.088
REMARK UNBOUND:                -1.635
REMARK  7 active torsions:
REMARK  status: ('A' for Active; 'I' for Inactive)
REMARK    1  A    between atoms: O_2  and  C_3 
REMARK    2  A    between atoms: C_5  and  O_6 
REMARK    3  A    between atoms: C_9  and  C_10 
REMARK       I    between atoms: C_10  and  N_12 
REMARK       I    between atoms: C_13  and  N_14 
REMARK       I    between atoms: C_13  and  N_21 
REMARK    4  A    between atoms: N_14  and  C_15 
REMARK    5  A    between atoms: C_15  and  C_16 
REMARK    6  A    between atoms: N_21  and  C_22 
REMARK    7  A    between atoms: C_26  and  C_27 
ROOT
ATOM      1  C   UNL d   1      27.593 -15.544   0.464  0.00  0.00     0.294 C 
ATOM      2  O   UNL d   1      28.630 -15.645  -0.189  0.00  0.00    -0.265 OA
ATOM      3  N   UNL d   1      27.401 -15.185   1.788  0.00  0.00    -0.023 NA
ATOM      4  C   UNL d   1      28.384 -14.825   2.582  0.00  0.00     0.704 C 
ATOM      5  N   UNL d   1      29.728 -14.686   2.304  0.00  0.00    -0.222 N 
ATOM      6  N   UNL d   1      28.123 -14.572   3.938  0.00  0.00    -0.190 N 
ATOM      7  H   UNL d   1      30.344 -14.660   3.099  0.00  0.00     0.177 HD
ATOM      8  H   UNL d   1      27.152 -14.626   4.219  0.00  0.00     0.184 HD
ENDROOT
BRANCH   5   9
ATOM      9  C   UNL d   1      30.355 -14.936   1.030  0.00  0.00     0.170 C 
BRANCH   9  10
ATOM     10  C   UNL d   1      31.677 -15.620   0.877  0.00  0.00     0.139 C 
ATOM     11  C   UNL d   1      31.541 -16.984   0.297  0.00  0.00     0.035 C 
ATOM     12  C   UNL d   1      32.627 -17.742   0.991  0.00  0.00     0.029 C 
ATOM     13  C   UNL d   1      32.702 -17.091   2.355  0.00  0.00     0.168 C 
ATOM     14  O   UNL d   1      32.299 -15.740   2.175  0.00  0.00    -0.384 OA
ENDBRANCH   9  10
ENDBRANCH   5   9
BRANCH   6  15
ATOM     15  C   UNL d   1      28.965 -13.960   4.909  0.00  0.00     0.049 A 
ATOM     16  C   UNL d   1      29.818 -12.894   4.610  0.00  0.00     0.030 A 
ATOM     17  C   UNL d   1      30.526 -12.233   5.632  0.00  0.00     0.003 A 
ATOM     18  C   UNL d   1      30.342 -12.587   6.971  0.00  0.00     0.007 A 
ATOM     19  C   UNL d   1      29.520 -13.669   7.299  0.00  0.00    -0.053 A 
ATOM     20  C   UNL d   1      28.897 -14.358   6.246  0.00  0.00     0.037 A 
BRANCH  19  21
ATOM     21  C   UNL d   1      29.314 -14.096   8.744  0.00  0.00     0.010 C 
ATOM     22  C   UNL d   1      30.636 -14.530   9.387  0.00  0.00     0.015 C 
ATOM     23  C   UNL d   1      28.645 -13.016   9.611  0.00  0.00     0.015 C 
ENDBRANCH  19  21
ENDBRANCH   6  15
BRANCH   1  24
ATOM     24  C   UNL d   1      26.546 -15.994  -0.430  0.00  0.00     0.040 A 
ATOM     25  C   UNL d   1      26.417 -15.297  -1.667  0.00  0.00     0.054 A 
ATOM     26  C   UNL d   1      25.578 -15.735  -2.657  0.00  0.00     0.071 A 
ATOM     27  C   UNL d   1      24.755 -16.811  -2.340  0.00  0.00     0.073 A 
ATOM     28  C   UNL d   1      24.867 -17.489  -1.104  0.00  0.00     0.071 A 
ATOM     29  C   UNL d   1      25.791 -17.098  -0.147  0.00  0.00     0.054 A 
BRANCH  26  30
ATOM     30  O   UNL d   1      25.534 -15.200  -3.916  0.00  0.00    -0.356 OA
ATOM     31  C   UNL d   1      25.211 -13.801  -4.012  0.00  0.00     0.210 C 
ENDBRANCH  26  30
BRANCH  28  32
ATOM     32  O   UNL d   1      24.101 -18.611  -0.949  0.00  0.00    -0.356 OA
ATOM     33  C   UNL d   1      22.714 -18.342  -0.758  0.00  0.00     0.210 C 
ENDBRANCH  28  32
ENDBRANCH   1  24
TORSDOF 7
ENDMDL
MODEL 8
REMARK VINA RESULT:    -7.124      2.463      4.042
REMARK INTER + INTRA:         -10.973
REMARK INTER:                  -9.212
REMARK INTRA:                  -1.761
REMARK CONF_INDEPENDENT:        2.088
REMARK UNBOUND:                -1.761
REMARK  7 active torsions:
REMARK  status: ('A' for Active; 'I' for Inactive)
REMARK    1  A    between atoms: O_2  and  C_3 
REMARK    2  A    between atoms: C_5  and  O_6 
REMARK    3  A    between atoms: C_9  and  C_10 
REMARK       I    between atoms: C_10  and  N_12 
REMARK       I    between atoms: C_13  and  N_14 
REMARK       I    between atoms: C_13  and  N_21 
REMARK    4  A    between atoms: N_14  and  C_15 
REMARK    5  A    between atoms: C_15  and  C_16 
REMARK    6  A    between atoms: N_21  and  C_22 
REMARK    7  A    between atoms: C_26  and  C_27 
ROOT
ATOM      1  C   UNL d   1      27.700 -15.290   0.493  0.00  0.00     0.294 C 
ATOM      2  O   UNL d   1      28.773 -15.161  -0.096  0.00  0.00    -0.265 OA
ATOM      3  N   UNL d   1      27.394 -15.137   1.835  0.00  0.00    -0.023 NA
ATOM      4  C   UNL d   1      28.274 -14.754   2.732  0.00  0.00     0.704 C 
ATOM      5  N   UNL d   1      29.596 -14.396   2.564  0.00  0.00    -0.222 N 
ATOM      6  N   UNL d   1      27.912 -14.719   4.088  0.00  0.00    -0.190 N 
ATOM      7  H   UNL d   1      30.162 -14.391   3.397  0.00  0.00     0.177 HD
ATOM      8  H   UNL d   1      26.946 -14.942   4.294  0.00  0.00     0.184 HD
ENDROOT
BRANCH   5   9
ATOM      9  C   UNL d   1      30.314 -14.389   1.314  0.00  0.00     0.170 C 
BRANCH   9  10
ATOM     10  C   UNL d   1      31.643 -15.048   1.118  0.00  0.00     0.139 C 
ATOM     11  C   UNL d   1      31.524 -16.361   0.427  0.00  0.00     0.035 C 
ATOM     12  C   UNL d   1      32.609 -17.165   1.067  0.00  0.00     0.029 C 
ATOM     13  C   UNL d   1      32.666 -16.629   2.481  0.00  0.00     0.168 C 
ATOM     14  O   UNL d   1      32.254 -15.270   2.409  0.00  0.00    -0.384 OA
ENDBRANCH   9  10
ENDBRANCH   5   9
BRANCH   6  15
ATOM     15  C   UNL d   1      28.608 -14.130   5.181  0.00  0.00     0.049 A 
ATOM     16  C   UNL d   1      29.657 -14.770   5.847  0.00  0.00     0.030 A 
ATOM     17  C   UNL d   1      30.405 -14.091   6.828  0.00  0.00     0.003 A 
ATOM     18  C   UNL d   1      30.154 -12.746   7.112  0.00  0.00     0.007 A 
ATOM     19  C   UNL d   1      29.091 -12.089   6.486  0.00  0.00    -0.053 A 
ATOM     20  C   UNL d   1      28.315 -12.822   5.576  0.00  0.00     0.037 A 
BRANCH  19  21
ATOM     21  C   UNL d   1      28.775 -10.631   6.787  0.00  0.00     0.010 C 
ATOM     22  C   UNL d   1      29.653 -10.099   7.926  0.00  0.00     0.015 C 
ATOM     23  C   UNL d   1      28.903  -9.713   5.561  0.00  0.00     0.015 C 
ENDBRANCH  19  21
ENDBRANCH   6  15
BRANCH   1  24
ATOM     24  C   UNL d   1      26.774 -15.758  -0.518  0.00  0.00     0.040 A 
ATOM     25  C   UNL d   1      26.079 -16.970  -0.240  0.00  0.00     0.054 A 
ATOM     26  C   UNL d   1      25.063 -17.420  -1.041  0.00  0.00     0.071 A 
ATOM     27  C   UNL d   1      24.840 -16.707  -2.215  0.00  0.00     0.073 A 
ATOM     28  C   UNL d   1      25.545 -15.515  -2.502  0.00  0.00     0.071 A 
ATOM     29  C   UNL d   1      26.502 -15.016  -1.634  0.00  0.00     0.054 A 
BRANCH  26  30
ATOM     30  O   UNL d   1      24.262 -18.486  -0.735  0.00  0.00    -0.356 OA
ATOM     31  C   UNL d   1      22.853 -18.222  -0.616  0.00  0.00     0.210 C 
ENDBRANCH  26  30
BRANCH  28  32
ATOM     32  O   UNL d   1      25.154 -14.827  -3.618  0.00  0.00    -0.356 OA
ATOM     33  C   UNL d   1      26.097 -14.877  -4.687  0.00  0.00     0.210 C 
ENDBRANCH  28  32
ENDBRANCH   1  24
TORSDOF 7
ENDMDL
MODEL 9
REMARK VINA RESULT:    -7.039      2.278      3.127
REMARK INTER + INTRA:         -10.831
REMARK INTER:                  -9.127
REMARK INTRA:                  -1.704
REMARK CONF_INDEPENDENT:        2.088
REMARK UNBOUND:                -1.704
REMARK  7 active torsions:
REMARK  status: ('A' for Active; 'I' for Inactive)
REMARK    1  A    between atoms: O_2  and  C_3 
REMARK    2  A    between atoms: C_5  and  O_6 
REMARK    3  A    between atoms: C_9  and  C_10 
REMARK       I    between atoms: C_10  and  N_12 
REMARK       I    between atoms: C_13  and  N_14 
REMARK       I    between atoms: C_13  and  N_21 
REMARK    4  A    between atoms: N_14  and  C_15 
REMARK    5  A    between atoms: C_15  and  C_16 
REMARK    6  A    between atoms: N_21  and  C_22 
REMARK    7  A    between atoms: C_26  and  C_27 
ROOT
ATOM      1  C   UNL d   1      27.726 -15.032   0.803  0.00  0.00     0.294 C 
ATOM      2  O   UNL d   1      28.728 -14.656   0.197  0.00  0.00    -0.265 OA
ATOM      3  N   UNL d   1      27.410 -14.945   2.149  0.00  0.00    -0.023 NA
ATOM      4  C   UNL d   1      28.185 -14.353   3.030  0.00  0.00     0.704 C 
ATOM      5  N   UNL d   1      29.381 -13.692   2.840  0.00  0.00    -0.222 N 
ATOM      6  N   UNL d   1      27.844 -14.394   4.391  0.00  0.00    -0.190 N 
ATOM      7  H   UNL d   1      29.941 -13.544   3.663  0.00  0.00     0.177 HD
ATOM      8  H   UNL d   1      26.963 -14.840   4.613  0.00  0.00     0.184 HD
ENDROOT
BRANCH   5   9
ATOM      9  C   UNL d   1      30.059 -13.525   1.578  0.00  0.00     0.170 C 
BRANCH   9  10
ATOM     10  C   UNL d   1      31.479 -13.068   1.455  0.00  0.00     0.139 C 
ATOM     11  C   UNL d   1      32.391 -14.171   1.046  0.00  0.00     0.035 C 
ATOM     12  C   UNL d   1      33.650 -13.843   1.781  0.00  0.00     0.029 C 
ATOM     13  C   UNL d   1      33.160 -13.190   3.055  0.00  0.00     0.168 C 
ATOM     14  O   UNL d   1      31.924 -12.565   2.734  0.00  0.00    -0.384 OA
ENDBRANCH   9  10
ENDBRANCH   5   9
BRANCH   6  15
ATOM     15  C   UNL d   1      28.394 -13.646   5.470  0.00  0.00     0.049 A 
ATOM     16  C   UNL d   1      28.059 -12.312   5.718  0.00  0.00     0.030 A 
ATOM     17  C   UNL d   1      28.522 -11.659   6.877  0.00  0.00     0.003 A 
ATOM     18  C   UNL d   1      29.272 -12.349   7.833  0.00  0.00     0.007 A 
ATOM     19  C   UNL d   1      29.649 -13.674   7.598  0.00  0.00    -0.053 A 
ATOM     20  C   UNL d   1      29.241 -14.266   6.393  0.00  0.00     0.037 A 
BRANCH  19  21
ATOM     21  C   UNL d   1      30.484 -14.449   8.607  0.00  0.00     0.010 C 
ATOM     22  C   UNL d   1      31.734 -13.661   9.012  0.00  0.00     0.015 C 
ATOM     23  C   UNL d   1      29.698 -14.859   9.864  0.00  0.00     0.015 C 
ENDBRANCH  19  21
ENDBRANCH   6  15
BRANCH   1  24
ATOM     24  C   UNL d   1      26.924 -15.716  -0.191  0.00  0.00     0.040 A 
ATOM     25  C   UNL d   1      26.287 -16.923   0.219  0.00  0.00     0.054 A 
ATOM     26  C   UNL d   1      25.377 -17.565  -0.578  0.00  0.00     0.071 A 
ATOM     27  C   UNL d   1      25.211 -17.057  -1.862  0.00  0.00     0.073 A 
ATOM     28  C   UNL d   1      25.860 -15.870  -2.277  0.00  0.00     0.071 A 
ATOM     29  C   UNL d   1      26.704 -15.173  -1.426  0.00  0.00     0.054 A 
BRANCH  26  30
ATOM     30  O   UNL d   1      24.623 -18.632  -0.172  0.00  0.00    -0.356 OA
ATOM     31  C   UNL d   1      23.203 -18.537  -0.381  0.00  0.00     0.210 C 
ENDBRANCH  26  30
BRANCH  28  32
ATOM     32  O   UNL d   1      25.526 -15.390  -3.513  0.00  0.00    -0.356 OA
ATOM     33  C   UNL d   1      25.509 -13.967  -3.595  0.00  0.00     0.210 C 
ENDBRANCH  28  32
ENDBRANCH   1  24
TORSDOF 7
ENDMDL
