MODEL 1
REMARK VINA RESULT:   -29.583      0.000      0.000
REMARK INTER + INTRA:         -33.912
REMARK INTER:                 -32.268
REMARK INTRA:                  -1.644
REMARK CONF_INDEPENDENT:        2.685
REMARK UNBOUND:                -1.644
REMARK  9 active torsions:
REMARK  status: ('A' for Active; 'I' for Inactive)
REMARK    1  A    between atoms: C_2  and  C_3 
REMARK    2  A    between atoms: C_3  and  C_4 
REMARK    3  A    between atoms: C_4  and  C_5 
REMARK    4  A    between atoms: C_5  and  C_6 
REMARK    5  A    between atoms: C_6  and  N_7 
REMARK    6  A    between atoms: C_8  and  S_9 
REMARK    7  A    between atoms: S_9  and  C_10 
REMARK    8  A    between atoms: C_11  and  C_10 
REMARK    9  A    between atoms: C_24  and  C_25 
ROOT
ATOM      1  N   UNL d   1      25.861 -16.281  -1.967  0.00  0.00    -0.307 N 
ATOM      2  C   UNL d   1      24.776 -16.663  -1.149  0.00  0.00     0.191 A 
ATOM      3  N   UNL d   1      23.765 -15.885  -1.520  0.00  0.00    -0.122 NA
ATOM      4  N   UNL d   1      24.151 -15.024  -2.527  0.00  0.00    -0.128 NA
ATOM      5  C   UNL d   1      25.408 -15.260  -2.837  0.00  0.00     0.164 A 
ENDROOT
BRANCH   2   6
ATOM      6  S   UNL d   1      24.383 -17.873   0.188  0.00  0.00    -0.088 SA
BRANCH   6   7
ATOM      7  C   UNL d   1      22.669 -18.366   0.863  0.00  0.00     0.111 C 
BRANCH   7   8
ATOM      8  C   UNL d   1      21.782 -19.727  -0.005  0.00  0.00     0.156 C 
ATOM      9  N   UNL d   1      20.329 -21.020  -0.160  0.00  0.00    -0.281 N 
ATOM     10  C   UNL d   1      19.033 -20.758  -0.063  0.00  0.00     0.013 C 
ATOM     11  H   UNL d   1      20.281 -21.359  -1.168  0.00  0.00     0.128 HD
ATOM     12  C   UNL d   1      17.830 -21.376   0.724  0.00  0.00     0.021 C 
ATOM     13  C   UNL d   1      19.157 -19.298  -0.141  0.00  0.00     0.089 C 
ATOM     14  C   UNL d   1      17.624 -20.827   1.942  0.00  0.00    -0.002 C 
ATOM     15  C   UNL d   1      18.555 -19.846   2.418  0.00  0.00    -0.019 C 
ATOM     16  C   UNL d   1      19.395 -19.212   1.575  0.00  0.00     0.049 C 
ATOM     17  N   UNL d   1      19.829 -18.886  -1.270  0.00  0.00    -0.244 NA
ATOM     18  C   UNL d   1      21.426 -18.943  -1.142  0.00  0.00     0.217 C 
ATOM     19  H   UNL d   1      19.857 -19.395  -2.199  0.00  0.00     0.131 HD
ATOM     20  O   UNL d   1      22.153 -18.374  -2.007  0.00  0.00    -0.278 OA
ENDBRANCH   7   8
ENDBRANCH   6   7
ENDBRANCH   2   6
BRANCH   1  21
ATOM     21  C   UNL d   1      27.252 -16.697  -1.993  0.00  0.00     0.133 C 
BRANCH  21  22
ATOM     22  C   UNL d   1      27.752 -16.950  -0.605  0.00  0.00     0.020 C 
BRANCH  22  23
ATOM     23  C   UNL d   1      28.507 -15.813   0.042  0.00  0.00     0.002 C 
BRANCH  23  24
ATOM     24  C   UNL d   1      27.628 -15.141   1.097  0.00  0.00    -0.000 C 
BRANCH  24  25
ATOM     25  C   UNL d   1      26.649 -14.187   0.432  0.00  0.00    -0.005 C 
ATOM     26  C   UNL d   1      27.000 -12.747   0.752  0.00  0.00     0.005 C 
ENDBRANCH  24  25
ENDBRANCH  23  24
ENDBRANCH  22  23
ENDBRANCH  21  22
ENDBRANCH   1  21
BRANCH   5  27
ATOM     27  C   UNL d   1      26.206 -14.505  -3.853  0.00  0.00     0.012 C 
ATOM     28  C   UNL d   1      26.010 -13.135  -4.108  0.00  0.00     0.017 C 
ATOM     29  C   UNL d   1      26.637 -12.497  -5.196  0.00  0.00     0.025 C 
ATOM     30  C   UNL d   1      27.598 -13.172  -5.940  0.00  0.00     0.034 C 
ATOM     31 CL   UNL d   1      28.329 -12.411  -7.301  0.00  0.00    -0.084 Cl
ATOM     32  C   UNL d   1      27.946 -14.470  -5.589  0.00  0.00     0.025 C 
ATOM     33  C   UNL d   1      27.207 -15.152  -4.603  0.00  0.00     0.017 C 
ENDBRANCH   5  27
TORSDOF 9
ENDMDL
MODEL 2
REMARK VINA RESULT:   -28.878      2.027      3.896
REMARK INTER + INTRA:         -32.782
REMARK INTER:                 -31.563
REMARK INTRA:                  -1.219
REMARK CONF_INDEPENDENT:        2.685
REMARK UNBOUND:                -1.219
REMARK  9 active torsions:
REMARK  status: ('A' for Active; 'I' for Inactive)
REMARK    1  A    between atoms: C_2  and  C_3 
REMARK    2  A    between atoms: C_3  and  C_4 
REMARK    3  A    between atoms: C_4  and  C_5 
REMARK    4  A    between atoms: C_5  and  C_6 
REMARK    5  A    between atoms: C_6  and  N_7 
REMARK    6  A    between atoms: C_8  and  S_9 
REMARK    7  A    between atoms: S_9  and  C_10 
REMARK    8  A    between atoms: C_11  and  C_10 
REMARK    9  A    between atoms: C_24  and  C_25 
ROOT
ATOM      1  N   UNL d   1      26.240 -16.277  -0.946  0.00  0.00    -0.307 N 
ATOM      2  C   UNL d   1      25.234 -17.075  -0.359  0.00  0.00     0.191 A 
ATOM      3  N   UNL d   1      25.883 -17.984   0.361  0.00  0.00    -0.122 NA
ATOM      4  N   UNL d   1      27.249 -17.810   0.259  0.00  0.00    -0.128 NA
ATOM      5  C   UNL d   1      27.493 -16.767  -0.504  0.00  0.00     0.164 A 
ENDROOT
BRANCH   2   6
ATOM      6  S   UNL d   1      23.394 -17.193  -0.296  0.00  0.00    -0.088 SA
BRANCH   6   7
ATOM      7  C   UNL d   1      22.321 -18.226   0.895  0.00  0.00     0.111 C 
BRANCH   7   8
ATOM      8  C   UNL d   1      21.588 -19.780   0.235  0.00  0.00     0.156 C 
ATOM      9  N   UNL d   1      20.237 -21.188   0.230  0.00  0.00    -0.281 N 
ATOM     10  C   UNL d   1      18.923 -21.014   0.204  0.00  0.00     0.013 C 
ATOM     11  H   UNL d   1      20.282 -21.700  -0.704  0.00  0.00     0.128 HD
ATOM     12  C   UNL d   1      17.712 -21.577   1.018  0.00  0.00     0.021 C 
ATOM     13  C   UNL d   1      18.957 -19.584  -0.125  0.00  0.00     0.089 C 
ATOM     14  C   UNL d   1      17.385 -20.842   2.105  0.00  0.00    -0.002 C 
ATOM     15  C   UNL d   1      18.215 -19.725   2.451  0.00  0.00    -0.019 C 
ATOM     16  C   UNL d   1      19.068 -19.184   1.559  0.00  0.00     0.049 C 
ATOM     17  N   UNL d   1      19.677 -19.324  -1.270  0.00  0.00    -0.244 NA
ATOM     18  C   UNL d   1      21.262 -19.235  -1.043  0.00  0.00     0.217 C 
ATOM     19  H   UNL d   1      19.803 -19.982  -2.090  0.00  0.00     0.131 HD
ATOM     20  O   UNL d   1      22.008 -18.771  -1.952  0.00  0.00    -0.278 OA
ENDBRANCH   7   8
ENDBRANCH   6   7
ENDBRANCH   2   6
BRANCH   1  21
ATOM     21  C   UNL d   1      26.180 -15.180  -1.895  0.00  0.00     0.133 C 
BRANCH  21  22
ATOM     22  C   UNL d   1      25.605 -15.642  -3.197  0.00  0.00     0.020 C 
BRANCH  22  23
ATOM     23  C   UNL d   1      26.115 -14.938  -4.432  0.00  0.00     0.002 C 
BRANCH  23  24
ATOM     24  C   UNL d   1      27.547 -14.454  -4.199  0.00  0.00    -0.000 C 
BRANCH  24  25
ATOM     25  C   UNL d   1      28.527 -15.332  -4.961  0.00  0.00    -0.005 C 
ATOM     26  C   UNL d   1      28.528 -14.982  -6.436  0.00  0.00     0.005 C 
ENDBRANCH  24  25
ENDBRANCH  23  24
ENDBRANCH  22  23
ENDBRANCH  21  22
ENDBRANCH   1  21
BRANCH   5  27
ATOM     27  C   UNL d   1      28.854 -16.278  -0.892  0.00  0.00     0.012 C 
ATOM     28  C   UNL d   1      29.421 -16.534  -2.154  0.00  0.00     0.017 C 
ATOM     29  C   UNL d   1      30.770 -16.230  -2.424  0.00  0.00     0.025 C 
ATOM     30  C   UNL d   1      31.521 -15.513  -1.500  0.00  0.00     0.034 C 
ATOM     31 CL   UNL d   1      33.183 -15.183  -1.806  0.00  0.00    -0.084 Cl
ATOM     32  C   UNL d   1      30.924 -15.084  -0.321  0.00  0.00     0.025 C 
ATOM     33  C   UNL d   1      29.628 -15.524   0.010  0.00  0.00     0.017 C 
ENDBRANCH   5  27
TORSDOF 9
ENDMDL
MODEL 3
REMARK VINA RESULT:   -28.486      1.232      2.161
REMARK INTER + INTRA:         -32.913
REMARK INTER:                 -31.171
REMARK INTRA:                  -1.742
REMARK CONF_INDEPENDENT:        2.685
REMARK UNBOUND:                -1.742
REMARK  9 active torsions:
REMARK  status: ('A' for Active; 'I' for Inactive)
REMARK    1  A    between atoms: C_2  and  C_3 
REMARK    2  A    between atoms: C_3  and  C_4 
REMARK    3  A    between atoms: C_4  and  C_5 
REMARK    4  A    between atoms: C_5  and  C_6 
REMARK    5  A    between atoms: C_6  and  N_7 
REMARK    6  A    between atoms: C_8  and  S_9 
REMARK    7  A    between atoms: S_9  and  C_10 
REMARK    8  A    between atoms: C_11  and  C_10 
REMARK    9  A    between atoms: C_24  and  C_25 
ROOT
ATOM      1  N   UNL d   1      25.886 -15.703  -1.289  0.00  0.00    -0.307 N 
ATOM      2  C   UNL d   1      24.791 -16.529  -0.956  0.00  0.00     0.191 A 
ATOM      3  N   UNL d   1      23.801 -16.136  -1.750  0.00  0.00    -0.122 NA
ATOM      4  N   UNL d   1      24.207 -15.100  -2.567  0.00  0.00    -0.128 NA
ATOM      5  C   UNL d   1      25.474 -14.835  -2.328  0.00  0.00     0.164 A 
ENDROOT
BRANCH   2   6
ATOM      6  S   UNL d   1      24.377 -17.922   0.180  0.00  0.00    -0.088 SA
BRANCH   6   7
ATOM      7  C   UNL d   1      22.668 -18.413   0.868  0.00  0.00     0.111 C 
BRANCH   7   8
ATOM      8  C   UNL d   1      21.779 -19.781   0.015  0.00  0.00     0.156 C 
ATOM      9  N   UNL d   1      20.321 -21.070  -0.128  0.00  0.00    -0.281 N 
ATOM     10  C   UNL d   1      19.025 -20.803  -0.039  0.00  0.00     0.013 C 
ATOM     11  H   UNL d   1      20.275 -21.422  -1.133  0.00  0.00     0.128 HD
ATOM     12  C   UNL d   1      17.818 -21.406   0.752  0.00  0.00     0.021 C 
ATOM     13  C   UNL d   1      19.156 -19.344  -0.135  0.00  0.00     0.089 C 
ATOM     14  C   UNL d   1      17.610 -20.841   1.962  0.00  0.00    -0.002 C 
ATOM     15  C   UNL d   1      18.544 -19.858   2.429  0.00  0.00    -0.019 C 
ATOM     16  C   UNL d   1      19.388 -19.238   1.581  0.00  0.00     0.049 C 
ATOM     17  N   UNL d   1      19.832 -18.949  -1.267  0.00  0.00    -0.244 NA
ATOM     18  C   UNL d   1      21.429 -19.011  -1.134  0.00  0.00     0.217 C 
ATOM     19  H   UNL d   1      19.861 -19.469  -2.189  0.00  0.00     0.131 HD
ATOM     20  O   UNL d   1      22.160 -18.455  -2.003  0.00  0.00    -0.278 OA
ENDBRANCH   7   8
ENDBRANCH   6   7
ENDBRANCH   2   6
BRANCH   1  21
ATOM     21  C   UNL d   1      27.220 -15.583  -0.726  0.00  0.00     0.133 C 
BRANCH  21  22
ATOM     22  C   UNL d   1      27.918 -16.907  -0.743  0.00  0.00     0.020 C 
BRANCH  22  23
ATOM     23  C   UNL d   1      29.126 -17.005  -1.644  0.00  0.00     0.002 C 
BRANCH  23  24
ATOM     24  C   UNL d   1      28.987 -16.022  -2.806  0.00  0.00    -0.000 C 
BRANCH  24  25
ATOM     25  C   UNL d   1      29.677 -16.574  -4.045  0.00  0.00    -0.005 C 
ATOM     26  C   UNL d   1      29.218 -15.839  -5.288  0.00  0.00     0.005 C 
ENDBRANCH  24  25
ENDBRANCH  23  24
ENDBRANCH  22  23
ENDBRANCH  21  22
ENDBRANCH   1  21
BRANCH   5  27
ATOM     27  C   UNL d   1      26.269 -13.748  -2.981  0.00  0.00     0.012 C 
ATOM     28  C   UNL d   1      26.737 -12.623  -2.278  0.00  0.00     0.017 C 
ATOM     29  C   UNL d   1      27.314 -11.528  -2.952  0.00  0.00     0.025 C 
ATOM     30  C   UNL d   1      27.587 -11.612  -4.312  0.00  0.00     0.034 C 
ATOM     31 CL   UNL d   1      28.246 -10.258  -5.147  0.00  0.00    -0.084 Cl
ATOM     32  C   UNL d   1      27.305 -12.790  -4.993  0.00  0.00     0.025 C 
ATOM     33  C   UNL d   1      26.588 -13.818  -4.351  0.00  0.00     0.017 C 
ENDBRANCH   5  27
TORSDOF 9
ENDMDL
MODEL 4
REMARK VINA RESULT:   -28.407      1.086      1.394
REMARK INTER + INTRA:         -32.383
REMARK INTER:                 -31.091
REMARK INTRA:                  -1.292
REMARK CONF_INDEPENDENT:        2.685
REMARK UNBOUND:                -1.292
REMARK  9 active torsions:
REMARK  status: ('A' for Active; 'I' for Inactive)
REMARK    1  A    between atoms: C_2  and  C_3 
REMARK    2  A    between atoms: C_3  and  C_4 
REMARK    3  A    between atoms: C_4  and  C_5 
REMARK    4  A    between atoms: C_5  and  C_6 
REMARK    5  A    between atoms: C_6  and  N_7 
REMARK    6  A    between atoms: C_8  and  S_9 
REMARK    7  A    between atoms: S_9  and  C_10 
REMARK    8  A    between atoms: C_11  and  C_10 
REMARK    9  A    between atoms: C_24  and  C_25 
ROOT
ATOM      1  N   UNL d   1      25.694 -15.729  -1.200  0.00  0.00    -0.307 N 
ATOM      2  C   UNL d   1      24.926 -16.897  -1.005  0.00  0.00     0.191 A 
ATOM      3  N   UNL d   1      24.619 -17.322  -2.226  0.00  0.00    -0.122 NA
ATOM      4  N   UNL d   1      25.146 -16.482  -3.187  0.00  0.00    -0.128 NA
ATOM      5  C   UNL d   1      25.825 -15.524  -2.594  0.00  0.00     0.164 A 
ENDROOT
BRANCH   2   6
ATOM      6  S   UNL d   1      24.288 -17.946   0.372  0.00  0.00    -0.088 SA
BRANCH   6   7
ATOM      7  C   UNL d   1      22.474 -18.282   0.854  0.00  0.00     0.111 C 
BRANCH   7   8
ATOM      8  C   UNL d   1      21.674 -19.774   0.132  0.00  0.00     0.156 C 
ATOM      9  N   UNL d   1      20.284 -21.143   0.095  0.00  0.00    -0.281 N 
ATOM     10  C   UNL d   1      18.975 -20.933   0.130  0.00  0.00     0.013 C 
ATOM     11  H   UNL d   1      20.280 -21.599  -0.868  0.00  0.00     0.128 HD
ATOM     12  C   UNL d   1      17.779 -21.512   0.955  0.00  0.00     0.021 C 
ATOM     13  C   UNL d   1      19.038 -19.488  -0.116  0.00  0.00     0.089 C 
ATOM     14  C   UNL d   1      17.514 -20.835   2.095  0.00  0.00    -0.002 C 
ATOM     15  C   UNL d   1      18.387 -19.763   2.474  0.00  0.00    -0.019 C 
ATOM     16  C   UNL d   1      19.222 -19.192   1.583  0.00  0.00     0.049 C 
ATOM     17  N   UNL d   1      19.723 -19.179  -1.270  0.00  0.00    -0.244 NA
ATOM     18  C   UNL d   1      21.317 -19.146  -1.098  0.00  0.00     0.217 C 
ATOM     19  H   UNL d   1      19.800 -19.790  -2.131  0.00  0.00     0.131 HD
ATOM     20  O   UNL d   1      22.043 -18.647  -2.006  0.00  0.00    -0.278 OA
ENDBRANCH   7   8
ENDBRANCH   6   7
ENDBRANCH   2   6
BRANCH   1  21
ATOM     21  C   UNL d   1      26.254 -14.767  -0.266  0.00  0.00     0.133 C 
BRANCH  21  22
ATOM     22  C   UNL d   1      27.338 -15.397   0.550  0.00  0.00     0.020 C 
BRANCH  22  23
ATOM     23  C   UNL d   1      28.329 -14.446   1.179  0.00  0.00     0.002 C 
BRANCH  23  24
ATOM     24  C   UNL d   1      27.583 -13.352   1.944  0.00  0.00    -0.000 C 
BRANCH  24  25
ATOM     25  C   UNL d   1      28.169 -11.989   1.612  0.00  0.00    -0.005 C 
ATOM     26  C   UNL d   1      27.311 -10.880   2.189  0.00  0.00     0.005 C 
ENDBRANCH  24  25
ENDBRANCH  23  24
ENDBRANCH  22  23
ENDBRANCH  21  22
ENDBRANCH   1  21
BRANCH   5  27
ATOM     27  C   UNL d   1      26.511 -14.391  -3.291  0.00  0.00     0.012 C 
ATOM     28  C   UNL d   1      25.910 -13.669  -4.339  0.00  0.00     0.017 C 
ATOM     29  C   UNL d   1      26.644 -12.739  -5.101  0.00  0.00     0.025 C 
ATOM     30  C   UNL d   1      27.936 -12.392  -4.721  0.00  0.00     0.034 C 
ATOM     31 CL   UNL d   1      28.854 -11.294  -5.679  0.00  0.00    -0.084 Cl
ATOM     32  C   UNL d   1      28.485 -12.955  -3.575  0.00  0.00     0.025 C 
ATOM     33  C   UNL d   1      27.807 -13.995  -2.911  0.00  0.00     0.017 C 
ENDBRANCH   5  27
TORSDOF 9
ENDMDL
MODEL 5
REMARK VINA RESULT:   -28.086      2.497      3.548
REMARK INTER + INTRA:         -32.266
REMARK INTER:                 -30.771
REMARK INTRA:                  -1.495
REMARK CONF_INDEPENDENT:        2.685
REMARK UNBOUND:                -1.495
REMARK  9 active torsions:
REMARK  status: ('A' for Active; 'I' for Inactive)
REMARK    1  A    between atoms: C_2  and  C_3 
REMARK    2  A    between atoms: C_3  and  C_4 
REMARK    3  A    between atoms: C_4  and  C_5 
REMARK    4  A    between atoms: C_5  and  C_6 
REMARK    5  A    between atoms: C_6  and  N_7 
REMARK    6  A    between atoms: C_8  and  S_9 
REMARK    7  A    between atoms: S_9  and  C_10 
REMARK    8  A    between atoms: C_11  and  C_10 
REMARK    9  A    between atoms: C_24  and  C_25 
ROOT
ATOM      1  N   UNL d   1      26.694 -16.557  -0.756  0.00  0.00    -0.307 N 
ATOM      2  C   UNL d   1      25.595 -17.298  -0.271  0.00  0.00     0.191 A 
ATOM      3  N   UNL d   1      26.126 -18.335   0.367  0.00  0.00    -0.122 NA
ATOM      4  N   UNL d   1      27.505 -18.297   0.308  0.00  0.00    -0.128 NA
ATOM      5  C   UNL d   1      27.877 -17.216  -0.342  0.00  0.00     0.164 A 
ENDROOT
BRANCH   2   6
ATOM      6  S   UNL d   1      23.752 -17.227  -0.253  0.00  0.00    -0.088 SA
BRANCH   6   7
ATOM      7  C   UNL d   1      22.547 -18.198   0.861  0.00  0.00     0.111 C 
BRANCH   7   8
ATOM      8  C   UNL d   1      21.780 -19.714   0.151  0.00  0.00     0.156 C 
ATOM      9  N   UNL d   1      20.415 -21.109   0.121  0.00  0.00    -0.281 N 
ATOM     10  C   UNL d   1      19.103 -20.923   0.145  0.00  0.00     0.013 C 
ATOM     11  H   UNL d   1      20.427 -21.576  -0.836  0.00  0.00     0.128 HD
ATOM     12  C   UNL d   1      17.912 -21.514   0.969  0.00  0.00     0.021 C 
ATOM     13  C   UNL d   1      19.140 -19.480  -0.117  0.00  0.00     0.089 C 
ATOM     14  C   UNL d   1      17.626 -20.830   2.099  0.00  0.00    -0.002 C 
ATOM     15  C   UNL d   1      18.476 -19.737   2.472  0.00  0.00    -0.019 C 
ATOM     16  C   UNL d   1      19.307 -19.161   1.579  0.00  0.00     0.049 C 
ATOM     17  N   UNL d   1      19.827 -19.171  -1.270  0.00  0.00    -0.244 NA
ATOM     18  C   UNL d   1      21.419 -19.106  -1.089  0.00  0.00     0.217 C 
ATOM     19  H   UNL d   1      19.922 -19.791  -2.124  0.00  0.00     0.131 HD
ATOM     20  O   UNL d   1      22.141 -18.605  -1.998  0.00  0.00    -0.278 OA
ENDBRANCH   7   8
ENDBRANCH   6   7
ENDBRANCH   2   6
BRANCH   1  21
ATOM     21  C   UNL d   1      26.775 -15.372  -1.592  0.00  0.00     0.133 C 
BRANCH  21  22
ATOM     22  C   UNL d   1      26.317 -14.164  -0.838  0.00  0.00     0.020 C 
BRANCH  22  23
ATOM     23  C   UNL d   1      27.305 -13.587   0.149  0.00  0.00     0.002 C 
BRANCH  23  24
ATOM     24  C   UNL d   1      27.023 -14.138   1.547  0.00  0.00    -0.000 C 
BRANCH  24  25
ATOM     25  C   UNL d   1      28.329 -14.464   2.255  0.00  0.00    -0.005 C 
ATOM     26  C   UNL d   1      28.129 -14.506   3.757  0.00  0.00     0.005 C 
ENDBRANCH  24  25
ENDBRANCH  23  24
ENDBRANCH  22  23
ENDBRANCH  21  22
ENDBRANCH   1  21
BRANCH   5  27
ATOM     27  C   UNL d   1      29.291 -16.838  -0.654  0.00  0.00     0.012 C 
ATOM     28  C   UNL d   1      30.093 -16.099   0.234  0.00  0.00     0.017 C 
ATOM     29  C   UNL d   1      31.348 -15.594  -0.160  0.00  0.00     0.025 C 
ATOM     30  C   UNL d   1      31.894 -15.964  -1.384  0.00  0.00     0.034 C 
ATOM     31 CL   UNL d   1      33.404 -15.310  -1.891  0.00  0.00    -0.084 Cl
ATOM     32  C   UNL d   1      31.200 -16.848  -2.202  0.00  0.00     0.025 C 
ATOM     33  C   UNL d   1      29.883 -17.223  -1.873  0.00  0.00     0.017 C 
ENDBRANCH   5  27
TORSDOF 9
ENDMDL
