MODEL 1
REMARK VINA RESULT:    -8.649      0.000      0.000
REMARK INTER + INTRA:         -12.681
REMARK INTER:                 -10.439
REMARK INTRA:                  -2.242
REMARK CONF_INDEPENDENT:        1.790
REMARK UNBOUND:                -2.242
REMARK  6 active torsions:
REMARK  status: ('A' for Active; 'I' for Inactive)
REMARK    1  A    between atoms: C_2  and  O_3 
REMARK    2  A    between atoms: C_2  and  C_11 
REMARK    3  A    between atoms: O_3  and  C_4 
REMARK       I    between atoms: C_11  and  N_13 
REMARK    4  A    between atoms: N_13  and  N_14 
REMARK       I    between atoms: N_14  and  C_15 
REMARK    5  A    between atoms: C_15  and  C_17 
REMARK    6  A    between atoms: C_21  and  C_22 
ROOT
ATOM      1  N   UNL d   1      25.121 -16.314  -0.287  0.00  0.00    -0.263 N 
ATOM      2  C   UNL d   1      26.496 -16.462  -0.350  0.00  0.00     0.273 C 
ATOM      3  O   UNL d   1      26.982 -17.552  -0.630  0.00  0.00    -0.266 OA
ATOM      4  H   UNL d   1      24.657 -15.418  -0.162  0.00  0.00     0.190 HD
ENDROOT
BRANCH   1   5
ATOM      5  N   UNL d   1      24.302 -17.434  -0.625  0.00  0.00    -0.265 N 
ATOM      6  C   UNL d   1      22.962 -17.214  -0.874  0.00  0.00     0.265 C 
ATOM      7  O   UNL d   1      22.511 -16.066  -0.811  0.00  0.00    -0.269 OA
ATOM      8  H   UNL d   1      24.757 -18.344  -0.676  0.00  0.00     0.190 HD
BRANCH   6   9
ATOM      9  C   UNL d   1      22.072 -18.471  -1.160  0.00  0.00     0.218 C 
ATOM     10  C   UNL d   1      22.742 -19.626  -0.415  0.00  0.00     0.050 C 
BRANCH   9  11
ATOM     11  O   UNL d   1      20.696 -18.233  -0.777  0.00  0.00    -0.334 OA
BRANCH  11  12
ATOM     12  C   UNL d   1      20.040 -19.195  -0.038  0.00  0.00     0.108 C 
ATOM     13  C   UNL d   1      18.977 -19.870  -0.651  0.00  0.00     0.040 C 
ATOM     14  C   UNL d   1      18.223 -20.825   0.061  0.00  0.00     0.003 C 
ATOM     15  C   UNL d   1      18.540 -21.141   1.382  0.00  0.00     0.003 C 
ATOM     16  C   UNL d   1      19.559 -20.449   2.011  0.00  0.00     0.045 C 
ATOM     17  C   UNL d   1      20.232 -19.440   1.328  0.00  0.00     0.149 C 
ATOM     18  F   UNL d   1      20.974 -18.637   2.097  0.00  0.00    -0.203 F 
ENDBRANCH  11  12
ENDBRANCH   9  11
ENDBRANCH   6   9
ENDBRANCH   1   5
BRANCH   2  19
ATOM     19  C   UNL d   1      27.297 -15.260  -0.098  0.00  0.00     0.077 A 
ATOM     20  C   UNL d   1      27.927 -14.901   1.079  0.00  0.00     0.128 A 
ATOM     21  N   UNL d   1      28.579 -13.725   0.841  0.00  0.00    -0.288 N 
ATOM     22  N   UNL d   1      28.418 -13.271  -0.408  0.00  0.00    -0.178 NA
ATOM     23  H   UNL d   1      29.151 -13.179   1.479  0.00  0.00     0.188 HD
ATOM     24  C   UNL d   1      27.660 -14.205  -1.002  0.00  0.00     0.076 A 
BRANCH  24  25
ATOM     25  C   UNL d   1      27.225 -14.004  -2.432  0.00  0.00     0.040 C 
ATOM     26  C   UNL d   1      27.972 -14.940  -3.395  0.00  0.00     0.011 C 
ATOM     27  C   UNL d   1      27.408 -14.918  -4.810  0.00  0.00     0.001 C 
ATOM     28  C   UNL d   1      25.899 -15.146  -4.821  0.00  0.00     0.000 C 
ATOM     29  C   UNL d   1      25.186 -14.116  -3.956  0.00  0.00     0.001 C 
ATOM     30  C   UNL d   1      25.697 -14.157  -2.526  0.00  0.00     0.011 C 
ENDBRANCH  24  25
ENDBRANCH   2  19
TORSDOF 6
ENDMDL
MODEL 2
REMARK VINA RESULT:    -8.161      4.565      8.666
REMARK INTER + INTRA:         -12.049
REMARK INTER:                  -9.951
REMARK INTRA:                  -2.098
REMARK CONF_INDEPENDENT:        1.790
REMARK UNBOUND:                -2.098
REMARK  6 active torsions:
REMARK  status: ('A' for Active; 'I' for Inactive)
REMARK    1  A    between atoms: C_2  and  O_3 
REMARK    2  A    between atoms: C_2  and  C_11 
REMARK    3  A    between atoms: O_3  and  C_4 
REMARK       I    between atoms: C_11  and  N_13 
REMARK    4  A    between atoms: N_13  and  N_14 
REMARK       I    between atoms: N_14  and  C_15 
REMARK    5  A    between atoms: C_15  and  C_17 
REMARK    6  A    between atoms: C_21  and  C_22 
ROOT
ATOM      1  N   UNL d   1      27.317 -14.620   0.990  0.00  0.00    -0.263 N 
ATOM      2  C   UNL d   1      27.500 -15.255  -0.227  0.00  0.00     0.273 C 
ATOM      3  O   UNL d   1      28.414 -16.060  -0.366  0.00  0.00    -0.266 OA
ATOM      4  H   UNL d   1      26.521 -14.024   1.199  0.00  0.00     0.190 HD
ENDROOT
BRANCH   1   5
ATOM      5  N   UNL d   1      28.167 -14.983   2.079  0.00  0.00    -0.265 N 
ATOM      6  C   UNL d   1      27.897 -14.453   3.324  0.00  0.00     0.265 C 
ATOM      7  O   UNL d   1      26.931 -13.696   3.469  0.00  0.00    -0.269 OA
ATOM      8  H   UNL d   1      28.929 -15.628   1.878  0.00  0.00     0.190 HD
BRANCH   6   9
ATOM      9  C   UNL d   1      28.894 -14.801   4.482  0.00  0.00     0.218 C 
ATOM     10  C   UNL d   1      30.065 -13.830   4.319  0.00  0.00     0.050 C 
BRANCH   9  11
ATOM     11  O   UNL d   1      28.241 -14.735   5.771  0.00  0.00    -0.334 OA
BRANCH  11  12
ATOM     12  C   UNL d   1      28.569 -13.705   6.627  0.00  0.00     0.108 C 
ATOM     13  C   UNL d   1      29.133 -14.044   7.863  0.00  0.00     0.040 C 
ATOM     14  C   UNL d   1      29.441 -13.049   8.812  0.00  0.00     0.003 C 
ATOM     15  C   UNL d   1      29.220 -11.701   8.528  0.00  0.00     0.003 C 
ATOM     16  C   UNL d   1      28.623 -11.358   7.329  0.00  0.00     0.045 C 
ATOM     17  C   UNL d   1      28.234 -12.357   6.441  0.00  0.00     0.149 C 
ATOM     18  F   UNL d   1      27.406 -11.958   5.470  0.00  0.00    -0.203 F 
ENDBRANCH  11  12
ENDBRANCH   9  11
ENDBRANCH   6   9
ENDBRANCH   1   5
BRANCH   2  19
ATOM     19  C   UNL d   1      26.539 -14.931  -1.287  0.00  0.00     0.077 A 
ATOM     20  C   UNL d   1      26.713 -14.050  -2.338  0.00  0.00     0.128 A 
ATOM     21  N   UNL d   1      25.573 -14.094  -3.088  0.00  0.00    -0.288 N 
ATOM     22  N   UNL d   1      24.649 -14.933  -2.604  0.00  0.00    -0.178 NA
ATOM     23  H   UNL d   1      25.357 -13.583  -3.939  0.00  0.00     0.188 HD
ATOM     24  C   UNL d   1      25.229 -15.470  -1.520  0.00  0.00     0.076 A 
BRANCH  24  25
ATOM     25  C   UNL d   1      24.451 -16.445  -0.671  0.00  0.00     0.040 C 
ATOM     26  C   UNL d   1      22.943 -16.382  -0.965  0.00  0.00     0.011 C 
ATOM     27  C   UNL d   1      22.155 -17.495  -0.287  0.00  0.00     0.001 C 
ATOM     28  C   UNL d   1      22.753 -18.869  -0.577  0.00  0.00     0.000 C 
ATOM     29  C   UNL d   1      24.214 -18.927  -0.151  0.00  0.00     0.001 C 
ATOM     30  C   UNL d   1      25.030 -17.857  -0.856  0.00  0.00     0.011 C 
ENDBRANCH  24  25
ENDBRANCH   2  19
TORSDOF 6
ENDMDL
MODEL 3
REMARK VINA RESULT:    -7.727      4.974      9.075
REMARK INTER + INTRA:         -11.848
REMARK INTER:                  -9.517
REMARK INTRA:                  -2.332
REMARK CONF_INDEPENDENT:        1.790
REMARK UNBOUND:                -2.332
REMARK  6 active torsions:
REMARK  status: ('A' for Active; 'I' for Inactive)
REMARK    1  A    between atoms: C_2  and  O_3 
REMARK    2  A    between atoms: C_2  and  C_11 
REMARK    3  A    between atoms: O_3  and  C_4 
REMARK       I    between atoms: C_11  and  N_13 
REMARK    4  A    between atoms: N_13  and  N_14 
REMARK       I    between atoms: N_14  and  C_15 
REMARK    5  A    between atoms: C_15  and  C_17 
REMARK    6  A    between atoms: C_21  and  C_22 
ROOT
ATOM      1  N   UNL d   1      28.442 -15.786  -3.747  0.00  0.00    -0.263 N 
ATOM      2  C   UNL d   1      27.546 -15.336  -4.701  0.00  0.00     0.273 C 
ATOM      3  O   UNL d   1      27.747 -15.569  -5.887  0.00  0.00    -0.266 OA
ATOM      4  H   UNL d   1      28.281 -15.715  -2.745  0.00  0.00     0.190 HD
ENDROOT
BRANCH   1   5
ATOM      5  N   UNL d   1      29.548 -16.581  -4.176  0.00  0.00    -0.265 N 
ATOM      6  C   UNL d   1      30.200 -17.357  -3.239  0.00  0.00     0.265 C 
ATOM      7  O   UNL d   1      29.808 -17.355  -2.067  0.00  0.00    -0.269 OA
ATOM      8  H   UNL d   1      29.794 -16.540  -5.164  0.00  0.00     0.190 HD
BRANCH   6   9
ATOM      9  C   UNL d   1      31.461 -18.153  -3.720  0.00  0.00     0.218 C 
ATOM     10  C   UNL d   1      32.260 -18.459  -2.452  0.00  0.00     0.050 C 
BRANCH   9  11
ATOM     11  O   UNL d   1      31.080 -19.323  -4.481  0.00  0.00    -0.334 OA
BRANCH  11  12
ATOM     12  C   UNL d   1      31.077 -19.246  -5.857  0.00  0.00     0.108 C 
ATOM     13  C   UNL d   1      31.073 -20.449  -6.574  0.00  0.00     0.040 C 
ATOM     14  C   UNL d   1      31.127 -20.449  -7.983  0.00  0.00     0.003 C 
ATOM     15  C   UNL d   1      31.153 -19.250  -8.695  0.00  0.00     0.003 C 
ATOM     16  C   UNL d   1      31.202 -18.057  -7.997  0.00  0.00     0.045 C 
ATOM     17  C   UNL d   1      31.247 -18.073  -6.605  0.00  0.00     0.149 C 
ATOM     18  F   UNL d   1      31.597 -16.914  -6.038  0.00  0.00    -0.203 F 
ENDBRANCH  11  12
ENDBRANCH   9  11
ENDBRANCH   6   9
ENDBRANCH   1   5
BRANCH   2  19
ATOM     19  C   UNL d   1      26.369 -14.614  -4.206  0.00  0.00     0.077 A 
ATOM     20  C   UNL d   1      25.928 -13.362  -4.591  0.00  0.00     0.128 A 
ATOM     21  N   UNL d   1      24.781 -13.111  -3.893  0.00  0.00    -0.288 N 
ATOM     22  N   UNL d   1      24.435 -14.102  -3.063  0.00  0.00    -0.178 NA
ATOM     23  H   UNL d   1      24.185 -12.289  -3.933  0.00  0.00     0.188 HD
ATOM     24  C   UNL d   1      25.378 -15.037  -3.257  0.00  0.00     0.076 A 
BRANCH  24  25
ATOM     25  C   UNL d   1      25.342 -16.304  -2.439  0.00  0.00     0.040 C 
ATOM     26  C   UNL d   1      26.580 -16.438  -1.539  0.00  0.00     0.011 C 
ATOM     27  C   UNL d   1      26.476 -17.589  -0.546  0.00  0.00     0.001 C 
ATOM     28  C   UNL d   1      25.175 -17.534   0.249  0.00  0.00     0.000 C 
ATOM     29  C   UNL d   1      23.968 -17.532  -0.680  0.00  0.00     0.001 C 
ATOM     30  C   UNL d   1      24.026 -16.361  -1.645  0.00  0.00     0.011 C 
ENDBRANCH  24  25
ENDBRANCH   2  19
TORSDOF 6
ENDMDL
MODEL 4
REMARK VINA RESULT:    -7.608      4.318      6.389
REMARK INTER + INTRA:         -12.011
REMARK INTER:                  -9.398
REMARK INTRA:                  -2.613
REMARK CONF_INDEPENDENT:        1.790
REMARK UNBOUND:                -2.613
REMARK  6 active torsions:
REMARK  status: ('A' for Active; 'I' for Inactive)
REMARK    1  A    between atoms: C_2  and  O_3 
REMARK    2  A    between atoms: C_2  and  C_11 
REMARK    3  A    between atoms: O_3  and  C_4 
REMARK       I    between atoms: C_11  and  N_13 
REMARK    4  A    between atoms: N_13  and  N_14 
REMARK       I    between atoms: N_14  and  C_15 
REMARK    5  A    between atoms: C_15  and  C_17 
REMARK    6  A    between atoms: C_21  and  C_22 
ROOT
ATOM      1  N   UNL d   1      28.916 -16.045  -3.925  0.00  0.00    -0.263 N 
ATOM      2  C   UNL d   1      28.577 -15.576  -5.183  0.00  0.00     0.273 C 
ATOM      3  O   UNL d   1      27.432 -15.200  -5.407  0.00  0.00    -0.266 OA
ATOM      4  H   UNL d   1      29.867 -16.274  -3.647  0.00  0.00     0.190 HD
ENDROOT
BRANCH   1   5
ATOM      5  N   UNL d   1      27.925 -16.006  -2.896  0.00  0.00    -0.265 N 
ATOM      6  C   UNL d   1      28.262 -16.479  -1.644  0.00  0.00     0.265 C 
ATOM      7  O   UNL d   1      29.403 -16.909  -1.442  0.00  0.00    -0.269 OA
ATOM      8  H   UNL d   1      27.016 -15.617  -3.141  0.00  0.00     0.190 HD
BRANCH   6   9
ATOM      9  C   UNL d   1      27.132 -16.502  -0.560  0.00  0.00     0.218 C 
ATOM     10  C   UNL d   1      27.618 -15.576   0.558  0.00  0.00     0.050 C 
BRANCH   9  11
ATOM     11  O   UNL d   1      25.855 -16.129  -1.128  0.00  0.00    -0.334 OA
BRANCH  11  12
ATOM     12  C   UNL d   1      24.758 -16.921  -0.866  0.00  0.00     0.108 C 
ATOM     13  C   UNL d   1      23.493 -16.324  -0.948  0.00  0.00     0.040 C 
ATOM     14  C   UNL d   1      22.329 -17.056  -0.639  0.00  0.00     0.003 C 
ATOM     15  C   UNL d   1      22.408 -18.400  -0.274  0.00  0.00     0.003 C 
ATOM     16  C   UNL d   1      23.654 -18.987  -0.146  0.00  0.00     0.045 C 
ATOM     17  C   UNL d   1      24.801 -18.227  -0.360  0.00  0.00     0.149 C 
ATOM     18  F   UNL d   1      25.935 -18.783   0.077  0.00  0.00    -0.203 F 
ENDBRANCH  11  12
ENDBRANCH   9  11
ENDBRANCH   6   9
ENDBRANCH   1   5
BRANCH   2  19
ATOM     19  C   UNL d   1      29.652 -15.536  -6.179  0.00  0.00     0.077 A 
ATOM     20  C   UNL d   1      30.135 -14.429  -6.850  0.00  0.00     0.128 A 
ATOM     21  N   UNL d   1      31.154 -14.861  -7.651  0.00  0.00    -0.288 N 
ATOM     22  N   UNL d   1      31.374 -16.178  -7.568  0.00  0.00    -0.178 NA
ATOM     23  H   UNL d   1      31.740 -14.315  -8.276  0.00  0.00     0.188 HD
ATOM     24  C   UNL d   1      30.484 -16.604  -6.659  0.00  0.00     0.076 A 
BRANCH  24  25
ATOM     25  C   UNL d   1      30.403 -18.075  -6.336  0.00  0.00     0.040 C 
ATOM     26  C   UNL d   1      31.086 -18.936  -7.411  0.00  0.00     0.011 C 
ATOM     27  C   UNL d   1      31.212 -20.400  -7.014  0.00  0.00     0.001 C 
ATOM     28  C   UNL d   1      31.852 -20.561  -5.638  0.00  0.00     0.000 C 
ATOM     29  C   UNL d   1      31.068 -19.796  -4.580  0.00  0.00     0.001 C 
ATOM     30  C   UNL d   1      30.976 -18.321  -4.930  0.00  0.00     0.011 C 
ENDBRANCH  24  25
ENDBRANCH   2  19
TORSDOF 6
ENDMDL
MODEL 5
REMARK VINA RESULT:    -7.453      4.990      9.391
REMARK INTER + INTRA:         -12.043
REMARK INTER:                  -9.243
REMARK INTRA:                  -2.801
REMARK CONF_INDEPENDENT:        1.790
REMARK UNBOUND:                -2.801
REMARK  6 active torsions:
REMARK  status: ('A' for Active; 'I' for Inactive)
REMARK    1  A    between atoms: C_2  and  O_3 
REMARK    2  A    between atoms: C_2  and  C_11 
REMARK    3  A    between atoms: O_3  and  C_4 
REMARK       I    between atoms: C_11  and  N_13 
REMARK    4  A    between atoms: N_13  and  N_14 
REMARK       I    between atoms: N_14  and  C_15 
REMARK    5  A    between atoms: C_15  and  C_17 
REMARK    6  A    between atoms: C_21  and  C_22 
ROOT
ATOM      1  N   UNL d   1      28.197 -14.806  -5.551  0.00  0.00    -0.263 N 
ATOM      2  C   UNL d   1      27.690 -15.202  -4.326  0.00  0.00     0.273 C 
ATOM      3  O   UNL d   1      28.343 -15.949  -3.606  0.00  0.00    -0.266 OA
ATOM      4  H   UNL d   1      27.752 -14.111  -6.146  0.00  0.00     0.190 HD
ENDROOT
BRANCH   1   5
ATOM      5  N   UNL d   1      29.513 -15.227  -5.910  0.00  0.00    -0.265 N 
ATOM      6  C   UNL d   1      30.110 -14.647  -7.010  0.00  0.00     0.265 C 
ATOM      7  O   UNL d   1      29.503 -13.778  -7.646  0.00  0.00    -0.269 OA
ATOM      8  H   UNL d   1      29.951 -15.934  -5.321  0.00  0.00     0.190 HD
BRANCH   6   9
ATOM      9  C   UNL d   1      31.519 -15.187  -7.429  0.00  0.00     0.218 C 
ATOM     10  C   UNL d   1      32.431 -13.960  -7.482  0.00  0.00     0.050 C 
BRANCH   9  11
ATOM     11  O   UNL d   1      31.970 -16.225  -6.527  0.00  0.00    -0.334 OA
BRANCH  11  12
ATOM     12  C   UNL d   1      31.504 -17.509  -6.709  0.00  0.00     0.108 C 
ATOM     13  C   UNL d   1      31.563 -18.042  -8.003  0.00  0.00     0.040 C 
ATOM     14  C   UNL d   1      31.054 -19.327  -8.278  0.00  0.00     0.003 C 
ATOM     15  C   UNL d   1      30.508 -20.109  -7.260  0.00  0.00     0.003 C 
ATOM     16  C   UNL d   1      30.405 -19.577  -5.987  0.00  0.00     0.045 C 
ATOM     17  C   UNL d   1      30.823 -18.270  -5.750  0.00  0.00     0.149 C 
ATOM     18  F   UNL d   1      30.410 -17.748  -4.591  0.00  0.00    -0.203 F 
ENDBRANCH  11  12
ENDBRANCH   9  11
ENDBRANCH   6   9
ENDBRANCH   1   5
BRANCH   2  19
ATOM     19  C   UNL d   1      26.378 -14.662  -3.953  0.00  0.00     0.077 A 
ATOM     20  C   UNL d   1      25.809 -13.474  -4.371  0.00  0.00     0.128 A 
ATOM     21  N   UNL d   1      24.572 -13.400  -3.797  0.00  0.00    -0.288 N 
ATOM     22  N   UNL d   1      24.283 -14.450  -3.018  0.00  0.00    -0.178 NA
ATOM     23  H   UNL d   1      23.874 -12.668  -3.893  0.00  0.00     0.188 HD
ATOM     24  C   UNL d   1      25.362 -15.241  -3.119  0.00  0.00     0.076 A 
BRANCH  24  25
ATOM     25  C   UNL d   1      25.419 -16.520  -2.321  0.00  0.00     0.040 C 
ATOM     26  C   UNL d   1      26.584 -16.517  -1.318  0.00  0.00     0.011 C 
ATOM     27  C   UNL d   1      26.543 -17.693  -0.352  0.00  0.00     0.001 C 
ATOM     28  C   UNL d   1      25.183 -17.820   0.329  0.00  0.00     0.000 C 
ATOM     29  C   UNL d   1      24.069 -17.949  -0.701  0.00  0.00     0.001 C 
ATOM     30  C   UNL d   1      24.059 -16.759  -1.645  0.00  0.00     0.011 C 
ENDBRANCH  24  25
ENDBRANCH   2  19
TORSDOF 6
ENDMDL
MODEL 6
REMARK VINA RESULT:    -7.188      3.572      5.800
REMARK INTER + INTRA:         -11.813
REMARK INTER:                  -8.977
REMARK INTRA:                  -2.836
REMARK CONF_INDEPENDENT:        1.790
REMARK UNBOUND:                -2.836
REMARK  6 active torsions:
REMARK  status: ('A' for Active; 'I' for Inactive)
REMARK    1  A    between atoms: C_2  and  O_3 
REMARK    2  A    between atoms: C_2  and  C_11 
REMARK    3  A    between atoms: O_3  and  C_4 
REMARK       I    between atoms: C_11  and  N_13 
REMARK    4  A    between atoms: N_13  and  N_14 
REMARK       I    between atoms: N_14  and  C_15 
REMARK    5  A    between atoms: C_15  and  C_17 
REMARK    6  A    between atoms: C_21  and  C_22 
ROOT
ATOM      1  N   UNL d   1      28.107 -15.153  -3.909  0.00  0.00    -0.263 N 
ATOM      2  C   UNL d   1      27.401 -15.100  -5.099  0.00  0.00     0.273 C 
ATOM      3  O   UNL d   1      26.382 -15.769  -5.236  0.00  0.00    -0.266 OA
ATOM      4  H   UNL d   1      28.897 -14.548  -3.697  0.00  0.00     0.190 HD
ENDROOT
BRANCH   1   5
ATOM      5  N   UNL d   1      27.577 -15.938  -2.840  0.00  0.00    -0.265 N 
ATOM      6  C   UNL d   1      28.149 -15.813  -1.590  0.00  0.00     0.265 C 
ATOM      7  O   UNL d   1      29.087 -15.025  -1.425  0.00  0.00    -0.269 OA
ATOM      8  H   UNL d   1      26.791 -16.548  -3.057  0.00  0.00     0.190 HD
BRANCH   6   9
ATOM      9  C   UNL d   1      27.605 -16.747  -0.457  0.00  0.00     0.218 C 
ATOM     10  C   UNL d   1      27.019 -15.810   0.601  0.00  0.00     0.050 C 
BRANCH   9  11
ATOM     11  O   UNL d   1      26.664 -17.713  -0.983  0.00  0.00    -0.334 OA
BRANCH  11  12
ATOM     12  C   UNL d   1      25.320 -17.530  -0.735  0.00  0.00     0.108 C 
ATOM     13  C   UNL d   1      24.634 -18.568  -0.092  0.00  0.00     0.040 C 
ATOM     14  C   UNL d   1      23.247 -18.478   0.144  0.00  0.00     0.003 C 
ATOM     15  C   UNL d   1      22.534 -17.338  -0.228  0.00  0.00     0.003 C 
ATOM     16  C   UNL d   1      23.193 -16.326  -0.903  0.00  0.00     0.045 C 
ATOM     17  C   UNL d   1      24.542 -16.470  -1.217  0.00  0.00     0.149 C 
ATOM     18  F   UNL d   1      25.007 -15.599  -2.117  0.00  0.00    -0.203 F 
ENDBRANCH  11  12
ENDBRANCH   9  11
ENDBRANCH   6   9
ENDBRANCH   1   5
BRANCH   2  19
ATOM     19  C   UNL d   1      27.923 -14.200  -6.132  0.00  0.00     0.077 A 
ATOM     20  C   UNL d   1      28.907 -14.471  -7.064  0.00  0.00     0.128 A 
ATOM     21  N   UNL d   1      29.041 -13.355  -7.839  0.00  0.00    -0.288 N 
ATOM     22  N   UNL d   1      28.224 -12.357  -7.481  0.00  0.00    -0.178 NA
ATOM     23  H   UNL d   1      29.666 -13.204  -8.627  0.00  0.00     0.188 HD
ATOM     24  C   UNL d   1      27.518 -12.862  -6.458  0.00  0.00     0.076 A 
BRANCH  24  25
ATOM     25  C   UNL d   1      26.512 -11.987  -5.752  0.00  0.00     0.040 C 
ATOM     26  C   UNL d   1      26.760 -11.939  -4.236  0.00  0.00     0.011 C 
ATOM     27  C   UNL d   1      25.903 -10.902  -3.522  0.00  0.00     0.001 C 
ATOM     28  C   UNL d   1      26.012  -9.529  -4.179  0.00  0.00     0.000 C 
ATOM     29  C   UNL d   1      25.633  -9.598  -5.652  0.00  0.00     0.001 C 
ATOM     30  C   UNL d   1      26.512 -10.590  -6.395  0.00  0.00     0.011 C 
ENDBRANCH  24  25
ENDBRANCH   2  19
TORSDOF 6
ENDMDL
MODEL 7
REMARK VINA RESULT:    -7.181      3.924      7.899
REMARK INTER + INTRA:         -11.825
REMARK INTER:                  -8.971
REMARK INTRA:                  -2.854
REMARK CONF_INDEPENDENT:        1.790
REMARK UNBOUND:                -2.854
REMARK  6 active torsions:
REMARK  status: ('A' for Active; 'I' for Inactive)
REMARK    1  A    between atoms: C_2  and  O_3 
REMARK    2  A    between atoms: C_2  and  C_11 
REMARK    3  A    between atoms: O_3  and  C_4 
REMARK       I    between atoms: C_11  and  N_13 
REMARK    4  A    between atoms: N_13  and  N_14 
REMARK       I    between atoms: N_14  and  C_15 
REMARK    5  A    between atoms: C_15  and  C_17 
REMARK    6  A    between atoms: C_21  and  C_22 
ROOT
ATOM      1  N   UNL d   1      27.883 -14.267  -0.973  0.00  0.00    -0.263 N 
ATOM      2  C   UNL d   1      26.683 -13.577  -0.984  0.00  0.00     0.273 C 
ATOM      3  O   UNL d   1      26.341 -12.929  -0.000  0.00  0.00    -0.266 OA
ATOM      4  H   UNL d   1      28.270 -14.736  -1.789  0.00  0.00     0.190 HD
ENDROOT
BRANCH   1   5
ATOM      5  N   UNL d   1      28.728 -14.142   0.172  0.00  0.00    -0.265 N 
ATOM      6  C   UNL d   1      29.881 -14.899   0.220  0.00  0.00     0.265 C 
ATOM      7  O   UNL d   1      30.158 -15.649  -0.722  0.00  0.00    -0.269 OA
ATOM      8  H   UNL d   1      28.437 -13.487   0.895  0.00  0.00     0.190 HD
BRANCH   6   9
ATOM      9  C   UNL d   1      30.745 -14.805   1.524  0.00  0.00     0.218 C 
ATOM     10  C   UNL d   1      32.194 -14.689   1.048  0.00  0.00     0.050 C 
BRANCH   9  11
ATOM     11  O   UNL d   1      30.304 -13.713   2.364  0.00  0.00    -0.334 OA
BRANCH  11  12
ATOM     12  C   UNL d   1      29.560 -14.001   3.489  0.00  0.00     0.108 C 
ATOM     13  C   UNL d   1      30.248 -14.453   4.622  0.00  0.00     0.040 C 
ATOM     14  C   UNL d   1      29.549 -14.822   5.790  0.00  0.00     0.003 C 
ATOM     15  C   UNL d   1      28.160 -14.714   5.852  0.00  0.00     0.003 C 
ATOM     16  C   UNL d   1      27.467 -14.311   4.725  0.00  0.00     0.045 C 
ATOM     17  C   UNL d   1      28.161 -14.044   3.548  0.00  0.00     0.149 C 
ATOM     18  F   UNL d   1      27.401 -13.962   2.451  0.00  0.00    -0.203 F 
ENDBRANCH  11  12
ENDBRANCH   9  11
ENDBRANCH   6   9
ENDBRANCH   1   5
BRANCH   2  19
ATOM     19  C   UNL d   1      25.897 -13.648  -2.220  0.00  0.00     0.077 A 
ATOM     20  C   UNL d   1      25.703 -12.647  -3.152  0.00  0.00     0.128 A 
ATOM     21  N   UNL d   1      24.933 -13.173  -4.149  0.00  0.00    -0.288 N 
ATOM     22  N   UNL d   1      24.591 -14.450  -3.940  0.00  0.00    -0.178 NA
ATOM     23  H   UNL d   1      24.604 -12.722  -4.999  0.00  0.00     0.188 HD
ATOM     24  C   UNL d   1      25.189 -14.764  -2.781  0.00  0.00     0.076 A 
BRANCH  24  25
ATOM     25  C   UNL d   1      24.982 -16.137  -2.191  0.00  0.00     0.040 C 
ATOM     26  C   UNL d   1      26.218 -16.618  -1.414  0.00  0.00     0.011 C 
ATOM     27  C   UNL d   1      25.970 -17.899  -0.628  0.00  0.00     0.001 C 
ATOM     28  C   UNL d   1      24.727 -17.791   0.252  0.00  0.00     0.000 C 
ATOM     29  C   UNL d   1      23.501 -17.439  -0.579  0.00  0.00     0.001 C 
ATOM     30  C   UNL d   1      23.707 -16.136  -1.331  0.00  0.00     0.011 C 
ENDBRANCH  24  25
ENDBRANCH   2  19
TORSDOF 6
ENDMDL
MODEL 8
REMARK VINA RESULT:    -7.121      5.363      9.962
REMARK INTER + INTRA:         -11.720
REMARK INTER:                  -8.911
REMARK INTRA:                  -2.809
REMARK CONF_INDEPENDENT:        1.790
REMARK UNBOUND:                -2.809
REMARK  6 active torsions:
REMARK  status: ('A' for Active; 'I' for Inactive)
REMARK    1  A    between atoms: C_2  and  O_3 
REMARK    2  A    between atoms: C_2  and  C_11 
REMARK    3  A    between atoms: O_3  and  C_4 
REMARK       I    between atoms: C_11  and  N_13 
REMARK    4  A    between atoms: N_13  and  N_14 
REMARK       I    between atoms: N_14  and  C_15 
REMARK    5  A    between atoms: C_15  and  C_17 
REMARK    6  A    between atoms: C_21  and  C_22 
ROOT
ATOM      1  N   UNL d   1      28.341 -15.889  -4.394  0.00  0.00    -0.263 N 
ATOM      2  C   UNL d   1      27.404 -15.176  -5.122  0.00  0.00     0.273 C 
ATOM      3  O   UNL d   1      27.434 -15.200  -6.347  0.00  0.00    -0.266 OA
ATOM      4  H   UNL d   1      28.308 -15.993  -3.383  0.00  0.00     0.190 HD
ENDROOT
BRANCH   1   5
ATOM      5  N   UNL d   1      29.280 -16.699  -5.104  0.00  0.00    -0.265 N 
ATOM      6  C   UNL d   1      30.118 -17.520  -4.377  0.00  0.00     0.265 C 
ATOM      7  O   UNL d   1      30.030 -17.544  -3.145  0.00  0.00    -0.269 OA
ATOM      8  H   UNL d   1      29.273 -16.634  -6.120  0.00  0.00     0.190 HD
BRANCH   6   9
ATOM      9  C   UNL d   1      31.193 -18.332  -5.176  0.00  0.00     0.218 C 
ATOM     10  C   UNL d   1      31.120 -19.759  -4.628  0.00  0.00     0.050 C 
BRANCH   9  11
ATOM     11  O   UNL d   1      30.971 -18.230  -6.602  0.00  0.00    -0.334 OA
BRANCH  11  12
ATOM     12  C   UNL d   1      31.675 -17.283  -7.315  0.00  0.00     0.108 C 
ATOM     13  C   UNL d   1      31.336 -15.938  -7.116  0.00  0.00     0.040 C 
ATOM     14  C   UNL d   1      31.973 -14.918  -7.851  0.00  0.00     0.003 C 
ATOM     15  C   UNL d   1      32.976 -15.222  -8.771  0.00  0.00     0.003 C 
ATOM     16  C   UNL d   1      33.288 -16.549  -9.008  0.00  0.00     0.045 C 
ATOM     17  C   UNL d   1      32.584 -17.552  -8.347  0.00  0.00     0.149 C 
ATOM     18  F   UNL d   1      32.738 -18.778  -8.856  0.00  0.00    -0.203 F 
ENDBRANCH  11  12
ENDBRANCH   9  11
ENDBRANCH   6   9
ENDBRANCH   1   5
BRANCH   2  19
ATOM     19  C   UNL d   1      26.395 -14.443  -4.351  0.00  0.00     0.077 A 
ATOM     20  C   UNL d   1      25.917 -13.168  -4.589  0.00  0.00     0.128 A 
ATOM     21  N   UNL d   1      24.969 -12.913  -3.641  0.00  0.00    -0.288 N 
ATOM     22  N   UNL d   1      24.790 -13.924  -2.782  0.00  0.00    -0.178 NA
ATOM     23  H   UNL d   1      24.405 -12.076  -3.520  0.00  0.00     0.188 HD
ATOM     24  C   UNL d   1      25.633 -14.874  -3.212  0.00  0.00     0.076 A 
BRANCH  24  25
ATOM     25  C   UNL d   1      25.745 -16.167  -2.443  0.00  0.00     0.040 C 
ATOM     26  C   UNL d   1      26.927 -16.148  -1.461  0.00  0.00     0.011 C 
ATOM     27  C   UNL d   1      26.941 -17.345  -0.519  0.00  0.00     0.001 C 
ATOM     28  C   UNL d   1      25.598 -17.530   0.182  0.00  0.00     0.000 C 
ATOM     29  C   UNL d   1      24.471 -17.674  -0.832  0.00  0.00     0.001 C 
ATOM     30  C   UNL d   1      24.405 -16.465  -1.749  0.00  0.00     0.011 C 
ENDBRANCH  24  25
ENDBRANCH   2  19
TORSDOF 6
ENDMDL
MODEL 9
REMARK VINA RESULT:    -6.934      3.661      5.685
REMARK INTER + INTRA:         -11.985
REMARK INTER:                  -8.723
REMARK INTRA:                  -3.262
REMARK CONF_INDEPENDENT:        1.790
REMARK UNBOUND:                -3.262
REMARK  6 active torsions:
REMARK  status: ('A' for Active; 'I' for Inactive)
REMARK    1  A    between atoms: C_2  and  O_3 
REMARK    2  A    between atoms: C_2  and  C_11 
REMARK    3  A    between atoms: O_3  and  C_4 
REMARK       I    between atoms: C_11  and  N_13 
REMARK    4  A    between atoms: N_13  and  N_14 
REMARK       I    between atoms: N_14  and  C_15 
REMARK    5  A    between atoms: C_15  and  C_17 
REMARK    6  A    between atoms: C_21  and  C_22 
ROOT
ATOM      1  N   UNL d   1      28.801 -15.284  -3.370  0.00  0.00    -0.263 N 
ATOM      2  C   UNL d   1      29.153 -15.863  -4.577  0.00  0.00     0.273 C 
ATOM      3  O   UNL d   1      29.400 -17.062  -4.630  0.00  0.00    -0.266 OA
ATOM      4  H   UNL d   1      28.486 -14.321  -3.278  0.00  0.00     0.190 HD
ENDROOT
BRANCH   1   5
ATOM      5  N   UNL d   1      28.665 -16.128  -2.226  0.00  0.00    -0.265 N 
ATOM      6  C   UNL d   1      28.180 -15.575  -1.057  0.00  0.00     0.265 C 
ATOM      7  O   UNL d   1      27.868 -14.380  -1.032  0.00  0.00    -0.269 OA
ATOM      8  H   UNL d   1      28.926 -17.106  -2.336  0.00  0.00     0.190 HD
BRANCH   6   9
ATOM      9  C   UNL d   1      28.121 -16.503   0.203  0.00  0.00     0.218 C 
ATOM     10  C   UNL d   1      27.557 -15.632   1.327  0.00  0.00     0.050 C 
BRANCH   9  11
ATOM     11  O   UNL d   1      27.354 -17.700  -0.065  0.00  0.00    -0.334 OA
BRANCH  11  12
ATOM     12  C   UNL d   1      25.998 -17.581  -0.288  0.00  0.00     0.108 C 
ATOM     13  C   UNL d   1      25.135 -18.229   0.603  0.00  0.00     0.040 C 
ATOM     14  C   UNL d   1      23.740 -18.199   0.407  0.00  0.00     0.003 C 
ATOM     15  C   UNL d   1      23.186 -17.496  -0.663  0.00  0.00     0.003 C 
ATOM     16  C   UNL d   1      24.031 -16.889  -1.575  0.00  0.00     0.045 C 
ATOM     17  C   UNL d   1      25.410 -17.008  -1.424  0.00  0.00     0.149 C 
ATOM     18  F   UNL d   1      26.127 -16.659  -2.496  0.00  0.00    -0.203 F 
ENDBRANCH  11  12
ENDBRANCH   9  11
ENDBRANCH   6   9
ENDBRANCH   1   5
BRANCH   2  19
ATOM     19  C   UNL d   1      29.178 -14.978  -5.746  0.00  0.00     0.077 A 
ATOM     20  C   UNL d   1      30.123 -14.943  -6.754  0.00  0.00     0.128 A 
ATOM     21  N   UNL d   1      29.722 -13.989  -7.644  0.00  0.00    -0.288 N 
ATOM     22  N   UNL d   1      28.584 -13.379  -7.294  0.00  0.00    -0.178 NA
ATOM     23  H   UNL d   1      30.173 -13.703  -8.509  0.00  0.00     0.188 HD
ATOM     24  C   UNL d   1      28.224 -13.984  -6.152  0.00  0.00     0.076 A 
BRANCH  24  25
ATOM     25  C   UNL d   1      26.989 -13.516  -5.424  0.00  0.00     0.040 C 
ATOM     26  C   UNL d   1      26.170 -14.693  -4.870  0.00  0.00     0.011 C 
ATOM     27  C   UNL d   1      25.039 -14.254  -3.949  0.00  0.00     0.001 C 
ATOM     28  C   UNL d   1      25.534 -13.315  -2.852  0.00  0.00     0.000 C 
ATOM     29  C   UNL d   1      26.226 -12.097  -3.450  0.00  0.00     0.001 C 
ATOM     30  C   UNL d   1      27.392 -12.511  -4.331  0.00  0.00     0.011 C 
ENDBRANCH  24  25
ENDBRANCH   2  19
TORSDOF 6
ENDMDL
