MODEL 1
REMARK VINA RESULT:    -6.566      0.000      0.000
REMARK INTER + INTRA:         -10.905
REMARK INTER:                  -9.549
REMARK INTRA:                  -1.357
REMARK CONF_INDEPENDENT:        2.983
REMARK UNBOUND:                -1.357
REMARK  10 active torsions:
REMARK  status: ('A' for Active; 'I' for Inactive)
REMARK    1  A    between atoms: O_2  and  C_3 
REMARK    2  A    between atoms: C_5  and  C_6 
REMARK       I    between atoms: C_6  and  N_8 
REMARK    3  A    between atoms: N_8  and  N_9 
REMARK    4  A    between atoms: N_9  and  C_10 
REMARK    5  A    between atoms: C_10  and  N_12 
REMARK    6  A    between atoms: N_12  and  C_13 
REMARK    7  A    between atoms: C_13  and  C_14 
REMARK    8  A    between atoms: C_14  and  C_15 
REMARK    9  A    between atoms: C_19  and  O_20 
REMARK   10  A    between atoms: C_22  and  O_23 
ROOT
ATOM      1  C   UNL d   1      24.623 -14.867  -2.728  0.00  0.00     0.270 C 
ATOM      2  O   UNL d   1      23.457 -14.451  -2.771  0.00  0.00    -0.266 OA
ATOM      3  N   UNL d   1      24.986 -15.937  -1.919  0.00  0.00    -0.264 N 
ATOM      4  H   UNL d   1      25.939 -16.280  -1.824  0.00  0.00     0.190 HD
ENDROOT
BRANCH   1   5
ATOM      5  C   UNL d   1      25.708 -14.166  -3.535  0.00  0.00     0.039 A 
ATOM      6  C   UNL d   1      26.613 -14.923  -4.320  0.00  0.00     0.057 A 
ATOM      7  C   UNL d   1      27.506 -14.332  -5.257  0.00  0.00     0.105 A 
ATOM      8  C   UNL d   1      27.480 -12.931  -5.402  0.00  0.00     0.135 A 
ATOM      9  C   UNL d   1      26.643 -12.157  -4.552  0.00  0.00     0.105 A 
ATOM     10  C   UNL d   1      25.793 -12.773  -3.614  0.00  0.00     0.057 A 
BRANCH   7  11
ATOM     11  O   UNL d   1      28.105 -15.248  -6.101  0.00  0.00    -0.353 OA
ATOM     12  C   UNL d   1      29.525 -15.281  -6.256  0.00  0.00     0.210 C 
ENDBRANCH   7  11
BRANCH   8  13
ATOM     13  O   UNL d   1      28.083 -12.165  -6.348  0.00  0.00    -0.351 OA
ATOM     14  C   UNL d   1      28.121 -12.519  -7.689  0.00  0.00     0.210 C 
ENDBRANCH   8  13
BRANCH   9  15
ATOM     15  O   UNL d   1      26.506 -10.776  -4.569  0.00  0.00    -0.353 OA
ATOM     16  C   UNL d   1      27.336  -9.996  -3.705  0.00  0.00     0.210 C 
ENDBRANCH   9  15
ENDBRANCH   1   5
BRANCH   3  17
ATOM     17  N   UNL d   1      24.037 -16.621  -1.087  0.00  0.00    -0.274 N 
ATOM     18  H   UNL d   1      23.126 -16.179  -0.996  0.00  0.00     0.189 HD
BRANCH  17  19
ATOM     19  C   UNL d   1      24.394 -17.822  -0.474  0.00  0.00     0.186 C 
ATOM     20  S   UNL d   1      25.994 -18.170  -0.065  0.00  0.00    -0.040 SA
BRANCH  19  21
ATOM     21  N   UNL d   1      23.334 -18.696  -0.240  0.00  0.00    -0.366 N 
ATOM     22  H   UNL d   1      23.323 -19.251   0.605  0.00  0.00     0.161 HD
BRANCH  21  23
ATOM     23  C   UNL d   1      22.255 -18.920  -1.214  0.00  0.00     0.122 C 
BRANCH  23  24
ATOM     24  C   UNL d   1      20.830 -18.672  -0.705  0.00  0.00     0.023 C 
BRANCH  24  25
ATOM     25  C   UNL d   1      20.348 -19.797   0.247  0.00  0.00    -0.021 C 
ATOM     26  C   UNL d   1      20.279 -19.326   1.703  0.00  0.00     0.009 C 
ATOM     27  C   UNL d   1      18.968 -20.305  -0.178  0.00  0.00     0.009 C 
ENDBRANCH  24  25
ENDBRANCH  23  24
ENDBRANCH  21  23
ENDBRANCH  19  21
ENDBRANCH  17  19
ENDBRANCH   3  17
TORSDOF 10
ENDMDL
MODEL 2
REMARK VINA RESULT:    -6.482      2.075      3.144
REMARK INTER + INTRA:         -10.763
REMARK INTER:                  -9.465
REMARK INTRA:                  -1.298
REMARK CONF_INDEPENDENT:        2.983
REMARK UNBOUND:                -1.298
REMARK  10 active torsions:
REMARK  status: ('A' for Active; 'I' for Inactive)
REMARK    1  A    between atoms: O_2  and  C_3 
REMARK    2  A    between atoms: C_5  and  C_6 
REMARK       I    between atoms: C_6  and  N_8 
REMARK    3  A    between atoms: N_8  and  N_9 
REMARK    4  A    between atoms: N_9  and  C_10 
REMARK    5  A    between atoms: C_10  and  N_12 
REMARK    6  A    between atoms: N_12  and  C_13 
REMARK    7  A    between atoms: C_13  and  C_14 
REMARK    8  A    between atoms: C_14  and  C_15 
REMARK    9  A    between atoms: C_19  and  O_20 
REMARK   10  A    between atoms: C_22  and  O_23 
ROOT
ATOM      1  C   UNL d   1      25.147 -15.424  -2.770  0.00  0.00     0.270 C 
ATOM      2  O   UNL d   1      24.374 -14.524  -3.128  0.00  0.00    -0.266 OA
ATOM      3  N   UNL d   1      24.749 -16.416  -1.882  0.00  0.00    -0.264 N 
ATOM      4  H   UNL d   1      25.366 -17.146  -1.532  0.00  0.00     0.190 HD
ENDROOT
BRANCH   1   5
ATOM      5  C   UNL d   1      26.588 -15.426  -3.264  0.00  0.00     0.039 A 
ATOM      6  C   UNL d   1      27.637 -15.820  -2.397  0.00  0.00     0.057 A 
ATOM      7  C   UNL d   1      28.967 -16.050  -2.848  0.00  0.00     0.105 A 
ATOM      8  C   UNL d   1      29.240 -15.874  -4.219  0.00  0.00     0.135 A 
ATOM      9  C   UNL d   1      28.216 -15.387  -5.078  0.00  0.00     0.105 A 
ATOM     10  C   UNL d   1      26.918 -15.141  -4.592  0.00  0.00     0.057 A 
BRANCH   7  11
ATOM     11  O   UNL d   1      29.766 -16.678  -1.912  0.00  0.00    -0.353 OA
ATOM     12  C   UNL d   1      30.542 -17.826  -2.263  0.00  0.00     0.210 C 
ENDBRANCH   7  11
BRANCH   8  13
ATOM     13  O   UNL d   1      30.359 -16.212  -4.911  0.00  0.00    -0.351 OA
ATOM     14  C   UNL d   1      30.367 -17.193  -5.892  0.00  0.00     0.210 C 
ENDBRANCH   8  13
BRANCH   9  15
ATOM     15  O   UNL d   1      28.327 -15.161  -6.443  0.00  0.00    -0.353 OA
ATOM     16  C   UNL d   1      28.230 -13.818  -6.922  0.00  0.00     0.210 C 
ENDBRANCH   9  15
ENDBRANCH   1   5
BRANCH   3  17
ATOM     17  N   UNL d   1      23.426 -16.460  -1.328  0.00  0.00    -0.274 N 
ATOM     18  H   UNL d   1      22.863 -15.622  -1.456  0.00  0.00     0.189 HD
BRANCH  17  19
ATOM     19  C   UNL d   1      22.988 -17.610  -0.672  0.00  0.00     0.186 C 
ATOM     20  S   UNL d   1      24.018 -18.525   0.303  0.00  0.00    -0.040 SA
BRANCH  19  21
ATOM     21  N   UNL d   1      21.652 -17.936  -0.895  0.00  0.00    -0.366 N 
ATOM     22  H   UNL d   1      21.027 -17.239  -1.279  0.00  0.00     0.161 HD
BRANCH  21  23
ATOM     23  C   UNL d   1      21.071 -19.233  -0.518  0.00  0.00     0.122 C 
BRANCH  23  24
ATOM     24  C   UNL d   1      19.543 -19.327  -0.576  0.00  0.00     0.023 C 
BRANCH  24  25
ATOM     25  C   UNL d   1      18.939 -19.823   0.763  0.00  0.00    -0.021 C 
ATOM     26  C   UNL d   1      18.280 -21.198   0.621  0.00  0.00     0.009 C 
ATOM     27  C   UNL d   1      20.019 -19.897   1.845  0.00  0.00     0.009 C 
ENDBRANCH  24  25
ENDBRANCH  23  24
ENDBRANCH  21  23
ENDBRANCH  19  21
ENDBRANCH  17  19
ENDBRANCH   3  17
TORSDOF 10
ENDMDL
MODEL 3
REMARK VINA RESULT:    -6.331      4.549      5.002
REMARK INTER + INTRA:         -10.268
REMARK INTER:                  -9.314
REMARK INTRA:                  -0.953
REMARK CONF_INDEPENDENT:        2.983
REMARK UNBOUND:                -0.953
REMARK  10 active torsions:
REMARK  status: ('A' for Active; 'I' for Inactive)
REMARK    1  A    between atoms: O_2  and  C_3 
REMARK    2  A    between atoms: C_5  and  C_6 
REMARK       I    between atoms: C_6  and  N_8 
REMARK    3  A    between atoms: N_8  and  N_9 
REMARK    4  A    between atoms: N_9  and  C_10 
REMARK    5  A    between atoms: C_10  and  N_12 
REMARK    6  A    between atoms: N_12  and  C_13 
REMARK    7  A    between atoms: C_13  and  C_14 
REMARK    8  A    between atoms: C_14  and  C_15 
REMARK    9  A    between atoms: C_19  and  O_20 
REMARK   10  A    between atoms: C_22  and  O_23 
ROOT
ATOM      1  C   UNL d   1      25.828 -17.445  -0.759  0.00  0.00     0.270 C 
ATOM      2  O   UNL d   1      25.416 -17.103  -1.876  0.00  0.00    -0.266 OA
ATOM      3  N   UNL d   1      25.146 -18.376   0.016  0.00  0.00    -0.264 N 
ATOM      4  H   UNL d   1      25.429 -18.651   0.953  0.00  0.00     0.190 HD
ENDROOT
BRANCH   1   5
ATOM      5  C   UNL d   1      27.082 -16.801  -0.183  0.00  0.00     0.039 A 
ATOM      6  C   UNL d   1      28.362 -17.306  -0.522  0.00  0.00     0.057 A 
ATOM      7  C   UNL d   1      29.571 -16.630  -0.197  0.00  0.00     0.105 A 
ATOM      8  C   UNL d   1      29.479 -15.405   0.492  0.00  0.00     0.135 A 
ATOM      9  C   UNL d   1      28.205 -14.938   0.919  0.00  0.00     0.105 A 
ATOM     10  C   UNL d   1      27.030 -15.649   0.606  0.00  0.00     0.057 A 
BRANCH   7  11
ATOM     11  O   UNL d   1      30.681 -17.144  -0.841  0.00  0.00    -0.353 OA
ATOM     12  C   UNL d   1      30.601 -17.585  -2.198  0.00  0.00     0.210 C 
ENDBRANCH   7  11
BRANCH   8  13
ATOM     13  O   UNL d   1      30.456 -14.495   0.738  0.00  0.00    -0.351 OA
ATOM     14  C   UNL d   1      31.002 -14.300   1.999  0.00  0.00     0.210 C 
ENDBRANCH   8  13
BRANCH   9  15
ATOM     15  O   UNL d   1      27.948 -13.759   1.604  0.00  0.00    -0.353 OA
ATOM     16  C   UNL d   1      27.399 -13.840   2.921  0.00  0.00     0.210 C 
ENDBRANCH   9  15
ENDBRANCH   1   5
BRANCH   3  17
ATOM     17  N   UNL d   1      23.928 -18.994  -0.429  0.00  0.00    -0.274 N 
ATOM     18  H   UNL d   1      24.021 -19.931  -0.813  0.00  0.00     0.189 HD
BRANCH  17  19
ATOM     19  C   UNL d   1      22.720 -18.307  -0.308  0.00  0.00     0.186 C 
ATOM     20  S   UNL d   1      22.622 -16.637  -0.521  0.00  0.00    -0.040 SA
BRANCH  19  21
ATOM     21  N   UNL d   1      21.624 -19.108   0.006  0.00  0.00    -0.366 N 
ATOM     22  H   UNL d   1      21.612 -19.615   0.881  0.00  0.00     0.161 HD
BRANCH  21  23
ATOM     23  C   UNL d   1      20.502 -19.325  -0.920  0.00  0.00     0.122 C 
BRANCH  23  24
ATOM     24  C   UNL d   1      19.157 -19.673  -0.274  0.00  0.00     0.023 C 
BRANCH  24  25
ATOM     25  C   UNL d   1      19.307 -20.728   0.853  0.00  0.00    -0.021 C 
ATOM     26  C   UNL d   1      19.617 -20.082   2.206  0.00  0.00     0.009 C 
ATOM     27  C   UNL d   1      18.031 -21.563   0.980  0.00  0.00     0.009 C 
ENDBRANCH  24  25
ENDBRANCH  23  24
ENDBRANCH  21  23
ENDBRANCH  19  21
ENDBRANCH  17  19
ENDBRANCH   3  17
TORSDOF 10
ENDMDL
MODEL 4
REMARK VINA RESULT:    -6.312      0.795      2.581
REMARK INTER + INTRA:         -10.692
REMARK INTER:                  -9.295
REMARK INTRA:                  -1.398
REMARK CONF_INDEPENDENT:        2.983
REMARK UNBOUND:                -1.398
REMARK  10 active torsions:
REMARK  status: ('A' for Active; 'I' for Inactive)
REMARK    1  A    between atoms: O_2  and  C_3 
REMARK    2  A    between atoms: C_5  and  C_6 
REMARK       I    between atoms: C_6  and  N_8 
REMARK    3  A    between atoms: N_8  and  N_9 
REMARK    4  A    between atoms: N_9  and  C_10 
REMARK    5  A    between atoms: C_10  and  N_12 
REMARK    6  A    between atoms: N_12  and  C_13 
REMARK    7  A    between atoms: C_13  and  C_14 
REMARK    8  A    between atoms: C_14  and  C_15 
REMARK    9  A    between atoms: C_19  and  O_20 
REMARK   10  A    between atoms: C_22  and  O_23 
ROOT
ATOM      1  C   UNL d   1      24.781 -15.074  -2.802  0.00  0.00     0.270 C 
ATOM      2  O   UNL d   1      23.726 -14.463  -2.581  0.00  0.00    -0.266 OA
ATOM      3  N   UNL d   1      25.192 -16.132  -2.000  0.00  0.00    -0.264 N 
ATOM      4  H   UNL d   1      26.070 -16.630  -2.123  0.00  0.00     0.190 HD
ENDROOT
BRANCH   1   5
ATOM      5  C   UNL d   1      25.687 -14.633  -3.944  0.00  0.00     0.039 A 
ATOM      6  C   UNL d   1      25.593 -13.316  -4.458  0.00  0.00     0.057 A 
ATOM      7  C   UNL d   1      26.543 -12.772  -5.369  0.00  0.00     0.105 A 
ATOM      8  C   UNL d   1      27.618 -13.590  -5.769  0.00  0.00     0.135 A 
ATOM      9  C   UNL d   1      27.667 -14.942  -5.332  0.00  0.00     0.105 A 
ATOM     10  C   UNL d   1      26.693 -15.456  -4.454  0.00  0.00     0.057 A 
BRANCH   7  11
ATOM     11  O   UNL d   1      26.424 -11.406  -5.538  0.00  0.00    -0.353 OA
ATOM     12  C   UNL d   1      26.475 -10.522  -4.416  0.00  0.00     0.210 C 
ENDBRANCH   7  11
BRANCH   8  13
ATOM     13  O   UNL d   1      28.734 -13.244  -6.460  0.00  0.00    -0.351 OA
ATOM     14  C   UNL d   1      28.692 -12.736  -7.751  0.00  0.00     0.210 C 
ENDBRANCH   8  13
BRANCH   9  15
ATOM     15  O   UNL d   1      28.653 -15.870  -5.637  0.00  0.00    -0.353 OA
ATOM     16  C   UNL d   1      29.582 -16.241  -4.614  0.00  0.00     0.210 C 
ENDBRANCH   9  15
ENDBRANCH   1   5
BRANCH   3  17
ATOM     17  N   UNL d   1      24.424 -16.580  -0.872  0.00  0.00    -0.274 N 
ATOM     18  H   UNL d   1      23.643 -15.986  -0.604  0.00  0.00     0.189 HD
BRANCH  17  19
ATOM     19  C   UNL d   1      24.768 -17.769  -0.229  0.00  0.00     0.186 C 
ATOM     20  S   UNL d   1      26.370 -18.149   0.139  0.00  0.00    -0.040 SA
BRANCH  19  21
ATOM     21  N   UNL d   1      23.692 -18.602   0.069  0.00  0.00    -0.366 N 
ATOM     22  H   UNL d   1      23.608 -18.993   0.998  0.00  0.00     0.161 HD
BRANCH  21  23
ATOM     23  C   UNL d   1      22.702 -19.019  -0.935  0.00  0.00     0.122 C 
BRANCH  23  24
ATOM     24  C   UNL d   1      21.256 -18.584  -0.672  0.00  0.00     0.023 C 
BRANCH  24  25
ATOM     25  C   UNL d   1      20.446 -19.676   0.073  0.00  0.00    -0.021 C 
ATOM     26  C   UNL d   1      20.304 -19.368   1.566  0.00  0.00     0.009 C 
ATOM     27  C   UNL d   1      19.050 -19.822  -0.541  0.00  0.00     0.009 C 
ENDBRANCH  24  25
ENDBRANCH  23  24
ENDBRANCH  21  23
ENDBRANCH  19  21
ENDBRANCH  17  19
ENDBRANCH   3  17
TORSDOF 10
ENDMDL
MODEL 5
REMARK VINA RESULT:    -6.114      3.153      4.048
REMARK INTER + INTRA:         -10.356
REMARK INTER:                  -9.097
REMARK INTRA:                  -1.259
REMARK CONF_INDEPENDENT:        2.983
REMARK UNBOUND:                -1.259
REMARK  10 active torsions:
REMARK  status: ('A' for Active; 'I' for Inactive)
REMARK    1  A    between atoms: O_2  and  C_3 
REMARK    2  A    between atoms: C_5  and  C_6 
REMARK       I    between atoms: C_6  and  N_8 
REMARK    3  A    between atoms: N_8  and  N_9 
REMARK    4  A    between atoms: N_9  and  C_10 
REMARK    5  A    between atoms: C_10  and  N_12 
REMARK    6  A    between atoms: N_12  and  C_13 
REMARK    7  A    between atoms: C_13  and  C_14 
REMARK    8  A    between atoms: C_14  and  C_15 
REMARK    9  A    between atoms: C_19  and  O_20 
REMARK   10  A    between atoms: C_22  and  O_23 
ROOT
ATOM      1  C   UNL d   1      26.459 -17.678  -0.301  0.00  0.00     0.270 C 
ATOM      2  O   UNL d   1      26.836 -18.268   0.721  0.00  0.00    -0.266 OA
ATOM      3  N   UNL d   1      25.132 -17.713  -0.715  0.00  0.00    -0.264 N 
ATOM      4  H   UNL d   1      24.793 -17.278  -1.570  0.00  0.00     0.190 HD
ENDROOT
BRANCH   1   5
ATOM      5  C   UNL d   1      27.470 -16.937  -1.165  0.00  0.00     0.039 A 
ATOM      6  C   UNL d   1      28.859 -17.124  -0.954  0.00  0.00     0.057 A 
ATOM      7  C   UNL d   1      29.850 -16.636  -1.852  0.00  0.00     0.105 A 
ATOM      8  C   UNL d   1      29.419 -15.937  -2.996  0.00  0.00     0.135 A 
ATOM      9  C   UNL d   1      28.033 -15.663  -3.166  0.00  0.00     0.105 A 
ATOM     10  C   UNL d   1      27.082 -16.136  -2.241  0.00  0.00     0.057 A 
BRANCH   7  11
ATOM     11  O   UNL d   1      31.111 -17.148  -1.611  0.00  0.00    -0.353 OA
ATOM     12  C   UNL d   1      31.564 -17.383  -0.276  0.00  0.00     0.210 C 
ENDBRANCH   7  11
BRANCH   8  13
ATOM     13  O   UNL d   1      30.144 -15.551  -4.077  0.00  0.00    -0.351 OA
ATOM     14  C   UNL d   1      30.110 -16.232  -5.286  0.00  0.00     0.210 C 
ENDBRANCH   8  13
BRANCH   9  15
ATOM     15  O   UNL d   1      27.453 -14.990  -4.231  0.00  0.00    -0.353 OA
ATOM     16  C   UNL d   1      26.063 -15.196  -4.494  0.00  0.00     0.210 C 
ENDBRANCH   9  15
ENDBRANCH   1   5
BRANCH   3  17
ATOM     17  N   UNL d   1      24.124 -18.431   0.012  0.00  0.00    -0.274 N 
ATOM     18  H   UNL d   1      24.459 -19.176   0.618  0.00  0.00     0.189 HD
BRANCH  17  19
ATOM     19  C   UNL d   1      22.782 -18.080  -0.137  0.00  0.00     0.186 C 
ATOM     20  S   UNL d   1      22.312 -16.506  -0.521  0.00  0.00    -0.040 SA
BRANCH  19  21
ATOM     21  N   UNL d   1      21.881 -19.123   0.065  0.00  0.00    -0.366 N 
ATOM     22  H   UNL d   1      22.175 -19.943   0.579  0.00  0.00     0.161 HD
BRANCH  21  23
ATOM     23  C   UNL d   1      20.528 -19.133  -0.511  0.00  0.00     0.122 C 
BRANCH  23  24
ATOM     24  C   UNL d   1      19.688 -20.383  -0.228  0.00  0.00     0.023 C 
BRANCH  24  25
ATOM     25  C   UNL d   1      18.893 -20.264   1.098  0.00  0.00    -0.021 C 
ATOM     26  C   UNL d   1      18.016 -21.492   1.355  0.00  0.00     0.009 C 
ATOM     27  C   UNL d   1      19.847 -20.076   2.280  0.00  0.00     0.009 C 
ENDBRANCH  24  25
ENDBRANCH  23  24
ENDBRANCH  21  23
ENDBRANCH  19  21
ENDBRANCH  17  19
ENDBRANCH   3  17
TORSDOF 10
ENDMDL
MODEL 6
REMARK VINA RESULT:    -6.111      1.563      2.129
REMARK INTER + INTRA:         -10.306
REMARK INTER:                  -9.094
REMARK INTRA:                  -1.212
REMARK CONF_INDEPENDENT:        2.983
REMARK UNBOUND:                -1.212
REMARK  10 active torsions:
REMARK  status: ('A' for Active; 'I' for Inactive)
REMARK    1  A    between atoms: O_2  and  C_3 
REMARK    2  A    between atoms: C_5  and  C_6 
REMARK       I    between atoms: C_6  and  N_8 
REMARK    3  A    between atoms: N_8  and  N_9 
REMARK    4  A    between atoms: N_9  and  C_10 
REMARK    5  A    between atoms: C_10  and  N_12 
REMARK    6  A    between atoms: N_12  and  C_13 
REMARK    7  A    between atoms: C_13  and  C_14 
REMARK    8  A    between atoms: C_14  and  C_15 
REMARK    9  A    between atoms: C_19  and  O_20 
REMARK   10  A    between atoms: C_22  and  O_23 
ROOT
ATOM      1  C   UNL d   1      25.804 -15.009  -3.870  0.00  0.00     0.270 C 
ATOM      2  O   UNL d   1      24.740 -14.446  -4.164  0.00  0.00    -0.266 OA
ATOM      3  N   UNL d   1      25.882 -15.916  -2.819  0.00  0.00    -0.264 N 
ATOM      4  H   UNL d   1      26.745 -16.365  -2.521  0.00  0.00     0.190 HD
ENDROOT
BRANCH   1   5
ATOM      5  C   UNL d   1      27.076 -14.671  -4.634  0.00  0.00     0.039 A 
ATOM      6  C   UNL d   1      28.166 -15.577  -4.639  0.00  0.00     0.057 A 
ATOM      7  C   UNL d   1      29.292 -15.427  -5.497  0.00  0.00     0.105 A 
ATOM      8  C   UNL d   1      29.313 -14.325  -6.374  0.00  0.00     0.135 A 
ATOM      9  C   UNL d   1      28.270 -13.361  -6.309  0.00  0.00     0.105 A 
ATOM     10  C   UNL d   1      27.185 -13.525  -5.427  0.00  0.00     0.057 A 
BRANCH   7  11
ATOM     11  O   UNL d   1      30.105 -16.543  -5.539  0.00  0.00    -0.353 OA
ATOM     12  C   UNL d   1      30.036 -17.538  -4.515  0.00  0.00     0.210 C 
ENDBRANCH   7  11
BRANCH   8  13
ATOM     13  O   UNL d   1      30.164 -14.076  -7.403  0.00  0.00    -0.351 OA
ATOM     14  C   UNL d   1      31.395 -14.703  -7.527  0.00  0.00     0.210 C 
ENDBRANCH   8  13
BRANCH   9  15
ATOM     15  O   UNL d   1      28.148 -12.227  -7.100  0.00  0.00    -0.353 OA
ATOM     16  C   UNL d   1      27.115 -11.287  -6.792  0.00  0.00     0.210 C 
ENDBRANCH   9  15
ENDBRANCH   1   5
BRANCH   3  17
ATOM     17  N   UNL d   1      24.742 -16.253  -2.014  0.00  0.00    -0.274 N 
ATOM     18  H   UNL d   1      23.960 -15.604  -2.058  0.00  0.00     0.189 HD
BRANCH  17  19
ATOM     19  C   UNL d   1      24.759 -17.417  -1.246  0.00  0.00     0.186 C 
ATOM     20  S   UNL d   1      25.935 -17.688  -0.067  0.00  0.00    -0.040 SA
BRANCH  19  21
ATOM     21  N   UNL d   1      23.741 -18.323  -1.538  0.00  0.00    -0.366 N 
ATOM     22  H   UNL d   1      23.393 -18.392  -2.485  0.00  0.00     0.161 HD
BRANCH  21  23
ATOM     23  C   UNL d   1      23.077 -19.138  -0.510  0.00  0.00     0.122 C 
BRANCH  23  24
ATOM     24  C   UNL d   1      21.739 -18.602   0.010  0.00  0.00     0.023 C 
BRANCH  24  25
ATOM     25  C   UNL d   1      20.644 -19.700   0.042  0.00  0.00    -0.021 C 
ATOM     26  C   UNL d   1      20.095 -19.923   1.454  0.00  0.00     0.009 C 
ATOM     27  C   UNL d   1      19.488 -19.332  -0.891  0.00  0.00     0.009 C 
ENDBRANCH  24  25
ENDBRANCH  23  24
ENDBRANCH  21  23
ENDBRANCH  19  21
ENDBRANCH  17  19
ENDBRANCH   3  17
TORSDOF 10
ENDMDL
MODEL 7
REMARK VINA RESULT:    -5.539      6.223      7.550
REMARK INTER + INTRA:         -10.254
REMARK INTER:                  -8.522
REMARK INTRA:                  -1.732
REMARK CONF_INDEPENDENT:        2.983
REMARK UNBOUND:                -1.732
REMARK  10 active torsions:
REMARK  status: ('A' for Active; 'I' for Inactive)
REMARK    1  A    between atoms: O_2  and  C_3 
REMARK    2  A    between atoms: C_5  and  C_6 
REMARK       I    between atoms: C_6  and  N_8 
REMARK    3  A    between atoms: N_8  and  N_9 
REMARK    4  A    between atoms: N_9  and  C_10 
REMARK    5  A    between atoms: C_10  and  N_12 
REMARK    6  A    between atoms: N_12  and  C_13 
REMARK    7  A    between atoms: C_13  and  C_14 
REMARK    8  A    between atoms: C_14  and  C_15 
REMARK    9  A    between atoms: C_19  and  O_20 
REMARK   10  A    between atoms: C_22  and  O_23 
ROOT
ATOM      1  C   UNL d   1      27.111 -14.143   1.378  0.00  0.00     0.270 C 
ATOM      2  O   UNL d   1      26.299 -13.876   0.481  0.00  0.00    -0.266 OA
ATOM      3  N   UNL d   1      27.927 -15.267   1.310  0.00  0.00    -0.264 N 
ATOM      4  H   UNL d   1      28.575 -15.542   2.045  0.00  0.00     0.190 HD
ENDROOT
BRANCH   1   5
ATOM      5  C   UNL d   1      27.192 -13.260   2.615  0.00  0.00     0.039 A 
ATOM      6  C   UNL d   1      27.480 -13.831   3.880  0.00  0.00     0.057 A 
ATOM      7  C   UNL d   1      27.780 -13.049   5.031  0.00  0.00     0.105 A 
ATOM      8  C   UNL d   1      27.786 -11.647   4.894  0.00  0.00     0.135 A 
ATOM      9  C   UNL d   1      27.405 -11.064   3.654  0.00  0.00     0.105 A 
ATOM     10  C   UNL d   1      27.085 -11.868   2.543  0.00  0.00     0.057 A 
BRANCH   7  11
ATOM     11  O   UNL d   1      28.289 -13.788   6.082  0.00  0.00    -0.353 OA
ATOM     12  C   UNL d   1      29.245 -14.825   5.853  0.00  0.00     0.210 C 
ENDBRANCH   7  11
BRANCH   8  13
ATOM     13  O   UNL d   1      28.223 -10.711   5.776  0.00  0.00    -0.351 OA
ATOM     14  C   UNL d   1      29.020 -11.022   6.868  0.00  0.00     0.210 C 
ENDBRANCH   8  13
BRANCH   9  15
ATOM     15  O   UNL d   1      27.359  -9.708   3.362  0.00  0.00    -0.353 OA
ATOM     16  C   UNL d   1      28.579  -8.963   3.385  0.00  0.00     0.210 C 
ENDBRANCH   9  15
ENDBRANCH   1   5
BRANCH   3  17
ATOM     17  N   UNL d   1      27.879 -16.181   0.204  0.00  0.00    -0.274 N 
ATOM     18  H   UNL d   1      28.711 -16.215  -0.380  0.00  0.00     0.189 HD
BRANCH  17  19
ATOM     19  C   UNL d   1      26.738 -16.956  -0.003  0.00  0.00     0.186 C 
ATOM     20  S   UNL d   1      26.619 -18.536   0.577  0.00  0.00    -0.040 SA
BRANCH  19  21
ATOM     21  N   UNL d   1      25.728 -16.325  -0.726  0.00  0.00    -0.366 N 
ATOM     22  H   UNL d   1      25.712 -15.315  -0.782  0.00  0.00     0.161 HD
BRANCH  21  23
ATOM     23  C   UNL d   1      24.618 -17.056  -1.353  0.00  0.00     0.122 C 
BRANCH  23  24
ATOM     24  C   UNL d   1      23.230 -16.817  -0.747  0.00  0.00     0.023 C 
BRANCH  24  25
ATOM     25  C   UNL d   1      22.581 -18.131  -0.243  0.00  0.00    -0.021 C 
ATOM     26  C   UNL d   1      21.219 -18.387  -0.896  0.00  0.00     0.009 C 
ATOM     27  C   UNL d   1      23.498 -19.325  -0.520  0.00  0.00     0.009 C 
ENDBRANCH  24  25
ENDBRANCH  23  24
ENDBRANCH  21  23
ENDBRANCH  19  21
ENDBRANCH  17  19
ENDBRANCH   3  17
TORSDOF 10
ENDMDL
MODEL 8
REMARK VINA RESULT:    -5.201      3.648      8.011
REMARK INTER + INTRA:         -10.288
REMARK INTER:                  -8.184
REMARK INTRA:                  -2.104
REMARK CONF_INDEPENDENT:        2.983
REMARK UNBOUND:                -2.104
REMARK  10 active torsions:
REMARK  status: ('A' for Active; 'I' for Inactive)
REMARK    1  A    between atoms: O_2  and  C_3 
REMARK    2  A    between atoms: C_5  and  C_6 
REMARK       I    between atoms: C_6  and  N_8 
REMARK    3  A    between atoms: N_8  and  N_9 
REMARK    4  A    between atoms: N_9  and  C_10 
REMARK    5  A    between atoms: C_10  and  N_12 
REMARK    6  A    between atoms: N_12  and  C_13 
REMARK    7  A    between atoms: C_13  and  C_14 
REMARK    8  A    between atoms: C_14  and  C_15 
REMARK    9  A    between atoms: C_19  and  O_20 
REMARK   10  A    between atoms: C_22  and  O_23 
ROOT
ATOM      1  C   UNL d   1      25.362 -14.226  -3.535  0.00  0.00     0.270 C 
ATOM      2  O   UNL d   1      24.781 -14.498  -4.594  0.00  0.00    -0.266 OA
ATOM      3  N   UNL d   1      25.770 -12.930  -3.239  0.00  0.00    -0.264 N 
ATOM      4  H   UNL d   1      26.286 -12.675  -2.401  0.00  0.00     0.190 HD
ENDROOT
BRANCH   1   5
ATOM      5  C   UNL d   1      25.694 -15.335  -2.546  0.00  0.00     0.039 A 
ATOM      6  C   UNL d   1      26.856 -15.245  -1.739  0.00  0.00     0.057 A 
ATOM      7  C   UNL d   1      27.113 -16.129  -0.653  0.00  0.00     0.105 A 
ATOM      8  C   UNL d   1      26.164 -17.134  -0.380  0.00  0.00     0.135 A 
ATOM      9  C   UNL d   1      25.044 -17.290  -1.242  0.00  0.00     0.105 A 
ATOM     10  C   UNL d   1      24.836 -16.416  -2.326  0.00  0.00     0.057 A 
BRANCH   7  11
ATOM     11  O   UNL d   1      28.148 -15.713   0.163  0.00  0.00    -0.353 OA
ATOM     12  C   UNL d   1      29.505 -16.028  -0.158  0.00  0.00     0.210 C 
ENDBRANCH   7  11
BRANCH   8  13
ATOM     13  O   UNL d   1      26.088 -17.957   0.698  0.00  0.00    -0.351 OA
ATOM     14  C   UNL d   1      27.030 -18.942   0.958  0.00  0.00     0.210 C 
ENDBRANCH   8  13
BRANCH   9  15
ATOM     15  O   UNL d   1      24.029 -18.226  -1.109  0.00  0.00    -0.353 OA
ATOM     16  C   UNL d   1      22.800 -17.819  -0.502  0.00  0.00     0.210 C 
ENDBRANCH   9  15
ENDBRANCH   1   5
BRANCH   3  17
ATOM     17  N   UNL d   1      25.543 -11.834  -4.138  0.00  0.00    -0.274 N 
ATOM     18  H   UNL d   1      24.753 -11.233  -3.915  0.00  0.00     0.189 HD
BRANCH  17  19
ATOM     19  C   UNL d   1      26.390 -11.649  -5.231  0.00  0.00     0.186 C 
ATOM     20  S   UNL d   1      26.695 -10.118  -5.870  0.00  0.00    -0.040 SA
BRANCH  19  21
ATOM     21  N   UNL d   1      26.945 -12.820  -5.743  0.00  0.00    -0.366 N 
ATOM     22  H   UNL d   1      26.506 -13.708  -5.542  0.00  0.00     0.161 HD
BRANCH  21  23
ATOM     23  C   UNL d   1      28.204 -12.841  -6.502  0.00  0.00     0.122 C 
BRANCH  23  24
ATOM     24  C   UNL d   1      28.673 -14.219  -6.984  0.00  0.00     0.023 C 
BRANCH  24  25
ATOM     25  C   UNL d   1      29.351 -15.032  -5.851  0.00  0.00    -0.021 C 
ATOM     26  C   UNL d   1      28.334 -15.567  -4.840  0.00  0.00     0.009 C 
ATOM     27  C   UNL d   1      30.141 -16.207  -6.433  0.00  0.00     0.009 C 
ENDBRANCH  24  25
ENDBRANCH  23  24
ENDBRANCH  21  23
ENDBRANCH  19  21
ENDBRANCH  17  19
ENDBRANCH   3  17
TORSDOF 10
ENDMDL
MODEL 9
REMARK VINA RESULT:    -4.938      3.601      7.613
REMARK INTER + INTRA:         -10.526
REMARK INTER:                  -7.921
REMARK INTRA:                  -2.604
REMARK CONF_INDEPENDENT:        2.983
REMARK UNBOUND:                -2.604
REMARK  10 active torsions:
REMARK  status: ('A' for Active; 'I' for Inactive)
REMARK    1  A    between atoms: O_2  and  C_3 
REMARK    2  A    between atoms: C_5  and  C_6 
REMARK       I    between atoms: C_6  and  N_8 
REMARK    3  A    between atoms: N_8  and  N_9 
REMARK    4  A    between atoms: N_9  and  C_10 
REMARK    5  A    between atoms: C_10  and  N_12 
REMARK    6  A    between atoms: N_12  and  C_13 
REMARK    7  A    between atoms: C_13  and  C_14 
REMARK    8  A    between atoms: C_14  and  C_15 
REMARK    9  A    between atoms: C_19  and  O_20 
REMARK   10  A    between atoms: C_22  and  O_23 
ROOT
ATOM      1  C   UNL d   1      25.173 -14.264  -3.353  0.00  0.00     0.270 C 
ATOM      2  O   UNL d   1      24.782 -14.765  -4.415  0.00  0.00    -0.266 OA
ATOM      3  N   UNL d   1      25.569 -12.933  -3.277  0.00  0.00    -0.264 N 
ATOM      4  H   UNL d   1      25.936 -12.497  -2.434  0.00  0.00     0.190 HD
ENDROOT
BRANCH   1   5
ATOM      5  C   UNL d   1      25.280 -15.126  -2.102  0.00  0.00     0.039 A 
ATOM      6  C   UNL d   1      24.482 -16.290  -1.970  0.00  0.00     0.057 A 
ATOM      7  C   UNL d   1      24.681 -17.250  -0.937  0.00  0.00     0.105 A 
ATOM      8  C   UNL d   1      25.718 -17.021  -0.012  0.00  0.00     0.135 A 
ATOM      9  C   UNL d   1      26.461 -15.810  -0.082  0.00  0.00     0.105 A 
ATOM     10  C   UNL d   1      26.218 -14.867  -1.099  0.00  0.00     0.057 A 
BRANCH   7  11
ATOM     11  O   UNL d   1      23.986 -18.427  -1.139  0.00  0.00    -0.353 OA
ATOM     12  C   UNL d   1      22.703 -18.631  -0.545  0.00  0.00     0.210 C 
ENDBRANCH   7  11
BRANCH   8  13
ATOM     13  O   UNL d   1      26.221 -17.866   0.924  0.00  0.00    -0.351 OA
ATOM     14  C   UNL d   1      27.030 -18.946   0.603  0.00  0.00     0.210 C 
ENDBRANCH   8  13
BRANCH   9  15
ATOM     15  O   UNL d   1      27.507 -15.438   0.751  0.00  0.00    -0.353 OA
ATOM     16  C   UNL d   1      28.710 -14.944   0.158  0.00  0.00     0.210 C 
ENDBRANCH   9  15
ENDBRANCH   1   5
BRANCH   3  17
ATOM     17  N   UNL d   1      25.549 -12.064  -4.419  0.00  0.00    -0.274 N 
ATOM     18  H   UNL d   1      24.782 -11.396  -4.456  0.00  0.00     0.189 HD
BRANCH  17  19
ATOM     19  C   UNL d   1      26.550 -12.168  -5.385  0.00  0.00     0.186 C 
ATOM     20  S   UNL d   1      27.293 -10.805  -6.046  0.00  0.00    -0.040 SA
BRANCH  19  21
ATOM     21  N   UNL d   1      26.870 -13.473  -5.755  0.00  0.00    -0.366 N 
ATOM     22  H   UNL d   1      26.150 -14.183  -5.748  0.00  0.00     0.161 HD
BRANCH  21  23
ATOM     23  C   UNL d   1      28.239 -13.899  -6.079  0.00  0.00     0.122 C 
BRANCH  23  24
ATOM     24  C   UNL d   1      28.723 -15.181  -5.392  0.00  0.00     0.023 C 
BRANCH  24  25
ATOM     25  C   UNL d   1      28.368 -15.203  -3.883  0.00  0.00    -0.021 C 
ATOM     26  C   UNL d   1      29.063 -16.352  -3.147  0.00  0.00     0.009 C 
ATOM     27  C   UNL d   1      28.757 -13.879  -3.220  0.00  0.00     0.009 C 
ENDBRANCH  24  25
ENDBRANCH  23  24
ENDBRANCH  21  23
ENDBRANCH  19  21
ENDBRANCH  17  19
ENDBRANCH   3  17
TORSDOF 10
ENDMDL
