MODEL 1
REMARK VINA RESULT:    -7.374      0.000      0.000
REMARK INTER + INTRA:         -10.654
REMARK INTER:                  -9.462
REMARK INTRA:                  -1.192
REMARK CONF_INDEPENDENT:        2.088
REMARK UNBOUND:                -1.192
REMARK  7 active torsions:
REMARK  status: ('A' for Active; 'I' for Inactive)
REMARK       I    between atoms: C_2  and  N_3 
REMARK       I    between atoms: C_2  and  N_12 
REMARK    1  A    between atoms: N_3  and  C_4 
REMARK    2  A    between atoms: C_4  and  C_5 
REMARK    3  A    between atoms: C_5  and  C_6 
REMARK    4  A    between atoms: C_6  and  N_7 
REMARK    5  A    between atoms: N_12  and  N_13 
REMARK       I    between atoms: N_13  and  C_14 
REMARK    6  A    between atoms: C_14  and  C_16 
REMARK    7  A    between atoms: C_20  and  N_21 
ROOT
ATOM      1  N   UNL d   1      25.285 -10.857  -3.833  0.00  0.00    -0.261 N 
ATOM      2  C   UNL d   1      26.485 -10.384  -3.234  0.00  0.00     0.277 C 
ATOM      3  O   UNL d   1      27.461 -11.147  -3.045  0.00  0.00    -0.265 OA
ATOM      4  H   UNL d   1      24.479 -10.250  -3.927  0.00  0.00     0.190 HD
ENDROOT
BRANCH   1   5
ATOM      5  N   UNL d   1      25.155 -12.188  -4.271  0.00  0.00    -0.249 N 
ATOM      6  C   UNL d   1      25.414 -13.347  -3.569  0.00  0.00     0.334 C 
ATOM      7  O   UNL d   1      25.180 -14.446  -4.066  0.00  0.00    -0.246 OA
ATOM      8  N   UNL d   1      25.936 -13.234  -2.301  0.00  0.00    -0.342 N 
ATOM      9  H   UNL d   1      26.167 -12.324  -1.951  0.00  0.00     0.164 HD
ATOM     10  H   UNL d   1      24.756 -12.301  -5.205  0.00  0.00     0.192 HD
BRANCH   8  11
ATOM     11  C   UNL d   1      26.264 -14.422  -1.508  0.00  0.00     0.126 C 
BRANCH  11  12
ATOM     12  C   UNL d   1      25.207 -15.524  -1.628  0.00  0.00     0.040 C 
BRANCH  12  13
ATOM     13  C   UNL d   1      25.207 -16.458  -0.417  0.00  0.00     0.130 C 
BRANCH  13  14
ATOM     14  N   UNL d   1      24.022 -17.339  -0.396  0.00  0.00    -0.352 N 
ATOM     15  C   UNL d   1      22.742 -16.984  -0.817  0.00  0.00     0.108 A 
ATOM     16  C   UNL d   1      21.933 -18.062  -0.594  0.00  0.00     0.106 A 
ATOM     17  N   UNL d   1      22.736 -19.037  -0.049  0.00  0.00    -0.361 N 
ATOM     18  C   UNL d   1      23.991 -18.596   0.078  0.00  0.00     0.182 A 
ATOM     19  H   UNL d   1      22.422 -19.963   0.231  0.00  0.00     0.166 HD
ENDBRANCH  13  14
ENDBRANCH  12  13
ENDBRANCH  11  12
ENDBRANCH   8  11
ENDBRANCH   1   5
BRANCH   2  20
ATOM     20  C   UNL d   1      26.413  -8.996  -2.801  0.00  0.00     0.075 C 
ATOM     21  C   UNL d   1      25.921  -8.704  -1.559  0.00  0.00     0.034 C 
ATOM     22  C   UNL d   1      25.508  -7.371  -1.404  0.00  0.00    -0.028 C 
ATOM     23  C   UNL d   1      24.832  -6.675  -0.360  0.00  0.00     0.091 C 
ATOM     24  C   UNL d   1      26.607  -6.687  -1.945  0.00  0.00     0.013 C 
ATOM     25  C   UNL d   1      25.695  -6.679   0.687  0.00  0.00     0.090 C 
ATOM     26  C   UNL d   1      26.739  -5.816   0.321  0.00  0.00     0.034 C 
ATOM     27  C   UNL d   1      27.035  -5.608  -1.143  0.00  0.00     0.021 C 
ATOM     28  S   UNL d   1      27.008  -7.505  -3.454  0.00  0.00    -0.084 SA
BRANCH  25  29
ATOM     29  N   UNL d   1      25.674  -7.903   1.570  0.00  0.00    -0.119 N 
ATOM     30  O   UNL d   1      26.299  -7.852   2.635  0.00  0.00    -0.532 OA
ATOM     31  O   UNL d   1      24.877  -8.822   1.338  0.00  0.00    -0.532 OA
ENDBRANCH  25  29
ENDBRANCH   2  20
TORSDOF 7
ENDMDL
MODEL 2
REMARK VINA RESULT:    -7.171      4.107      6.008
REMARK INTER + INTRA:         -10.717
REMARK INTER:                  -9.259
REMARK INTRA:                  -1.457
REMARK CONF_INDEPENDENT:        2.088
REMARK UNBOUND:                -1.457
REMARK  7 active torsions:
REMARK  status: ('A' for Active; 'I' for Inactive)
REMARK       I    between atoms: C_2  and  N_3 
REMARK       I    between atoms: C_2  and  N_12 
REMARK    1  A    between atoms: N_3  and  C_4 
REMARK    2  A    between atoms: C_4  and  C_5 
REMARK    3  A    between atoms: C_5  and  C_6 
REMARK    4  A    between atoms: C_6  and  N_7 
REMARK    5  A    between atoms: N_12  and  N_13 
REMARK       I    between atoms: N_13  and  C_14 
REMARK    6  A    between atoms: C_14  and  C_16 
REMARK    7  A    between atoms: C_20  and  N_21 
ROOT
ATOM      1  N   UNL d   1      26.304 -16.149  -1.716  0.00  0.00    -0.261 N 
ATOM      2  C   UNL d   1      25.330 -15.369  -2.398  0.00  0.00     0.277 C 
ATOM      3  O   UNL d   1      24.131 -15.369  -2.037  0.00  0.00    -0.265 OA
ATOM      4  H   UNL d   1      27.260 -16.192  -2.050  0.00  0.00     0.190 HD
ENDROOT
BRANCH   1   5
ATOM      5  N   UNL d   1      25.972 -16.922  -0.587  0.00  0.00    -0.249 N 
ATOM      6  C   UNL d   1      24.940 -17.826  -0.447  0.00  0.00     0.334 C 
ATOM      7  O   UNL d   1      24.820 -18.484   0.585  0.00  0.00    -0.246 OA
ATOM      8  N   UNL d   1      24.055 -17.969  -1.490  0.00  0.00    -0.342 N 
ATOM      9  H   UNL d   1      24.150 -17.374  -2.292  0.00  0.00     0.164 HD
ATOM     10  H   UNL d   1      26.621 -16.845   0.198  0.00  0.00     0.192 HD
BRANCH   8  11
ATOM     11  C   UNL d   1      22.917 -18.888  -1.399  0.00  0.00     0.126 C 
BRANCH  11  12
ATOM     12  C   UNL d   1      21.693 -18.249  -0.737  0.00  0.00     0.040 C 
BRANCH  12  13
ATOM     13  C   UNL d   1      21.304 -18.956   0.562  0.00  0.00     0.130 C 
BRANCH  13  14
ATOM     14  N   UNL d   1      20.028 -19.689   0.434  0.00  0.00    -0.352 N 
ATOM     15  C   UNL d   1      19.527 -20.607   1.354  0.00  0.00     0.108 A 
ATOM     16  C   UNL d   1      18.354 -21.086   0.845  0.00  0.00     0.106 A 
ATOM     17  N   UNL d   1      18.172 -20.450  -0.361  0.00  0.00    -0.361 N 
ATOM     18  C   UNL d   1      19.186 -19.616  -0.611  0.00  0.00     0.182 A 
ATOM     19  H   UNL d   1      17.383 -20.597  -0.986  0.00  0.00     0.166 HD
ENDBRANCH  13  14
ENDBRANCH  12  13
ENDBRANCH  11  12
ENDBRANCH   8  11
ENDBRANCH   1   5
BRANCH   2  20
ATOM     20  C   UNL d   1      25.851 -14.679  -3.570  0.00  0.00     0.075 C 
ATOM     21  C   UNL d   1      25.850 -13.312  -3.601  0.00  0.00     0.034 C 
ATOM     22  C   UNL d   1      25.969 -12.767  -4.890  0.00  0.00    -0.028 C 
ATOM     23  C   UNL d   1      25.882 -11.439  -5.398  0.00  0.00     0.091 C 
ATOM     24  C   UNL d   1      27.038 -13.519  -5.399  0.00  0.00     0.013 C 
ATOM     25  C   UNL d   1      26.947 -10.786  -4.869  0.00  0.00     0.090 C 
ATOM     26  C   UNL d   1      28.076 -11.323  -5.506  0.00  0.00     0.034 C 
ATOM     27  C   UNL d   1      28.008 -12.728  -6.050  0.00  0.00     0.021 C 
ATOM     28  S   UNL d   1      26.707 -15.199  -4.983  0.00  0.00    -0.084 SA
BRANCH  25  29
ATOM     29  N   UNL d   1      26.761 -10.206  -3.488  0.00  0.00    -0.119 N 
ATOM     30  O   UNL d   1      25.614  -9.899  -3.145  0.00  0.00    -0.532 OA
ATOM     31  O   UNL d   1      27.685 -10.256  -2.664  0.00  0.00    -0.532 OA
ENDBRANCH  25  29
ENDBRANCH   2  20
TORSDOF 7
ENDMDL
MODEL 3
REMARK VINA RESULT:    -7.163      3.886      4.671
REMARK INTER + INTRA:         -10.839
REMARK INTER:                  -9.251
REMARK INTRA:                  -1.588
REMARK CONF_INDEPENDENT:        2.088
REMARK UNBOUND:                -1.588
REMARK  7 active torsions:
REMARK  status: ('A' for Active; 'I' for Inactive)
REMARK       I    between atoms: C_2  and  N_3 
REMARK       I    between atoms: C_2  and  N_12 
REMARK    1  A    between atoms: N_3  and  C_4 
REMARK    2  A    between atoms: C_4  and  C_5 
REMARK    3  A    between atoms: C_5  and  C_6 
REMARK    4  A    between atoms: C_6  and  N_7 
REMARK    5  A    between atoms: N_12  and  N_13 
REMARK       I    between atoms: N_13  and  C_14 
REMARK    6  A    between atoms: C_14  and  C_16 
REMARK    7  A    between atoms: C_20  and  N_21 
ROOT
ATOM      1  N   UNL d   1      28.001 -15.196   1.675  0.00  0.00    -0.261 N 
ATOM      2  C   UNL d   1      27.160 -14.050   1.622  0.00  0.00     0.277 C 
ATOM      3  O   UNL d   1      26.090 -14.059   0.970  0.00  0.00    -0.265 OA
ATOM      4  H   UNL d   1      28.893 -15.162   2.154  0.00  0.00     0.190 HD
ENDROOT
BRANCH   1   5
ATOM      5  N   UNL d   1      27.651 -16.397   1.030  0.00  0.00    -0.249 N 
ATOM      6  C   UNL d   1      27.246 -16.577  -0.276  0.00  0.00     0.334 C 
ATOM      7  O   UNL d   1      27.044 -17.706  -0.719  0.00  0.00    -0.246 OA
ATOM      8  N   UNL d   1      27.078 -15.462  -1.063  0.00  0.00    -0.342 N 
ATOM      9  H   UNL d   1      27.196 -14.555  -0.652  0.00  0.00     0.164 HD
ATOM     10  H   UNL d   1      27.780 -17.243   1.588  0.00  0.00     0.192 HD
BRANCH   8  11
ATOM     11  C   UNL d   1      26.620 -15.576  -2.451  0.00  0.00     0.126 C 
BRANCH  11  12
ATOM     12  C   UNL d   1      25.284 -16.314  -2.574  0.00  0.00     0.040 C 
BRANCH  12  13
ATOM     13  C   UNL d   1      24.344 -16.005  -1.409  0.00  0.00     0.130 C 
BRANCH  13  14
ATOM     14  N   UNL d   1      23.638 -17.211  -0.930  0.00  0.00    -0.352 N 
ATOM     15  C   UNL d   1      22.258 -17.342  -0.800  0.00  0.00     0.108 A 
ATOM     16  C   UNL d   1      22.019 -18.587  -0.289  0.00  0.00     0.106 A 
ATOM     17  N   UNL d   1      23.251 -19.176  -0.125  0.00  0.00    -0.361 N 
ATOM     18  C   UNL d   1      24.225 -18.342  -0.503  0.00  0.00     0.182 A 
ATOM     19  H   UNL d   1      23.407 -20.111   0.243  0.00  0.00     0.166 HD
ENDBRANCH  13  14
ENDBRANCH  12  13
ENDBRANCH  11  12
ENDBRANCH   8  11
ENDBRANCH   1   5
BRANCH   2  20
ATOM     20  C   UNL d   1      27.712 -12.889   2.306  0.00  0.00     0.075 C 
ATOM     21  C   UNL d   1      27.226 -11.644   2.018  0.00  0.00     0.034 C 
ATOM     22  C   UNL d   1      28.078 -10.594   2.395  0.00  0.00    -0.028 C 
ATOM     23  C   UNL d   1      28.045  -9.186   2.177  0.00  0.00     0.091 C 
ATOM     24  C   UNL d   1      28.409 -10.975   3.703  0.00  0.00     0.013 C 
ATOM     25  C   UNL d   1      26.963  -8.745   2.868  0.00  0.00     0.090 C 
ATOM     26  C   UNL d   1      27.300  -8.874   4.224  0.00  0.00     0.034 C 
ATOM     27  C   UNL d   1      28.317  -9.913   4.627  0.00  0.00     0.021 C 
ATOM     28  S   UNL d   1      28.805 -12.691   3.636  0.00  0.00    -0.084 SA
BRANCH  25  29
ATOM     29  N   UNL d   1      25.634  -8.827   2.158  0.00  0.00    -0.119 N 
ATOM     30  O   UNL d   1      24.802  -9.634   2.588  0.00  0.00    -0.532 OA
ATOM     31  O   UNL d   1      25.318  -7.961   1.331  0.00  0.00    -0.532 OA
ENDBRANCH  25  29
ENDBRANCH   2  20
TORSDOF 7
ENDMDL
MODEL 4
REMARK VINA RESULT:    -7.096      5.152      8.373
REMARK INTER + INTRA:         -10.680
REMARK INTER:                  -9.184
REMARK INTRA:                  -1.495
REMARK CONF_INDEPENDENT:        2.088
REMARK UNBOUND:                -1.495
REMARK  7 active torsions:
REMARK  status: ('A' for Active; 'I' for Inactive)
REMARK       I    between atoms: C_2  and  N_3 
REMARK       I    between atoms: C_2  and  N_12 
REMARK    1  A    between atoms: N_3  and  C_4 
REMARK    2  A    between atoms: C_4  and  C_5 
REMARK    3  A    between atoms: C_5  and  C_6 
REMARK    4  A    between atoms: C_6  and  N_7 
REMARK    5  A    between atoms: N_12  and  N_13 
REMARK       I    between atoms: N_13  and  C_14 
REMARK    6  A    between atoms: C_14  and  C_16 
REMARK    7  A    between atoms: C_20  and  N_21 
ROOT
ATOM      1  N   UNL d   1      25.669 -13.112  -3.454  0.00  0.00    -0.261 N 
ATOM      2  C   UNL d   1      25.469 -14.497  -3.706  0.00  0.00     0.277 C 
ATOM      3  O   UNL d   1      25.145 -14.910  -4.843  0.00  0.00    -0.265 OA
ATOM      4  H   UNL d   1      25.870 -12.779  -2.518  0.00  0.00     0.190 HD
ENDROOT
BRANCH   1   5
ATOM      5  N   UNL d   1      25.549 -12.151  -4.476  0.00  0.00    -0.249 N 
ATOM      6  C   UNL d   1      26.335 -11.999  -5.599  0.00  0.00     0.334 C 
ATOM      7  O   UNL d   1      26.060 -11.152  -6.446  0.00  0.00    -0.246 OA
ATOM      8  N   UNL d   1      27.429 -12.820  -5.742  0.00  0.00    -0.342 N 
ATOM      9  H   UNL d   1      27.655 -13.460  -5.004  0.00  0.00     0.164 HD
ATOM     10  H   UNL d   1      24.736 -11.536  -4.401  0.00  0.00     0.192 HD
BRANCH   8  11
ATOM     11  C   UNL d   1      28.326 -12.694  -6.895  0.00  0.00     0.126 C 
BRANCH  11  12
ATOM     12  C   UNL d   1      29.156 -13.958  -7.139  0.00  0.00     0.040 C 
BRANCH  12  13
ATOM     13  C   UNL d   1      28.514 -15.198  -6.517  0.00  0.00     0.130 C 
BRANCH  13  14
ATOM     14  N   UNL d   1      29.210 -15.624  -5.285  0.00  0.00    -0.352 N 
ATOM     15  C   UNL d   1      30.292 -16.499  -5.229  0.00  0.00     0.108 A 
ATOM     16  C   UNL d   1      30.608 -16.662  -3.910  0.00  0.00     0.106 A 
ATOM     17  N   UNL d   1      29.717 -15.888  -3.204  0.00  0.00    -0.361 N 
ATOM     18  C   UNL d   1      28.870 -15.270  -4.034  0.00  0.00     0.182 A 
ATOM     19  H   UNL d   1      29.693 -15.800  -2.191  0.00  0.00     0.166 HD
ENDBRANCH  13  14
ENDBRANCH  12  13
ENDBRANCH  11  12
ENDBRANCH   8  11
ENDBRANCH   1   5
BRANCH   2  20
ATOM     20  C   UNL d   1      25.586 -15.329  -2.516  0.00  0.00     0.075 C 
ATOM     21  C   UNL d   1      24.480 -15.973  -2.035  0.00  0.00     0.034 C 
ATOM     22  C   UNL d   1      24.594 -16.387  -0.698  0.00  0.00    -0.028 C 
ATOM     23  C   UNL d   1      23.673 -16.957   0.228  0.00  0.00     0.091 C 
ATOM     24  C   UNL d   1      25.858 -16.996  -0.714  0.00  0.00     0.013 C 
ATOM     25  C   UNL d   1      23.376 -18.182  -0.275  0.00  0.00     0.090 C 
ATOM     26  C   UNL d   1      24.539 -18.949  -0.116  0.00  0.00     0.034 C 
ATOM     27  C   UNL d   1      25.875 -18.249  -0.068  0.00  0.00     0.021 C 
ATOM     28  S   UNL d   1      26.929 -15.895  -1.580  0.00  0.00    -0.084 SA
BRANCH  25  29
ATOM     29  N   UNL d   1      22.278 -18.235  -1.309  0.00  0.00    -0.119 N 
ATOM     30  O   UNL d   1      22.222 -19.234  -2.035  0.00  0.00    -0.532 OA
ATOM     31  O   UNL d   1      21.347 -17.419  -1.268  0.00  0.00    -0.532 OA
ENDBRANCH  25  29
ENDBRANCH   2  20
TORSDOF 7
ENDMDL
MODEL 5
REMARK VINA RESULT:    -6.244      4.581      8.618
REMARK INTER + INTRA:         -10.568
REMARK INTER:                  -8.332
REMARK INTRA:                  -2.236
REMARK CONF_INDEPENDENT:        2.088
REMARK UNBOUND:                -2.236
REMARK  7 active torsions:
REMARK  status: ('A' for Active; 'I' for Inactive)
REMARK       I    between atoms: C_2  and  N_3 
REMARK       I    between atoms: C_2  and  N_12 
REMARK    1  A    between atoms: N_3  and  C_4 
REMARK    2  A    between atoms: C_4  and  C_5 
REMARK    3  A    between atoms: C_5  and  C_6 
REMARK    4  A    between atoms: C_6  and  N_7 
REMARK    5  A    between atoms: N_12  and  N_13 
REMARK       I    between atoms: N_13  and  C_14 
REMARK    6  A    between atoms: C_14  and  C_16 
REMARK    7  A    between atoms: C_20  and  N_21 
ROOT
ATOM      1  N   UNL d   1      27.288 -15.215  -4.718  0.00  0.00    -0.261 N 
ATOM      2  C   UNL d   1      25.955 -15.241  -4.222  0.00  0.00     0.277 C 
ATOM      3  O   UNL d   1      24.994 -14.848  -4.922  0.00  0.00    -0.265 OA
ATOM      4  H   UNL d   1      28.067 -15.476  -4.126  0.00  0.00     0.190 HD
ENDROOT
BRANCH   1   5
ATOM      5  N   UNL d   1      27.579 -14.784  -6.027  0.00  0.00    -0.249 N 
ATOM      6  C   UNL d   1      28.469 -13.809  -6.425  0.00  0.00     0.334 C 
ATOM      7  O   UNL d   1      28.669 -13.593  -7.618  0.00  0.00    -0.246 OA
ATOM      8  N   UNL d   1      29.125 -13.091  -5.451  0.00  0.00    -0.342 N 
ATOM      9  H   UNL d   1      28.894 -13.255  -4.490  0.00  0.00     0.164 HD
ATOM     10  H   UNL d   1      27.115 -15.309  -6.770  0.00  0.00     0.192 HD
BRANCH   8  11
ATOM     11  C   UNL d   1      30.062 -12.020  -5.801  0.00  0.00     0.126 C 
BRANCH  11  12
ATOM     12  C   UNL d   1      29.793 -10.724  -5.029  0.00  0.00     0.040 C 
BRANCH  12  13
ATOM     13  C   UNL d   1      28.427 -10.126  -5.365  0.00  0.00     0.130 C 
BRANCH  13  14
ATOM     14  N   UNL d   1      27.322 -10.885  -4.743  0.00  0.00    -0.352 N 
ATOM     15  C   UNL d   1      27.162 -11.109  -3.378  0.00  0.00     0.108 A 
ATOM     16  C   UNL d   1      26.047 -11.883  -3.226  0.00  0.00     0.106 A 
ATOM     17  N   UNL d   1      25.561 -12.107  -4.493  0.00  0.00    -0.361 N 
ATOM     18  C   UNL d   1      26.336 -11.513  -5.406  0.00  0.00     0.182 A 
ATOM     19  H   UNL d   1      24.734 -12.657  -4.713  0.00  0.00     0.166 HD
ENDBRANCH  13  14
ENDBRANCH  12  13
ENDBRANCH  11  12
ENDBRANCH   8  11
ENDBRANCH   1   5
BRANCH   2  20
ATOM     20  C   UNL d   1      25.859 -15.669  -2.833  0.00  0.00     0.075 C 
ATOM     21  C   UNL d   1      24.739 -16.327  -2.408  0.00  0.00     0.034 C 
ATOM     22  C   UNL d   1      24.562 -16.319  -1.015  0.00  0.00    -0.028 C 
ATOM     23  C   UNL d   1      23.503 -16.751  -0.165  0.00  0.00     0.091 C 
ATOM     24  C   UNL d   1      25.845 -16.684  -0.581  0.00  0.00     0.013 C 
ATOM     25  C   UNL d   1      23.462 -18.100  -0.305  0.00  0.00     0.090 C 
ATOM     26  C   UNL d   1      24.622 -18.582   0.321  0.00  0.00     0.034 C 
ATOM     27  C   UNL d   1      25.828 -17.680   0.417  0.00  0.00     0.021 C 
ATOM     28  S   UNL d   1      26.980 -15.709  -1.513  0.00  0.00    -0.084 SA
BRANCH  25  29
ATOM     29  N   UNL d   1      22.663 -18.630  -1.470  0.00  0.00    -0.119 N 
ATOM     30  O   UNL d   1      23.281 -18.942  -2.494  0.00  0.00    -0.532 OA
ATOM     31  O   UNL d   1      21.477 -18.950  -1.315  0.00  0.00    -0.532 OA
ENDBRANCH  25  29
ENDBRANCH   2  20
TORSDOF 7
ENDMDL
MODEL 6
REMARK VINA RESULT:    -5.193      5.890      8.989
REMARK INTER + INTRA:         -10.736
REMARK INTER:                  -7.281
REMARK INTRA:                  -3.455
REMARK CONF_INDEPENDENT:        2.088
REMARK UNBOUND:                -3.455
REMARK  7 active torsions:
REMARK  status: ('A' for Active; 'I' for Inactive)
REMARK       I    between atoms: C_2  and  N_3 
REMARK       I    between atoms: C_2  and  N_12 
REMARK    1  A    between atoms: N_3  and  C_4 
REMARK    2  A    between atoms: C_4  and  C_5 
REMARK    3  A    between atoms: C_5  and  C_6 
REMARK    4  A    between atoms: C_6  and  N_7 
REMARK    5  A    between atoms: N_12  and  N_13 
REMARK       I    between atoms: N_13  and  C_14 
REMARK    6  A    between atoms: C_14  and  C_16 
REMARK    7  A    between atoms: C_20  and  N_21 
ROOT
ATOM      1  N   UNL d   1      30.465 -18.553  -0.876  0.00  0.00    -0.261 N 
ATOM      2  C   UNL d   1      29.913 -17.439  -1.566  0.00  0.00     0.277 C 
ATOM      3  O   UNL d   1      30.578 -16.808  -2.419  0.00  0.00    -0.265 OA
ATOM      4  H   UNL d   1      29.943 -19.021  -0.145  0.00  0.00     0.190 HD
ENDROOT
BRANCH   1   5
ATOM      5  N   UNL d   1      31.766 -19.017  -1.148  0.00  0.00    -0.249 N 
ATOM      6  C   UNL d   1      32.368 -19.198  -2.376  0.00  0.00     0.334 C 
ATOM      7  O   UNL d   1      33.545 -19.543  -2.452  0.00  0.00    -0.246 OA
ATOM      8  N   UNL d   1      31.615 -18.980  -3.506  0.00  0.00    -0.342 N 
ATOM      9  H   UNL d   1      30.643 -18.756  -3.406  0.00  0.00     0.164 HD
ATOM     10  H   UNL d   1      32.352 -19.174  -0.326  0.00  0.00     0.192 HD
BRANCH   8  11
ATOM     11  C   UNL d   1      32.179 -19.183  -4.844  0.00  0.00     0.126 C 
BRANCH  11  12
ATOM     12  C   UNL d   1      31.432 -18.398  -5.926  0.00  0.00     0.040 C 
BRANCH  12  13
ATOM     13  C   UNL d   1      31.583 -16.887  -5.751  0.00  0.00     0.130 C 
BRANCH  13  14
ATOM     14  N   UNL d   1      30.285 -16.186  -5.840  0.00  0.00    -0.352 N 
ATOM     15  C   UNL d   1      29.928 -15.267  -6.824  0.00  0.00     0.108 A 
ATOM     16  C   UNL d   1      28.673 -14.823  -6.522  0.00  0.00     0.106 A 
ATOM     17  N   UNL d   1      28.301 -15.480  -5.372  0.00  0.00    -0.361 N 
ATOM     18  C   UNL d   1      29.277 -16.293  -4.958  0.00  0.00     0.182 A 
ATOM     19  H   UNL d   1      27.412 -15.360  -4.891  0.00  0.00     0.166 HD
ENDBRANCH  13  14
ENDBRANCH  12  13
ENDBRANCH  11  12
ENDBRANCH   8  11
ENDBRANCH   1   5
BRANCH   2  20
ATOM     20  C   UNL d   1      28.576 -17.078  -1.114  0.00  0.00     0.075 C 
ATOM     21  C   UNL d   1      27.861 -16.144  -1.810  0.00  0.00     0.034 C 
ATOM     22  C   UNL d   1      26.802 -15.573  -1.084  0.00  0.00    -0.028 C 
ATOM     23  C   UNL d   1      25.905 -14.499  -1.350  0.00  0.00     0.091 C 
ATOM     24  C   UNL d   1      26.199 -16.719  -0.547  0.00  0.00     0.013 C 
ATOM     25  C   UNL d   1      25.148 -14.920  -2.396  0.00  0.00     0.090 C 
ATOM     26  C   UNL d   1      24.326 -15.935  -1.883  0.00  0.00     0.034 C 
ATOM     27  C   UNL d   1      24.795 -16.720  -0.683  0.00  0.00     0.021 C 
ATOM     28  S   UNL d   1      27.505 -17.718   0.088  0.00  0.00    -0.084 SA
BRANCH  25  29
ATOM     29  N   UNL d   1      25.725 -14.702  -3.773  0.00  0.00    -0.119 N 
ATOM     30  O   UNL d   1      25.254 -15.366  -4.703  0.00  0.00    -0.532 OA
ATOM     31  O   UNL d   1      26.471 -13.738  -3.988  0.00  0.00    -0.532 OA
ENDBRANCH  25  29
ENDBRANCH   2  20
TORSDOF 7
ENDMDL
MODEL 7
REMARK VINA RESULT:    -5.047      2.356      3.682
REMARK INTER + INTRA:         -10.793
REMARK INTER:                  -7.135
REMARK INTRA:                  -3.658
REMARK CONF_INDEPENDENT:        2.088
REMARK UNBOUND:                -3.658
REMARK  7 active torsions:
REMARK  status: ('A' for Active; 'I' for Inactive)
REMARK       I    between atoms: C_2  and  N_3 
REMARK       I    between atoms: C_2  and  N_12 
REMARK    1  A    between atoms: N_3  and  C_4 
REMARK    2  A    between atoms: C_4  and  C_5 
REMARK    3  A    between atoms: C_5  and  C_6 
REMARK    4  A    between atoms: C_6  and  N_7 
REMARK    5  A    between atoms: N_12  and  N_13 
REMARK       I    between atoms: N_13  and  C_14 
REMARK    6  A    between atoms: C_14  and  C_16 
REMARK    7  A    between atoms: C_20  and  N_21 
ROOT
ATOM      1  N   UNL d   1      25.322 -10.959  -3.792  0.00  0.00    -0.261 N 
ATOM      2  C   UNL d   1      26.518 -10.516  -3.163  0.00  0.00     0.277 C 
ATOM      3  O   UNL d   1      27.458 -11.308  -2.924  0.00  0.00    -0.265 OA
ATOM      4  H   UNL d   1      24.542 -10.327  -3.926  0.00  0.00     0.190 HD
ENDROOT
BRANCH   1   5
ATOM      5  N   UNL d   1      25.158 -12.295  -4.206  0.00  0.00    -0.249 N 
ATOM      6  C   UNL d   1      25.363 -13.446  -3.474  0.00  0.00     0.334 C 
ATOM      7  O   UNL d   1      25.105 -14.547  -3.955  0.00  0.00    -0.246 OA
ATOM      8  N   UNL d   1      25.858 -13.324  -2.197  0.00  0.00    -0.342 N 
ATOM      9  H   UNL d   1      26.110 -12.414  -1.859  0.00  0.00     0.164 HD
ATOM     10  H   UNL d   1      24.778 -12.414  -5.147  0.00  0.00     0.192 HD
BRANCH   8  11
ATOM     11  C   UNL d   1      26.128 -14.505  -1.372  0.00  0.00     0.126 C 
BRANCH  11  12
ATOM     12  C   UNL d   1      27.474 -14.423  -0.646  0.00  0.00     0.040 C 
BRANCH  12  13
ATOM     13  C   UNL d   1      27.323 -13.940   0.796  0.00  0.00     0.130 C 
BRANCH  13  14
ATOM     14  N   UNL d   1      27.382 -12.467   0.896  0.00  0.00    -0.352 N 
ATOM     15  C   UNL d   1      28.245 -11.641   0.180  0.00  0.00     0.108 A 
ATOM     16  C   UNL d   1      28.010 -10.361   0.593  0.00  0.00     0.106 A 
ATOM     17  N   UNL d   1      27.017 -10.440   1.541  0.00  0.00    -0.361 N 
ATOM     18  C   UNL d   1      26.646 -11.710   1.729  0.00  0.00     0.182 A 
ATOM     19  H   UNL d   1      26.622  -9.647   2.042  0.00  0.00     0.166 HD
ENDBRANCH  13  14
ENDBRANCH  12  13
ENDBRANCH  11  12
ENDBRANCH   8  11
ENDBRANCH   1   5
BRANCH   2  20
ATOM     20  C   UNL d   1      26.481  -9.116  -2.762  0.00  0.00     0.075 C 
ATOM     21  C   UNL d   1      25.959  -8.780  -1.543  0.00  0.00     0.034 C 
ATOM     22  C   UNL d   1      25.589  -7.430  -1.430  0.00  0.00    -0.028 C 
ATOM     23  C   UNL d   1      24.904  -6.688  -0.425  0.00  0.00     0.091 C 
ATOM     24  C   UNL d   1      26.728  -6.797  -1.948  0.00  0.00     0.013 C 
ATOM     25  C   UNL d   1      25.731  -6.699   0.651  0.00  0.00     0.090 C 
ATOM     26  C   UNL d   1      26.816  -5.881   0.303  0.00  0.00     0.034 C 
ATOM     27  C   UNL d   1      27.169  -5.717  -1.155  0.00  0.00     0.021 C 
ATOM     28  S   UNL d   1      27.150  -7.662  -3.425  0.00  0.00    -0.084 SA
BRANCH  25  29
ATOM     29  N   UNL d   1      25.637  -7.902   1.558  0.00  0.00    -0.119 N 
ATOM     30  O   UNL d   1      26.280  -7.876   2.612  0.00  0.00    -0.532 OA
ATOM     31  O   UNL d   1      24.773  -8.766   1.355  0.00  0.00    -0.532 OA
ENDBRANCH  25  29
ENDBRANCH   2  20
TORSDOF 7
ENDMDL
MODEL 8
REMARK VINA RESULT:    -4.992      6.413      8.957
REMARK INTER + INTRA:         -10.502
REMARK INTER:                  -7.080
REMARK INTRA:                  -3.422
REMARK CONF_INDEPENDENT:        2.088
REMARK UNBOUND:                -3.422
REMARK  7 active torsions:
REMARK  status: ('A' for Active; 'I' for Inactive)
REMARK       I    between atoms: C_2  and  N_3 
REMARK       I    between atoms: C_2  and  N_12 
REMARK    1  A    between atoms: N_3  and  C_4 
REMARK    2  A    between atoms: C_4  and  C_5 
REMARK    3  A    between atoms: C_5  and  C_6 
REMARK    4  A    between atoms: C_6  and  N_7 
REMARK    5  A    between atoms: N_12  and  N_13 
REMARK       I    between atoms: N_13  and  C_14 
REMARK    6  A    between atoms: C_14  and  C_16 
REMARK    7  A    between atoms: C_20  and  N_21 
ROOT
ATOM      1  N   UNL d   1      30.567 -17.302   0.038  0.00  0.00    -0.261 N 
ATOM      2  C   UNL d   1      29.651 -17.562  -1.017  0.00  0.00     0.277 C 
ATOM      3  O   UNL d   1      30.043 -17.700  -2.199  0.00  0.00    -0.265 OA
ATOM      4  H   UNL d   1      30.238 -17.131   0.981  0.00  0.00     0.190 HD
ENDROOT
BRANCH   1   5
ATOM      5  N   UNL d   1      31.954 -17.226  -0.192  0.00  0.00    -0.249 N 
ATOM      6  C   UNL d   1      32.627 -16.425  -1.091  0.00  0.00     0.334 C 
ATOM      7  O   UNL d   1      33.855 -16.417  -1.125  0.00  0.00    -0.246 OA
ATOM      8  N   UNL d   1      31.885 -15.637  -1.940  0.00  0.00    -0.342 N 
ATOM      9  H   UNL d   1      30.885 -15.713  -1.922  0.00  0.00     0.164 HD
ATOM     10  H   UNL d   1      32.530 -17.791   0.435  0.00  0.00     0.192 HD
BRANCH   8  11
ATOM     11  C   UNL d   1      32.532 -14.784  -2.941  0.00  0.00     0.126 C 
BRANCH  11  12
ATOM     12  C   UNL d   1      32.071 -15.094  -4.369  0.00  0.00     0.040 C 
BRANCH  12  13
ATOM     13  C   UNL d   1      31.002 -16.187  -4.405  0.00  0.00     0.130 C 
BRANCH  13  14
ATOM     14  N   UNL d   1      29.677 -15.654  -4.783  0.00  0.00    -0.352 N 
ATOM     15  C   UNL d   1      29.280 -15.317  -6.075  0.00  0.00     0.108 A 
ATOM     16  C   UNL d   1      28.008 -14.826  -5.988  0.00  0.00     0.106 A 
ATOM     17  N   UNL d   1      27.668 -14.878  -4.657  0.00  0.00    -0.361 N 
ATOM     18  C   UNL d   1      28.678 -15.368  -3.932  0.00  0.00     0.182 A 
ATOM     19  H   UNL d   1      26.777 -14.576  -4.269  0.00  0.00     0.166 HD
ENDBRANCH  13  14
ENDBRANCH  12  13
ENDBRANCH  11  12
ENDBRANCH   8  11
ENDBRANCH   1   5
BRANCH   2  20
ATOM     20  C   UNL d   1      28.257 -17.554  -0.594  0.00  0.00     0.075 C 
ATOM     21  C   UNL d   1      27.377 -16.699  -1.197  0.00  0.00     0.034 C 
ATOM     22  C   UNL d   1      26.203 -16.469  -0.460  0.00  0.00    -0.028 C 
ATOM     23  C   UNL d   1      25.105 -15.578  -0.631  0.00  0.00     0.091 C 
ATOM     24  C   UNL d   1      25.844 -17.779  -0.114  0.00  0.00     0.013 C 
ATOM     25  C   UNL d   1      24.482 -15.994  -1.762  0.00  0.00     0.090 C 
ATOM     26  C   UNL d   1      23.881 -17.220  -1.435  0.00  0.00     0.034 C 
ATOM     27  C   UNL d   1      24.477 -18.051  -0.326  0.00  0.00     0.021 C 
ATOM     28  S   UNL d   1      27.317 -18.565   0.452  0.00  0.00    -0.084 SA
BRANCH  25  29
ATOM     29  N   UNL d   1      25.033 -15.469  -3.065  0.00  0.00    -0.119 N 
ATOM     30  O   UNL d   1      25.532 -16.285  -3.847  0.00  0.00    -0.532 OA
ATOM     31  O   UNL d   1      24.784 -14.310  -3.422  0.00  0.00    -0.532 OA
ENDBRANCH  25  29
ENDBRANCH   2  20
TORSDOF 7
ENDMDL
MODEL 9
REMARK VINA RESULT:    -4.710      5.422      8.265
REMARK INTER + INTRA:         -10.370
REMARK INTER:                  -6.798
REMARK INTRA:                  -3.572
REMARK CONF_INDEPENDENT:        2.088
REMARK UNBOUND:                -3.572
REMARK  7 active torsions:
REMARK  status: ('A' for Active; 'I' for Inactive)
REMARK       I    between atoms: C_2  and  N_3 
REMARK       I    between atoms: C_2  and  N_12 
REMARK    1  A    between atoms: N_3  and  C_4 
REMARK    2  A    between atoms: C_4  and  C_5 
REMARK    3  A    between atoms: C_5  and  C_6 
REMARK    4  A    between atoms: C_6  and  N_7 
REMARK    5  A    between atoms: N_12  and  N_13 
REMARK       I    between atoms: N_13  and  C_14 
REMARK    6  A    between atoms: C_14  and  C_16 
REMARK    7  A    between atoms: C_20  and  N_21 
ROOT
ATOM      1  N   UNL d   1      29.857 -17.441  -4.238  0.00  0.00    -0.261 N 
ATOM      2  C   UNL d   1      29.648 -16.301  -3.414  0.00  0.00     0.277 C 
ATOM      3  O   UNL d   1      30.075 -15.172  -3.747  0.00  0.00    -0.265 OA
ATOM      4  H   UNL d   1      29.562 -18.361  -3.934  0.00  0.00     0.190 HD
ENDROOT
BRANCH   1   5
ATOM      5  N   UNL d   1      30.519 -17.344  -5.476  0.00  0.00    -0.249 N 
ATOM      6  C   UNL d   1      30.368 -16.379  -6.450  0.00  0.00     0.334 C 
ATOM      7  O   UNL d   1      31.075 -16.387  -7.456  0.00  0.00    -0.246 OA
ATOM      8  N   UNL d   1      29.409 -15.411  -6.262  0.00  0.00    -0.342 N 
ATOM      9  H   UNL d   1      28.812 -15.469  -5.459  0.00  0.00     0.164 HD
ATOM     10  H   UNL d   1      31.247 -18.043  -5.636  0.00  0.00     0.192 HD
BRANCH   8  11
ATOM     11  C   UNL d   1      29.172 -14.372  -7.269  0.00  0.00     0.126 C 
BRANCH  11  12
ATOM     12  C   UNL d   1      28.162 -13.318  -6.805  0.00  0.00     0.040 C 
BRANCH  12  13
ATOM     13  C   UNL d   1      28.162 -13.149  -5.286  0.00  0.00     0.130 C 
BRANCH  13  14
ATOM     14  N   UNL d   1      26.887 -13.582  -4.680  0.00  0.00    -0.352 N 
ATOM     15  C   UNL d   1      25.910 -12.737  -4.159  0.00  0.00     0.108 A 
ATOM     16  C   UNL d   1      24.917 -13.531  -3.660  0.00  0.00     0.106 A 
ATOM     17  N   UNL d   1      25.311 -14.828  -3.889  0.00  0.00    -0.361 N 
ATOM     18  C   UNL d   1      26.502 -14.857  -4.496  0.00  0.00     0.182 A 
ATOM     19  H   UNL d   1      24.781 -15.656  -3.627  0.00  0.00     0.166 HD
ENDBRANCH  13  14
ENDBRANCH  12  13
ENDBRANCH  11  12
ENDBRANCH   8  11
ENDBRANCH   1   5
BRANCH   2  20
ATOM     20  C   UNL d   1      28.991 -16.607  -2.151  0.00  0.00     0.075 C 
ATOM     21  C   UNL d   1      27.662 -16.323  -1.997  0.00  0.00     0.034 C 
ATOM     22  C   UNL d   1      27.239 -16.261  -0.659  0.00  0.00    -0.028 C 
ATOM     23  C   UNL d   1      26.015 -15.875  -0.042  0.00  0.00     0.091 C 
ATOM     24  C   UNL d   1      27.809 -17.434  -0.145  0.00  0.00     0.013 C 
ATOM     25  C   UNL d   1      25.110 -16.809  -0.433  0.00  0.00     0.090 C 
ATOM     26  C   UNL d   1      25.473 -17.990   0.232  0.00  0.00     0.034 C 
ATOM     27  C   UNL d   1      26.912 -18.185   0.642  0.00  0.00     0.021 C 
ATOM     28  S   UNL d   1      29.471 -17.478  -0.732  0.00  0.00    -0.084 SA
BRANCH  25  29
ATOM     29  N   UNL d   1      24.441 -16.579  -1.766  0.00  0.00    -0.119 N 
ATOM     30  O   UNL d   1      23.663 -15.623  -1.859  0.00  0.00    -0.532 OA
ATOM     31  O   UNL d   1      24.837 -17.184  -2.771  0.00  0.00    -0.532 OA
ENDBRANCH  25  29
ENDBRANCH   2  20
TORSDOF 7
ENDMDL
