MODEL 1
REMARK VINA RESULT:   -27.026      0.000      0.000
REMARK INTER + INTRA:         -29.463
REMARK INTER:                 -28.816
REMARK INTRA:                  -0.647
REMARK CONF_INDEPENDENT:        1.790
REMARK UNBOUND:                -0.647
REMARK  6 active torsions:
REMARK  status: ('A' for Active; 'I' for Inactive)
REMARK    1  A    between atoms: C_2  and  O_3 
REMARK    2  A    between atoms: O_3  and  C_4 
REMARK    3  A    between atoms: C_7  and  C_8 
REMARK       I    between atoms: C_8  and  N_10 
REMARK    4  A    between atoms: N_10  and  N_11 
REMARK       I    between atoms: N_11  and  C_12 
REMARK    5  A    between atoms: C_12  and  C_14 
REMARK    6  A    between atoms: C_14  and  C_15 
ROOT
ATOM      1  N   UNL d   1      25.470 -16.008  -0.471  0.00  0.00    -0.267 N 
ATOM      2  C   UNL d   1      24.740 -17.300  -0.560  0.00  0.00     0.240 C 
ATOM      3  O   UNL d   1      25.325 -18.335  -0.223  0.00  0.00    -0.272 OA
ATOM      4  H   UNL d   1      25.017 -15.099  -0.546  0.00  0.00     0.190 HD
ENDROOT
BRANCH   1   5
ATOM      5  N   UNL d   1      27.011 -15.855  -0.009  0.00  0.00    -0.263 N 
ATOM      6  C   UNL d   1      28.122 -16.286  -0.839  0.00  0.00     0.270 C 
ATOM      7  O   UNL d   1      27.945 -16.636  -2.007  0.00  0.00    -0.266 OA
ATOM      8  H   UNL d   1      27.133 -15.575   0.958  0.00  0.00     0.190 HD
BRANCH   6   9
ATOM      9  C   UNL d   1      29.604 -16.353  -0.278  0.00  0.00     0.033 A 
ATOM     10  C   UNL d   1      30.073 -15.471   0.745  0.00  0.00     0.020 A 
ATOM     11  C   UNL d   1      31.431 -15.471   1.204  0.00  0.00     0.038 A 
ATOM     12  C   UNL d   1      32.372 -16.346   0.663  0.00  0.00     0.068 A 
ATOM     13  C   UNL d   1      31.919 -17.251  -0.296  0.00  0.00     0.038 A 
ATOM     14  C   UNL d   1      30.565 -17.251  -0.758  0.00  0.00     0.020 A 
BRANCH  12  15
ATOM     15  O   UNL d   1      33.644 -16.303   1.186  0.00  0.00    -0.352 OA
BRANCH  15  16
ATOM     16  C   UNL d   1      33.845 -16.915   2.470  0.00  0.00     0.171 C 
ATOM     17  C   UNL d   1      33.591 -18.419   2.384  0.00  0.00     0.034 C 
ENDBRANCH  15  16
ENDBRANCH  12  15
ENDBRANCH   6   9
ENDBRANCH   1   5
BRANCH   2  18
ATOM     18  C   UNL d   1      23.061 -17.281  -1.151  0.00  0.00     0.141 C 
BRANCH  18  19
ATOM     19  C   UNL d   1      21.727 -18.195  -0.518  0.00  0.00    -0.039 C 
ATOM     20  C   UNL d   1      21.239 -19.092  -1.498  0.00  0.00     0.113 C 
ATOM     21  N   UNL d   1      19.905 -18.771  -1.270  0.00  0.00    -0.282 NA
ATOM     22  C   UNL d   1      19.679 -19.321  -0.033  0.00  0.00     0.021 A 
ATOM     23  H   UNL d   1      19.492 -17.861  -1.431  0.00  0.00     0.128 HD
ATOM     24  C   UNL d   1      18.592 -20.108   0.297  0.00  0.00     0.048 A 
ATOM     25  C   UNL d   1      20.834 -18.953   0.715  0.00  0.00    -0.010 A 
ATOM     26  C   UNL d   1      18.453 -20.764   1.482  0.00  0.00     0.035 A 
ATOM     27 CL   UNL d   1      17.097 -21.811   1.702  0.00  0.00    -0.084 Cl
ATOM     28  C   UNL d   1      19.479 -20.540   2.384  0.00  0.00     0.025 A 
ATOM     29  C   UNL d   1      20.654 -19.624   2.050  0.00  0.00     0.015 A 
ENDBRANCH  18  19
ENDBRANCH   2  18
TORSDOF 6
ENDMDL
MODEL 2
REMARK VINA RESULT:   -26.688      1.580      2.077
REMARK INTER + INTRA:         -29.372
REMARK INTER:                 -28.478
REMARK INTRA:                  -0.894
REMARK CONF_INDEPENDENT:        1.790
REMARK UNBOUND:                -0.894
REMARK  6 active torsions:
REMARK  status: ('A' for Active; 'I' for Inactive)
REMARK    1  A    between atoms: C_2  and  O_3 
REMARK    2  A    between atoms: O_3  and  C_4 
REMARK    3  A    between atoms: C_7  and  C_8 
REMARK       I    between atoms: C_8  and  N_10 
REMARK    4  A    between atoms: N_10  and  N_11 
REMARK       I    between atoms: N_11  and  C_12 
REMARK    5  A    between atoms: C_12  and  C_14 
REMARK    6  A    between atoms: C_14  and  C_15 
ROOT
ATOM      1  N   UNL d   1      25.275 -15.950  -0.127  0.00  0.00    -0.267 N 
ATOM      2  C   UNL d   1      24.684 -17.245  -0.557  0.00  0.00     0.240 C 
ATOM      3  O   UNL d   1      25.382 -18.263  -0.496  0.00  0.00    -0.272 OA
ATOM      4  H   UNL d   1      24.727 -15.108   0.033  0.00  0.00     0.190 HD
ENDROOT
BRANCH   1   5
ATOM      5  N   UNL d   1      26.800 -15.758   0.371  0.00  0.00    -0.263 N 
ATOM      6  C   UNL d   1      27.264 -14.545   1.020  0.00  0.00     0.270 C 
ATOM      7  O   UNL d   1      26.471 -13.668   1.370  0.00  0.00    -0.266 OA
ATOM      8  H   UNL d   1      27.437 -16.486   0.064  0.00  0.00     0.190 HD
BRANCH   6   9
ATOM      9  C   UNL d   1      28.805 -14.276   1.283  0.00  0.00     0.033 A 
ATOM     10  C   UNL d   1      29.786 -14.394   0.250  0.00  0.00     0.020 A 
ATOM     11  C   UNL d   1      31.190 -14.231   0.492  0.00  0.00     0.038 A 
ATOM     12  C   UNL d   1      31.668 -13.945   1.770  0.00  0.00     0.068 A 
ATOM     13  C   UNL d   1      30.721 -13.772   2.779  0.00  0.00     0.038 A 
ATOM     14  C   UNL d   1      29.321 -13.938   2.539  0.00  0.00     0.020 A 
BRANCH  12  15
ATOM     15  O   UNL d   1      33.026 -13.769   1.908  0.00  0.00    -0.352 OA
BRANCH  15  16
ATOM     16  C   UNL d   1      33.856 -14.931   1.751  0.00  0.00     0.171 C 
ATOM     17  C   UNL d   1      33.241 -16.122   2.485  0.00  0.00     0.034 C 
ENDBRANCH  15  16
ENDBRANCH  12  15
ENDBRANCH   6   9
ENDBRANCH   1   5
BRANCH   2  18
ATOM     18  C   UNL d   1      23.002 -17.254  -1.136  0.00  0.00     0.141 C 
BRANCH  18  19
ATOM     19  C   UNL d   1      21.690 -18.200  -0.503  0.00  0.00    -0.039 C 
ATOM     20  C   UNL d   1      21.252 -19.138  -1.468  0.00  0.00     0.113 C 
ATOM     21  N   UNL d   1      19.903 -18.860  -1.270  0.00  0.00    -0.282 NA
ATOM     22  C   UNL d   1      19.676 -19.388  -0.024  0.00  0.00     0.021 A 
ATOM     23  H   UNL d   1      19.461 -17.969  -1.460  0.00  0.00     0.128 HD
ATOM     24  C   UNL d   1      18.611 -20.205   0.307  0.00  0.00     0.048 A 
ATOM     25  C   UNL d   1      20.803 -18.960   0.734  0.00  0.00    -0.010 A 
ATOM     26  C   UNL d   1      18.476 -20.837   1.505  0.00  0.00     0.035 A 
ATOM     27 CL   UNL d   1      17.154 -21.926   1.729  0.00  0.00    -0.084 Cl
ATOM     28  C   UNL d   1      19.477 -20.554   2.419  0.00  0.00     0.025 A 
ATOM     29  C   UNL d   1      20.624 -19.605   2.082  0.00  0.00     0.015 A 
ENDBRANCH  18  19
ENDBRANCH   2  18
TORSDOF 6
ENDMDL
MODEL 3
REMARK VINA RESULT:   -26.576      1.135      1.236
REMARK INTER + INTRA:         -29.228
REMARK INTER:                 -28.365
REMARK INTRA:                  -0.862
REMARK CONF_INDEPENDENT:        1.790
REMARK UNBOUND:                -0.862
REMARK  6 active torsions:
REMARK  status: ('A' for Active; 'I' for Inactive)
REMARK    1  A    between atoms: C_2  and  O_3 
REMARK    2  A    between atoms: O_3  and  C_4 
REMARK    3  A    between atoms: C_7  and  C_8 
REMARK       I    between atoms: C_8  and  N_10 
REMARK    4  A    between atoms: N_10  and  N_11 
REMARK       I    between atoms: N_11  and  C_12 
REMARK    5  A    between atoms: C_12  and  C_14 
REMARK    6  A    between atoms: C_14  and  C_15 
ROOT
ATOM      1  N   UNL d   1      25.806 -16.718  -1.324  0.00  0.00    -0.267 N 
ATOM      2  C   UNL d   1      24.753 -17.404  -0.529  0.00  0.00     0.240 C 
ATOM      3  O   UNL d   1      25.081 -17.984   0.512  0.00  0.00    -0.272 OA
ATOM      4  H   UNL d   1      25.606 -16.067  -2.079  0.00  0.00     0.190 HD
ENDROOT
BRANCH   1   5
ATOM      5  N   UNL d   1      27.380 -16.717  -0.954  0.00  0.00    -0.263 N 
ATOM      6  C   UNL d   1      28.409 -16.370  -1.917  0.00  0.00     0.270 C 
ATOM      7  O   UNL d   1      28.116 -15.899  -3.018  0.00  0.00    -0.266 OA
ATOM      8  H   UNL d   1      27.597 -17.117  -0.048  0.00  0.00     0.190 HD
BRANCH   6   9
ATOM      9  C   UNL d   1      29.948 -16.606  -1.615  0.00  0.00     0.033 A 
ATOM     10  C   UNL d   1      30.807 -15.553  -1.172  0.00  0.00     0.020 A 
ATOM     11  C   UNL d   1      32.215 -15.736  -0.971  0.00  0.00     0.038 A 
ATOM     12  C   UNL d   1      32.819 -16.971  -1.203  0.00  0.00     0.068 A 
ATOM     13  C   UNL d   1      31.986 -18.023  -1.582  0.00  0.00     0.038 A 
ATOM     14  C   UNL d   1      30.582 -17.842  -1.786  0.00  0.00     0.020 A 
BRANCH  12  15
ATOM     15  O   UNL d   1      34.168 -17.068  -0.951  0.00  0.00    -0.352 OA
BRANCH  15  16
ATOM     16  C   UNL d   1      34.565 -17.800   0.220  0.00  0.00     0.171 C 
ATOM     17  C   UNL d   1      33.577 -17.550   1.358  0.00  0.00     0.034 C 
ENDBRANCH  15  16
ENDBRANCH  12  15
ENDBRANCH   6   9
ENDBRANCH   1   5
BRANCH   2  18
ATOM     18  C   UNL d   1      23.078 -17.349  -1.125  0.00  0.00     0.141 C 
BRANCH  18  19
ATOM     19  C   UNL d   1      21.721 -18.232  -0.495  0.00  0.00    -0.039 C 
ATOM     20  C   UNL d   1      21.238 -19.146  -1.461  0.00  0.00     0.113 C 
ATOM     21  N   UNL d   1      19.905 -18.803  -1.264  0.00  0.00    -0.282 NA
ATOM     22  C   UNL d   1      19.651 -19.321  -0.018  0.00  0.00     0.021 A 
ATOM     23  H   UNL d   1      19.506 -17.892  -1.452  0.00  0.00     0.128 HD
ATOM     24  C   UNL d   1      18.548 -20.087   0.312  0.00  0.00     0.048 A 
ATOM     25  C   UNL d   1      20.798 -18.950   0.740  0.00  0.00    -0.010 A 
ATOM     26  C   UNL d   1      18.382 -20.713   1.509  0.00  0.00     0.035 A 
ATOM     27 CL   UNL d   1      17.009 -21.737   1.730  0.00  0.00    -0.084 Cl
ATOM     28  C   UNL d   1      19.396 -20.481   2.423  0.00  0.00     0.025 A 
ATOM     29  C   UNL d   1      20.588 -19.588   2.087  0.00  0.00     0.015 A 
ENDBRANCH  18  19
ENDBRANCH   2  18
TORSDOF 6
ENDMDL
