MODEL 1
REMARK VINA RESULT:    -8.029      0.000      0.000
REMARK INTER + INTRA:         -11.546
REMARK INTER:                  -9.819
REMARK INTRA:                  -1.727
REMARK CONF_INDEPENDENT:        1.790
REMARK UNBOUND:                -1.727
REMARK  6 active torsions:
REMARK  status: ('A' for Active; 'I' for Inactive)
REMARK    1  A    between atoms: O_2  and  C_3 
REMARK    2  A    between atoms: C_3  and  C_5 
REMARK    3  A    between atoms: C_8  and  C_9 
REMARK       I    between atoms: C_9  and  N_11 
REMARK    4  A    between atoms: N_11  and  N_12 
REMARK       I    between atoms: N_12  and  C_13 
REMARK    5  A    between atoms: C_13  and  C_15 
REMARK    6  A    between atoms: C_15  and  C_16 
ROOT
ATOM      1  C   UNL d   1      25.617 -16.538  -1.218  0.00  0.00     0.270 C 
ATOM      2  O   UNL d   1      26.399 -16.339  -0.289  0.00  0.00    -0.266 OA
ATOM      3  N   UNL d   1      25.944 -16.194  -2.524  0.00  0.00    -0.263 N 
ATOM      4  H   UNL d   1      25.351 -16.352  -3.335  0.00  0.00     0.190 HD
ENDROOT
BRANCH   3   5
ATOM      5  N   UNL d   1      27.212 -15.613  -2.827  0.00  0.00    -0.267 N 
ATOM      6  C   UNL d   1      27.477 -15.318  -4.156  0.00  0.00     0.240 C 
ATOM      7  O   UNL d   1      26.632 -15.576  -5.019  0.00  0.00    -0.272 OA
ATOM      8  H   UNL d   1      27.842 -15.438  -2.046  0.00  0.00     0.190 HD
BRANCH   6   9
ATOM      9  C   UNL d   1      28.854 -14.689  -4.471  0.00  0.00     0.143 C 
BRANCH   9  10
ATOM     10  C   UNL d   1      29.757 -15.663  -5.218  0.00  0.00    -0.049 A 
ATOM     11  C   UNL d   1      30.241 -15.393  -6.509  0.00  0.00     0.009 A 
ATOM     12  C   UNL d   1      30.818 -16.418  -7.271  0.00  0.00     0.024 A 
ATOM     13  C   UNL d   1      30.999 -17.685  -6.716  0.00  0.00     0.034 A 
ATOM     14 CL   UNL d   1      31.759 -18.926  -7.635  0.00  0.00    -0.084 Cl
ATOM     15  C   UNL d   1      30.590 -17.944  -5.413  0.00  0.00     0.024 A 
ATOM     16  C   UNL d   1      29.986 -16.934  -4.664  0.00  0.00     0.009 A 
ENDBRANCH   9  10
ENDBRANCH   6   9
ENDBRANCH   3   5
BRANCH   1  17
ATOM     17  C   UNL d   1      24.278 -17.209  -0.962  0.00  0.00     0.033 A 
ATOM     18  C   UNL d   1      24.249 -18.584  -0.654  0.00  0.00     0.018 A 
ATOM     19  C   UNL d   1      23.029 -19.282  -0.521  0.00  0.00     0.018 A 
ATOM     20  C   UNL d   1      21.806 -18.606  -0.627  0.00  0.00     0.039 A 
ATOM     21  C   UNL d   1      21.824 -17.234  -0.895  0.00  0.00     0.018 A 
ATOM     22  C   UNL d   1      23.046 -16.544  -1.057  0.00  0.00     0.018 A 
BRANCH  20  23
ATOM     23  C   UNL d   1      20.538 -19.321  -0.303  0.00  0.00     0.292 C 
ATOM     24  O   UNL d   1      19.759 -19.700  -1.174  0.00  0.00    -0.259 OA
BRANCH  23  25
ATOM     25  O   UNL d   1      20.369 -19.488   1.033  0.00  0.00    -0.323 OA
ATOM     26  C   UNL d   1      19.357 -20.448   1.386  0.00  0.00     0.213 C 
ENDBRANCH  23  25
ENDBRANCH  20  23
ENDBRANCH   1  17
TORSDOF 6
ENDMDL
MODEL 2
REMARK VINA RESULT:    -7.754      5.417      6.908
REMARK INTER + INTRA:         -11.227
REMARK INTER:                  -9.544
REMARK INTRA:                  -1.684
REMARK CONF_INDEPENDENT:        1.790
REMARK UNBOUND:                -1.684
REMARK  6 active torsions:
REMARK  status: ('A' for Active; 'I' for Inactive)
REMARK    1  A    between atoms: O_2  and  C_3 
REMARK    2  A    between atoms: C_3  and  C_5 
REMARK    3  A    between atoms: C_8  and  C_9 
REMARK       I    between atoms: C_9  and  N_11 
REMARK    4  A    between atoms: N_11  and  N_12 
REMARK       I    between atoms: N_12  and  C_13 
REMARK    5  A    between atoms: C_13  and  C_15 
REMARK    6  A    between atoms: C_15  and  C_16 
ROOT
ATOM      1  C   UNL d   1      25.803 -16.900  -0.141  0.00  0.00     0.270 C 
ATOM      2  O   UNL d   1      26.831 -17.564  -0.268  0.00  0.00    -0.266 OA
ATOM      3  N   UNL d   1      25.846 -15.564   0.239  0.00  0.00    -0.263 N 
ATOM      4  H   UNL d   1      25.034 -14.960   0.340  0.00  0.00     0.190 HD
ENDROOT
BRANCH   3   5
ATOM      5  N   UNL d   1      27.096 -14.916   0.475  0.00  0.00    -0.267 N 
ATOM      6  C   UNL d   1      27.064 -13.681   1.106  0.00  0.00     0.240 C 
ATOM      7  O   UNL d   1      25.978 -13.186   1.424  0.00  0.00    -0.272 OA
ATOM      8  H   UNL d   1      27.937 -15.405   0.176  0.00  0.00     0.190 HD
BRANCH   6   9
ATOM      9  C   UNL d   1      28.424 -12.989   1.357  0.00  0.00     0.143 C 
BRANCH   9  10
ATOM     10  C   UNL d   1      28.844 -13.093   2.818  0.00  0.00    -0.049 A 
ATOM     11  C   UNL d   1      29.869 -13.954   3.241  0.00  0.00     0.009 A 
ATOM     12  C   UNL d   1      30.030 -14.238   4.604  0.00  0.00     0.024 A 
ATOM     13  C   UNL d   1      29.235 -13.594   5.551  0.00  0.00     0.034 A 
ATOM     14 CL   UNL d   1      29.472 -13.902   7.228  0.00  0.00    -0.084 Cl
ATOM     15  C   UNL d   1      28.264 -12.684   5.148  0.00  0.00     0.024 A 
ATOM     16  C   UNL d   1      28.081 -12.424   3.790  0.00  0.00     0.009 A 
ENDBRANCH   9  10
ENDBRANCH   6   9
ENDBRANCH   3   5
BRANCH   1  17
ATOM     17  C   UNL d   1      24.449 -17.523  -0.439  0.00  0.00     0.033 A 
ATOM     18  C   UNL d   1      23.356 -16.681  -0.726  0.00  0.00     0.018 A 
ATOM     19  C   UNL d   1      22.053 -17.199  -0.895  0.00  0.00     0.018 A 
ATOM     20  C   UNL d   1      21.824 -18.581  -0.846  0.00  0.00     0.039 A 
ATOM     21  C   UNL d   1      22.909 -19.429  -0.600  0.00  0.00     0.018 A 
ATOM     22  C   UNL d   1      24.206 -18.905  -0.402  0.00  0.00     0.018 A 
BRANCH  20  23
ATOM     23  C   UNL d   1      20.481 -19.119  -1.208  0.00  0.00     0.292 C 
ATOM     24  O   UNL d   1      20.272 -19.700  -2.270  0.00  0.00    -0.259 OA
BRANCH  23  25
ATOM     25  O   UNL d   1      19.558 -18.887  -0.242  0.00  0.00    -0.323 OA
ATOM     26  C   UNL d   1      19.003 -20.079   0.344  0.00  0.00     0.213 C 
ENDBRANCH  23  25
ENDBRANCH  20  23
ENDBRANCH   1  17
TORSDOF 6
ENDMDL
MODEL 3
REMARK VINA RESULT:    -7.660      2.676      3.349
REMARK INTER + INTRA:         -11.152
REMARK INTER:                  -9.449
REMARK INTRA:                  -1.703
REMARK CONF_INDEPENDENT:        1.790
REMARK UNBOUND:                -1.703
REMARK  6 active torsions:
REMARK  status: ('A' for Active; 'I' for Inactive)
REMARK    1  A    between atoms: O_2  and  C_3 
REMARK    2  A    between atoms: C_3  and  C_5 
REMARK    3  A    between atoms: C_8  and  C_9 
REMARK       I    between atoms: C_9  and  N_11 
REMARK    4  A    between atoms: N_11  and  N_12 
REMARK       I    between atoms: N_12  and  C_13 
REMARK    5  A    between atoms: C_13  and  C_15 
REMARK    6  A    between atoms: C_15  and  C_16 
ROOT
ATOM      1  C   UNL d   1      25.571 -16.112  -1.496  0.00  0.00     0.270 C 
ATOM      2  O   UNL d   1      26.300 -15.687  -0.601  0.00  0.00    -0.266 OA
ATOM      3  N   UNL d   1      25.885 -15.923  -2.836  0.00  0.00    -0.263 N 
ATOM      4  H   UNL d   1      25.335 -16.268  -3.619  0.00  0.00     0.190 HD
ENDROOT
BRANCH   3   5
ATOM      5  N   UNL d   1      27.082 -15.241  -3.212  0.00  0.00    -0.267 N 
ATOM      6  C   UNL d   1      27.336 -15.103  -4.569  0.00  0.00     0.240 C 
ATOM      7  O   UNL d   1      26.545 -15.575  -5.391  0.00  0.00    -0.272 OA
ATOM      8  H   UNL d   1      27.671 -14.887  -2.462  0.00  0.00     0.190 HD
BRANCH   6   9
ATOM      9  C   UNL d   1      28.635 -14.362  -4.964  0.00  0.00     0.143 C 
BRANCH   9  10
ATOM     10  C   UNL d   1      28.379 -13.319  -6.044  0.00  0.00    -0.049 A 
ATOM     11  C   UNL d   1      27.486 -12.252  -5.855  0.00  0.00     0.009 A 
ATOM     12  C   UNL d   1      27.058 -11.491  -6.952  0.00  0.00     0.024 A 
ATOM     13  C   UNL d   1      27.590 -11.730  -8.219  0.00  0.00     0.034 A 
ATOM     14 CL   UNL d   1      27.106 -10.757  -9.554  0.00  0.00    -0.084 Cl
ATOM     15  C   UNL d   1      28.531 -12.737  -8.405  0.00  0.00     0.024 A 
ATOM     16  C   UNL d   1      28.933 -13.516  -7.320  0.00  0.00     0.009 A 
ENDBRANCH   9  10
ENDBRANCH   6   9
ENDBRANCH   3   5
BRANCH   1  17
ATOM     17  C   UNL d   1      24.316 -16.897  -1.153  0.00  0.00     0.033 A 
ATOM     18  C   UNL d   1      24.423 -18.275  -0.879  0.00  0.00     0.018 A 
ATOM     19  C   UNL d   1      23.279 -19.075  -0.669  0.00  0.00     0.018 A 
ATOM     20  C   UNL d   1      22.000 -18.501  -0.662  0.00  0.00     0.039 A 
ATOM     21  C   UNL d   1      21.884 -17.127  -0.895  0.00  0.00     0.018 A 
ATOM     22  C   UNL d   1      23.030 -16.335  -1.134  0.00  0.00     0.018 A 
BRANCH  20  23
ATOM     23  C   UNL d   1      20.824 -19.325  -0.258  0.00  0.00     0.292 C 
ATOM     24  O   UNL d   1      20.114 -19.899  -1.079  0.00  0.00    -0.259 OA
BRANCH  23  25
ATOM     25  O   UNL d   1      20.655 -19.353   1.088  0.00  0.00    -0.323 OA
ATOM     26  C   UNL d   1      19.560 -20.176   1.529  0.00  0.00     0.213 C 
ENDBRANCH  23  25
ENDBRANCH  20  23
ENDBRANCH   1  17
TORSDOF 6
ENDMDL
MODEL 4
REMARK VINA RESULT:    -7.374      7.066      9.726
REMARK INTER + INTRA:         -10.744
REMARK INTER:                  -9.164
REMARK INTRA:                  -1.580
REMARK CONF_INDEPENDENT:        1.790
REMARK UNBOUND:                -1.580
REMARK  6 active torsions:
REMARK  status: ('A' for Active; 'I' for Inactive)
REMARK    1  A    between atoms: O_2  and  C_3 
REMARK    2  A    between atoms: C_3  and  C_5 
REMARK    3  A    between atoms: C_8  and  C_9 
REMARK       I    between atoms: C_9  and  N_11 
REMARK    4  A    between atoms: N_11  and  N_12 
REMARK       I    between atoms: N_12  and  C_13 
REMARK    5  A    between atoms: C_13  and  C_15 
REMARK    6  A    between atoms: C_15  and  C_16 
ROOT
ATOM      1  C   UNL d   1      27.402 -13.707   3.212  0.00  0.00     0.270 C 
ATOM      2  O   UNL d   1      26.683 -12.789   2.818  0.00  0.00    -0.266 OA
ATOM      3  N   UNL d   1      27.673 -14.808   2.410  0.00  0.00    -0.263 N 
ATOM      4  H   UNL d   1      28.275 -15.586   2.671  0.00  0.00     0.190 HD
ENDROOT
BRANCH   3   5
ATOM      5  N   UNL d   1      27.137 -14.895   1.089  0.00  0.00    -0.267 N 
ATOM      6  C   UNL d   1      27.029 -16.159   0.528  0.00  0.00     0.240 C 
ATOM      7  O   UNL d   1      27.405 -17.146   1.168  0.00  0.00    -0.272 OA
ATOM      8  H   UNL d   1      26.855 -14.025   0.644  0.00  0.00     0.190 HD
BRANCH   6   9
ATOM      9  C   UNL d   1      26.447 -16.240  -0.902  0.00  0.00     0.143 C 
BRANCH   9  10
ATOM     10  C   UNL d   1      25.103 -16.959  -0.919  0.00  0.00    -0.049 A 
ATOM     11  C   UNL d   1      23.898 -16.284  -1.171  0.00  0.00     0.009 A 
ATOM     12  C   UNL d   1      22.673 -16.907  -0.895  0.00  0.00     0.024 A 
ATOM     13  C   UNL d   1      22.645 -18.232  -0.459  0.00  0.00     0.034 A 
ATOM     14 CL   UNL d   1      21.137 -19.013  -0.175  0.00  0.00    -0.084 Cl
ATOM     15  C   UNL d   1      23.830 -18.935  -0.276  0.00  0.00     0.024 A 
ATOM     16  C   UNL d   1      25.051 -18.306  -0.520  0.00  0.00     0.009 A 
ENDBRANCH   9  10
ENDBRANCH   6   9
ENDBRANCH   3   5
BRANCH   1  17
ATOM     17  C   UNL d   1      28.048 -13.637   4.586  0.00  0.00     0.033 A 
ATOM     18  C   UNL d   1      27.784 -12.526   5.411  0.00  0.00     0.018 A 
ATOM     19  C   UNL d   1      28.447 -12.353   6.646  0.00  0.00     0.018 A 
ATOM     20  C   UNL d   1      29.342 -13.324   7.117  0.00  0.00     0.039 A 
ATOM     21  C   UNL d   1      29.582 -14.450   6.323  0.00  0.00     0.018 A 
ATOM     22  C   UNL d   1      28.940 -14.605   5.074  0.00  0.00     0.018 A 
BRANCH  20  23
ATOM     23  C   UNL d   1      29.889 -13.213   8.500  0.00  0.00     0.292 C 
ATOM     24  O   UNL d   1      30.974 -13.696   8.815  0.00  0.00    -0.259 OA
BRANCH  23  25
ATOM     25  O   UNL d   1      29.057 -12.534   9.328  0.00  0.00    -0.323 OA
ATOM     26  C   UNL d   1      28.197 -13.373  10.120  0.00  0.00     0.213 C 
ENDBRANCH  23  25
ENDBRANCH  20  23
ENDBRANCH   1  17
TORSDOF 6
ENDMDL
MODEL 5
REMARK VINA RESULT:    -7.232      7.703      9.863
REMARK INTER + INTRA:         -10.656
REMARK INTER:                  -9.022
REMARK INTRA:                  -1.634
REMARK CONF_INDEPENDENT:        1.790
REMARK UNBOUND:                -1.634
REMARK  6 active torsions:
REMARK  status: ('A' for Active; 'I' for Inactive)
REMARK    1  A    between atoms: O_2  and  C_3 
REMARK    2  A    between atoms: C_3  and  C_5 
REMARK    3  A    between atoms: C_8  and  C_9 
REMARK       I    between atoms: C_9  and  N_11 
REMARK    4  A    between atoms: N_11  and  N_12 
REMARK       I    between atoms: N_12  and  C_13 
REMARK    5  A    between atoms: C_13  and  C_15 
REMARK    6  A    between atoms: C_15  and  C_16 
ROOT
ATOM      1  C   UNL d   1      29.318 -14.305   4.143  0.00  0.00     0.270 C 
ATOM      2  O   UNL d   1      30.380 -14.825   3.803  0.00  0.00    -0.266 OA
ATOM      3  N   UNL d   1      28.220 -14.281   3.293  0.00  0.00    -0.263 N 
ATOM      4  H   UNL d   1      27.311 -13.886   3.524  0.00  0.00     0.190 HD
ENDROOT
BRANCH   3   5
ATOM      5  N   UNL d   1      28.289 -14.879   1.999  0.00  0.00    -0.267 N 
ATOM      6  C   UNL d   1      27.320 -14.514   1.076  0.00  0.00     0.240 C 
ATOM      7  O   UNL d   1      26.439 -13.712   1.399  0.00  0.00    -0.272 OA
ATOM      8  H   UNL d   1      29.054 -15.528   1.827  0.00  0.00     0.190 HD
BRANCH   6   9
ATOM      9  C   UNL d   1      27.407 -15.168  -0.323  0.00  0.00     0.143 C 
BRANCH   9  10
ATOM     10  C   UNL d   1      26.283 -16.174  -0.541  0.00  0.00    -0.049 A 
ATOM     11  C   UNL d   1      25.165 -15.883  -1.340  0.00  0.00     0.009 A 
ATOM     12  C   UNL d   1      24.030 -16.703  -1.284  0.00  0.00     0.024 A 
ATOM     13  C   UNL d   1      24.042 -17.862  -0.509  0.00  0.00     0.034 A 
ATOM     14 CL   UNL d   1      22.667 -18.898  -0.486  0.00  0.00    -0.084 Cl
ATOM     15  C   UNL d   1      25.171 -18.200   0.230  0.00  0.00     0.024 A 
ATOM     16  C   UNL d   1      26.290 -17.367   0.201  0.00  0.00     0.009 A 
ENDBRANCH   9  10
ENDBRANCH   6   9
ENDBRANCH   3   5
BRANCH   1  17
ATOM     17  C   UNL d   1      29.169 -13.708   5.533  0.00  0.00     0.033 A 
ATOM     18  C   UNL d   1      29.874 -14.287   6.607  0.00  0.00     0.018 A 
ATOM     19  C   UNL d   1      29.683 -13.846   7.935  0.00  0.00     0.018 A 
ATOM     20  C   UNL d   1      28.832 -12.769   8.212  0.00  0.00     0.039 A 
ATOM     21  C   UNL d   1      28.156 -12.161   7.149  0.00  0.00     0.018 A 
ATOM     22  C   UNL d   1      28.327 -12.624   5.825  0.00  0.00     0.018 A 
BRANCH  20  23
ATOM     23  C   UNL d   1      28.785 -12.202   9.591  0.00  0.00     0.292 C 
ATOM     24  O   UNL d   1      29.635 -11.418  10.006  0.00  0.00    -0.259 OA
BRANCH  23  25
ATOM     25  O   UNL d   1      27.717 -12.653  10.296  0.00  0.00    -0.323 OA
ATOM     26  C   UNL d   1      27.830 -14.021  10.728  0.00  0.00     0.213 C 
ENDBRANCH  23  25
ENDBRANCH  20  23
ENDBRANCH   1  17
TORSDOF 6
ENDMDL
MODEL 6
REMARK VINA RESULT:    -7.110      5.058      9.454
REMARK INTER + INTRA:         -10.677
REMARK INTER:                  -8.900
REMARK INTRA:                  -1.777
REMARK CONF_INDEPENDENT:        1.790
REMARK UNBOUND:                -1.777
REMARK  6 active torsions:
REMARK  status: ('A' for Active; 'I' for Inactive)
REMARK    1  A    between atoms: O_2  and  C_3 
REMARK    2  A    between atoms: C_3  and  C_5 
REMARK    3  A    between atoms: C_8  and  C_9 
REMARK       I    between atoms: C_9  and  N_11 
REMARK    4  A    between atoms: N_11  and  N_12 
REMARK       I    between atoms: N_12  and  C_13 
REMARK    5  A    between atoms: C_13  and  C_15 
REMARK    6  A    between atoms: C_15  and  C_16 
ROOT
ATOM      1  C   UNL d   1      25.531 -13.635  -3.873  0.00  0.00     0.270 C 
ATOM      2  O   UNL d   1      25.101 -14.467  -4.671  0.00  0.00    -0.266 OA
ATOM      3  N   UNL d   1      25.902 -13.995  -2.583  0.00  0.00    -0.263 N 
ATOM      4  H   UNL d   1      26.283 -13.358  -1.887  0.00  0.00     0.190 HD
ENDROOT
BRANCH   3   5
ATOM      5  N   UNL d   1      25.811 -15.353  -2.152  0.00  0.00    -0.267 N 
ATOM      6  C   UNL d   1      26.143 -15.626  -0.833  0.00  0.00     0.240 C 
ATOM      7  O   UNL d   1      26.512 -14.709  -0.093  0.00  0.00    -0.272 OA
ATOM      8  H   UNL d   1      25.496 -16.037  -2.836  0.00  0.00     0.190 HD
BRANCH   6   9
ATOM      9  C   UNL d   1      26.039 -17.100  -0.378  0.00  0.00     0.143 C 
BRANCH   9  10
ATOM     10  C   UNL d   1      24.590 -17.564  -0.310  0.00  0.00    -0.049 A 
ATOM     11  C   UNL d   1      24.244 -18.921  -0.192  0.00  0.00     0.009 A 
ATOM     12  C   UNL d   1      22.925 -19.332  -0.423  0.00  0.00     0.024 A 
ATOM     13  C   UNL d   1      21.932 -18.386  -0.676  0.00  0.00     0.034 A 
ATOM     14 CL   UNL d   1      20.301 -18.889  -0.903  0.00  0.00    -0.084 Cl
ATOM     15  C   UNL d   1      22.248 -17.033  -0.722  0.00  0.00     0.024 A 
ATOM     16  C   UNL d   1      23.567 -16.624  -0.525  0.00  0.00     0.009 A 
ENDBRANCH   9  10
ENDBRANCH   6   9
ENDBRANCH   3   5
BRANCH   1  17
ATOM     17  C   UNL d   1      25.706 -12.187  -4.298  0.00  0.00     0.033 A 
ATOM     18  C   UNL d   1      25.858 -11.196  -3.308  0.00  0.00     0.018 A 
ATOM     19  C   UNL d   1      25.907  -9.825  -3.641  0.00  0.00     0.018 A 
ATOM     20  C   UNL d   1      25.873  -9.415  -4.981  0.00  0.00     0.039 A 
ATOM     21  C   UNL d   1      25.761 -10.393  -5.974  0.00  0.00     0.018 A 
ATOM     22  C   UNL d   1      25.682 -11.763  -5.636  0.00  0.00     0.018 A 
BRANCH  20  23
ATOM     23  C   UNL d   1      26.110  -7.982  -5.320  0.00  0.00     0.292 C 
ATOM     24  O   UNL d   1      27.096  -7.369  -4.918  0.00  0.00    -0.259 OA
BRANCH  23  25
ATOM     25  O   UNL d   1      25.128  -7.470  -6.103  0.00  0.00    -0.323 OA
ATOM     26  C   UNL d   1      23.796  -7.725  -5.621  0.00  0.00     0.213 C 
ENDBRANCH  23  25
ENDBRANCH  20  23
ENDBRANCH   1  17
TORSDOF 6
ENDMDL
MODEL 7
REMARK VINA RESULT:    -6.968      4.079      9.641
REMARK INTER + INTRA:         -10.505
REMARK INTER:                  -8.758
REMARK INTRA:                  -1.747
REMARK CONF_INDEPENDENT:        1.790
REMARK UNBOUND:                -1.747
REMARK  6 active torsions:
REMARK  status: ('A' for Active; 'I' for Inactive)
REMARK    1  A    between atoms: O_2  and  C_3 
REMARK    2  A    between atoms: C_3  and  C_5 
REMARK    3  A    between atoms: C_8  and  C_9 
REMARK       I    between atoms: C_9  and  N_11 
REMARK    4  A    between atoms: N_11  and  N_12 
REMARK       I    between atoms: N_12  and  C_13 
REMARK    5  A    between atoms: C_13  and  C_15 
REMARK    6  A    between atoms: C_15  and  C_16 
ROOT
ATOM      1  C   UNL d   1      26.311 -14.776  -4.063  0.00  0.00     0.270 C 
ATOM      2  O   UNL d   1      25.088 -14.646  -4.100  0.00  0.00    -0.266 OA
ATOM      3  N   UNL d   1      26.936 -15.447  -3.019  0.00  0.00    -0.263 N 
ATOM      4  H   UNL d   1      27.939 -15.604  -2.944  0.00  0.00     0.190 HD
ENDROOT
BRANCH   3   5
ATOM      5  N   UNL d   1      26.169 -16.025  -1.963  0.00  0.00    -0.267 N 
ATOM      6  C   UNL d   1      26.865 -16.630  -0.928  0.00  0.00     0.240 C 
ATOM      7  O   UNL d   1      28.099 -16.662  -0.957  0.00  0.00    -0.272 OA
ATOM      8  H   UNL d   1      25.156 -15.946  -2.028  0.00  0.00     0.190 HD
BRANCH   6   9
ATOM      9  C   UNL d   1      26.022 -17.252   0.210  0.00  0.00     0.143 C 
BRANCH   9  10
ATOM     10  C   UNL d   1      24.616 -17.601  -0.261  0.00  0.00    -0.049 A 
ATOM     11  C   UNL d   1      23.624 -16.623  -0.443  0.00  0.00     0.009 A 
ATOM     12  C   UNL d   1      22.284 -17.002  -0.592  0.00  0.00     0.024 A 
ATOM     13  C   UNL d   1      21.941 -18.352  -0.656  0.00  0.00     0.034 A 
ATOM     14 CL   UNL d   1      20.300 -18.815  -0.895  0.00  0.00    -0.084 Cl
ATOM     15  C   UNL d   1      22.924 -19.330  -0.550  0.00  0.00     0.024 A 
ATOM     16  C   UNL d   1      24.256 -18.955  -0.370  0.00  0.00     0.009 A 
ENDBRANCH   9  10
ENDBRANCH   6   9
ENDBRANCH   3   5
BRANCH   1  17
ATOM     17  C   UNL d   1      27.172 -14.233  -5.191  0.00  0.00     0.033 A 
ATOM     18  C   UNL d   1      27.028 -12.885  -5.576  0.00  0.00     0.018 A 
ATOM     19  C   UNL d   1      27.716 -12.360  -6.691  0.00  0.00     0.018 A 
ATOM     20  C   UNL d   1      28.619 -13.156  -7.410  0.00  0.00     0.039 A 
ATOM     21  C   UNL d   1      28.798 -14.485  -7.014  0.00  0.00     0.018 A 
ATOM     22  C   UNL d   1      28.085 -15.015  -5.915  0.00  0.00     0.018 A 
BRANCH  20  23
ATOM     23  C   UNL d   1      29.469 -12.535  -8.466  0.00  0.00     0.292 C 
ATOM     24  O   UNL d   1      29.146 -12.535  -9.651  0.00  0.00    -0.259 OA
BRANCH  23  25
ATOM     25  O   UNL d   1      30.604 -11.993  -7.958  0.00  0.00    -0.323 OA
ATOM     26  C   UNL d   1      31.816 -12.499  -8.546  0.00  0.00     0.213 C 
ENDBRANCH  23  25
ENDBRANCH  20  23
ENDBRANCH   1  17
TORSDOF 6
ENDMDL
MODEL 8
REMARK VINA RESULT:    -6.858      3.611      4.105
REMARK INTER + INTRA:         -10.454
REMARK INTER:                  -8.648
REMARK INTRA:                  -1.806
REMARK CONF_INDEPENDENT:        1.790
REMARK UNBOUND:                -1.806
REMARK  6 active torsions:
REMARK  status: ('A' for Active; 'I' for Inactive)
REMARK    1  A    between atoms: O_2  and  C_3 
REMARK    2  A    between atoms: C_3  and  C_5 
REMARK    3  A    between atoms: C_8  and  C_9 
REMARK       I    between atoms: C_9  and  N_11 
REMARK    4  A    between atoms: N_11  and  N_12 
REMARK       I    between atoms: N_12  and  C_13 
REMARK    5  A    between atoms: C_13  and  C_15 
REMARK    6  A    between atoms: C_15  and  C_16 
ROOT
ATOM      1  C   UNL d   1      26.097 -17.303  -0.140  0.00  0.00     0.270 C 
ATOM      2  O   UNL d   1      26.646 -17.488   0.945  0.00  0.00    -0.266 OA
ATOM      3  N   UNL d   1      26.808 -16.842  -1.242  0.00  0.00    -0.263 N 
ATOM      4  H   UNL d   1      26.415 -16.689  -2.168  0.00  0.00     0.190 HD
ENDROOT
BRANCH   3   5
ATOM      5  N   UNL d   1      28.209 -16.588  -1.147  0.00  0.00    -0.267 N 
ATOM      6  C   UNL d   1      28.849 -16.115  -2.284  0.00  0.00     0.240 C 
ATOM      7  O   UNL d   1      28.203 -15.947  -3.323  0.00  0.00    -0.272 OA
ATOM      8  H   UNL d   1      28.652 -16.757  -0.247  0.00  0.00     0.190 HD
BRANCH   6   9
ATOM      9  C   UNL d   1      30.367 -15.843  -2.169  0.00  0.00     0.143 C 
BRANCH   9  10
ATOM     10  C   UNL d   1      30.952 -16.462  -0.905  0.00  0.00    -0.049 A 
ATOM     11  C   UNL d   1      31.322 -15.684   0.205  0.00  0.00     0.009 A 
ATOM     12  C   UNL d   1      32.114 -16.240   1.219  0.00  0.00     0.024 A 
ATOM     13  C   UNL d   1      32.457 -17.591   1.177  0.00  0.00     0.034 A 
ATOM     14 CL   UNL d   1      33.382 -18.285   2.452  0.00  0.00    -0.084 Cl
ATOM     15  C   UNL d   1      32.034 -18.389   0.119  0.00  0.00     0.024 A 
ATOM     16  C   UNL d   1      31.273 -17.830  -0.907  0.00  0.00     0.009 A 
ENDBRANCH   9  10
ENDBRANCH   6   9
ENDBRANCH   3   5
BRANCH   1  17
ATOM     17  C   UNL d   1      24.619 -17.615  -0.314  0.00  0.00     0.033 A 
ATOM     18  C   UNL d   1      24.191 -18.956  -0.248  0.00  0.00     0.018 A 
ATOM     19  C   UNL d   1      22.851 -19.313  -0.516  0.00  0.00     0.018 A 
ATOM     20  C   UNL d   1      21.892 -18.329  -0.792  0.00  0.00     0.039 A 
ATOM     21  C   UNL d   1      22.299 -16.992  -0.823  0.00  0.00     0.018 A 
ATOM     22  C   UNL d   1      23.646 -16.640  -0.583  0.00  0.00     0.018 A 
BRANCH  20  23
ATOM     23  C   UNL d   1      20.453 -18.709  -0.891  0.00  0.00     0.292 C 
ATOM     24  O   UNL d   1      19.554 -17.872  -0.895  0.00  0.00    -0.259 OA
BRANCH  23  25
ATOM     25  O   UNL d   1      20.281 -20.052  -0.973  0.00  0.00    -0.323 OA
ATOM     26  C   UNL d   1      19.704 -20.647   0.203  0.00  0.00     0.213 C 
ENDBRANCH  23  25
ENDBRANCH  20  23
ENDBRANCH   1  17
TORSDOF 6
ENDMDL
MODEL 9
REMARK VINA RESULT:    -6.669      4.466      9.751
REMARK INTER + INTRA:         -10.160
REMARK INTER:                  -8.459
REMARK INTRA:                  -1.701
REMARK CONF_INDEPENDENT:        1.790
REMARK UNBOUND:                -1.701
REMARK  6 active torsions:
REMARK  status: ('A' for Active; 'I' for Inactive)
REMARK    1  A    between atoms: O_2  and  C_3 
REMARK    2  A    between atoms: C_3  and  C_5 
REMARK    3  A    between atoms: C_8  and  C_9 
REMARK       I    between atoms: C_9  and  N_11 
REMARK    4  A    between atoms: N_11  and  N_12 
REMARK       I    between atoms: N_12  and  C_13 
REMARK    5  A    between atoms: C_13  and  C_15 
REMARK    6  A    between atoms: C_15  and  C_16 
ROOT
ATOM      1  C   UNL d   1      26.625 -14.530  -4.678  0.00  0.00     0.270 C 
ATOM      2  O   UNL d   1      26.669 -15.575  -5.326  0.00  0.00    -0.266 OA
ATOM      3  N   UNL d   1      26.468 -14.540  -3.298  0.00  0.00    -0.263 N 
ATOM      4  H   UNL d   1      26.445 -13.713  -2.707  0.00  0.00     0.190 HD
ENDROOT
BRANCH   3   5
ATOM      5  N   UNL d   1      26.372 -15.774  -2.587  0.00  0.00    -0.267 N 
ATOM      6  C   UNL d   1      26.089 -15.708  -1.231  0.00  0.00     0.240 C 
ATOM      7  O   UNL d   1      25.946 -14.607  -0.690  0.00  0.00    -0.272 OA
ATOM      8  H   UNL d   1      26.506 -16.630  -3.121  0.00  0.00     0.190 HD
BRANCH   6   9
ATOM      9  C   UNL d   1      25.988 -17.051  -0.471  0.00  0.00     0.143 C 
BRANCH   9  10
ATOM     10  C   UNL d   1      24.546 -17.533  -0.377  0.00  0.00    -0.049 A 
ATOM     11  C   UNL d   1      24.220 -18.892  -0.233  0.00  0.00     0.009 A 
ATOM     12  C   UNL d   1      22.903 -19.324  -0.441  0.00  0.00     0.024 A 
ATOM     13  C   UNL d   1      21.894 -18.396  -0.697  0.00  0.00     0.034 A 
ATOM     14 CL   UNL d   1      20.268 -18.924  -0.895  0.00  0.00    -0.084 Cl
ATOM     15  C   UNL d   1      22.192 -17.039  -0.769  0.00  0.00     0.024 A 
ATOM     16  C   UNL d   1      23.508 -16.610  -0.595  0.00  0.00     0.009 A 
ENDBRANCH   9  10
ENDBRANCH   6   9
ENDBRANCH   3   5
BRANCH   1  17
ATOM     17  C   UNL d   1      26.782 -13.190  -5.377  0.00  0.00     0.033 A 
ATOM     18  C   UNL d   1      25.878 -12.151  -5.079  0.00  0.00     0.018 A 
ATOM     19  C   UNL d   1      25.906 -10.927  -5.782  0.00  0.00     0.018 A 
ATOM     20  C   UNL d   1      26.884 -10.687  -6.757  0.00  0.00     0.039 A 
ATOM     21  C   UNL d   1      27.810 -11.697  -7.034  0.00  0.00     0.018 A 
ATOM     22  C   UNL d   1      27.761 -12.932  -6.350  0.00  0.00     0.018 A 
BRANCH  20  23
ATOM     23  C   UNL d   1      27.011  -9.327  -7.355  0.00  0.00     0.292 C 
ATOM     24  O   UNL d   1      26.096  -8.508  -7.320  0.00  0.00    -0.259 OA
BRANCH  23  25
ATOM     25  O   UNL d   1      28.227  -9.126  -7.921  0.00  0.00    -0.323 OA
ATOM     26  C   UNL d   1      28.269  -9.379  -9.337  0.00  0.00     0.213 C 
ENDBRANCH  23  25
ENDBRANCH  20  23
ENDBRANCH   1  17
TORSDOF 6
ENDMDL
