MODEL 1
REMARK VINA RESULT:   -10.099      0.000      0.000
REMARK INTER + INTRA:         -12.508
REMARK INTER:                 -11.889
REMARK INTRA:                  -0.619
REMARK CONF_INDEPENDENT:        1.790
REMARK UNBOUND:                -0.619
REMARK  6 active torsions:
REMARK  status: ('A' for Active; 'I' for Inactive)
REMARK    1  A    between atoms: C_3  and  N_4 
REMARK       I    between atoms: N_4  and  C_5 
REMARK    2  A    between atoms: C_5  and  C_7 
REMARK    3  A    between atoms: C_7  and  C_8 
REMARK    4  A    between atoms: C_11  and  N_12 
REMARK       I    between atoms: N_12  and  C_13 
REMARK       I    between atoms: C_13  and  N_15 
REMARK    5  A    between atoms: N_15  and  C_16 
REMARK    6  A    between atoms: N_25  and  C_26 
ROOT
ATOM      1  N   UNL d   1      28.765 -14.835   2.446  0.00  0.00    -0.321 N 
ATOM      2  C   UNL d   1      27.934 -15.024   1.373  0.00  0.00     0.228 C 
ATOM      3  O   UNL d   1      27.013 -14.219   1.266  0.00  0.00    -0.273 OA
ATOM      4  H   UNL d   1      29.555 -15.459   2.605  0.00  0.00     0.169 HD
ENDROOT
BRANCH   2   5
ATOM      5  C   UNL d   1      28.008 -16.103   0.272  0.00  0.00     0.163 C 
BRANCH   5   6
ATOM      6  C   UNL d   1      26.700 -16.112  -0.624  0.00  0.00     0.052 A 
ATOM      7  C   UNL d   1      26.248 -15.144  -1.519  0.00  0.00     0.081 A 
ATOM      8  S   UNL d   1      24.788 -15.565  -2.288  0.00  0.00    -0.062 SA
ATOM      9  C   UNL d   1      24.794 -17.014  -1.402  0.00  0.00     0.174 A 
ATOM     10  N   UNL d   1      25.814 -17.200  -0.582  0.00  0.00    -0.228 NA
BRANCH   9  11
ATOM     11  N   UNL d   1      23.691 -17.790  -1.683  0.00  0.00    -0.287 N 
ATOM     12  C   UNL d   1      22.939 -18.304  -0.670  0.00  0.00     0.322 C 
ATOM     13  O   UNL d   1      23.190 -18.152   0.522  0.00  0.00    -0.247 OA
ATOM     14  N   UNL d   1      21.816 -19.025  -1.069  0.00  0.00    -0.338 N 
ATOM     15  H   UNL d   1      21.696 -19.311  -2.032  0.00  0.00     0.164 HD
ATOM     16  H   UNL d   1      23.476 -17.940  -2.655  0.00  0.00     0.172 HD
BRANCH  14  17
ATOM     17  C   UNL d   1      21.058 -19.691  -0.003  0.00  0.00     0.086 C 
ATOM     18  C   UNL d   1      20.981 -18.950   1.342  0.00  0.00     0.025 C 
ATOM     19  C   UNL d   1      20.233 -19.808   2.383  0.00  0.00     0.002 C 
ATOM     20  C   UNL d   1      18.840 -20.211   1.902  0.00  0.00     0.000 C 
ATOM     21  C   UNL d   1      18.914 -20.912   0.551  0.00  0.00     0.002 C 
ATOM     22  C   UNL d   1      19.641 -20.053  -0.479  0.00  0.00     0.025 C 
ENDBRANCH  14  17
ENDBRANCH   9  11
ENDBRANCH   5   6
ENDBRANCH   2   5
BRANCH   1  23
ATOM     23  C   UNL d   1      28.582 -13.798   3.407  0.00  0.00     0.129 C 
ATOM     24  C   UNL d   1      28.064 -12.528   3.386  0.00  0.00     0.057 C 
ATOM     25  C   UNL d   1      27.500 -11.604   2.318  0.00  0.00     0.072 C 
ATOM     26  N   UNL d   1      28.043 -11.957   4.674  0.00  0.00    -0.289 N 
ATOM     27  N   UNL d   1      28.772 -12.763   5.531  0.00  0.00    -0.217 N 
ATOM     28  C   UNL d   1      27.760 -10.563   4.998  0.00  0.00     0.178 C 
ATOM     29  C   UNL d   1      29.029 -13.976   4.868  0.00  0.00     0.295 C 
ATOM     30  O   UNL d   1      29.493 -15.017   5.316  0.00  0.00    -0.264 OA
BRANCH  27  31
ATOM     31  C   UNL d   1      28.837 -12.535   6.924  0.00  0.00     0.060 A 
ATOM     32  C   UNL d   1      28.557 -13.586   7.801  0.00  0.00     0.031 A 
ATOM     33  C   UNL d   1      28.622 -13.392   9.185  0.00  0.00     0.002 A 
ATOM     34  C   UNL d   1      29.038 -12.167   9.706  0.00  0.00     0.000 A 
ATOM     35  C   UNL d   1      29.358 -11.121   8.844  0.00  0.00     0.002 A 
ATOM     36  C   UNL d   1      29.251 -11.303   7.461  0.00  0.00     0.031 A 
ENDBRANCH  27  31
ENDBRANCH   1  23
TORSDOF 6
ENDMDL
MODEL 2
REMARK VINA RESULT:    -9.586      6.428      9.924
REMARK INTER + INTRA:         -12.723
REMARK INTER:                 -11.376
REMARK INTRA:                  -1.347
REMARK CONF_INDEPENDENT:        1.790
REMARK UNBOUND:                -1.347
REMARK  6 active torsions:
REMARK  status: ('A' for Active; 'I' for Inactive)
REMARK    1  A    between atoms: C_3  and  N_4 
REMARK       I    between atoms: N_4  and  C_5 
REMARK    2  A    between atoms: C_5  and  C_7 
REMARK    3  A    between atoms: C_7  and  C_8 
REMARK    4  A    between atoms: C_11  and  N_12 
REMARK       I    between atoms: N_12  and  C_13 
REMARK       I    between atoms: C_13  and  N_15 
REMARK    5  A    between atoms: N_15  and  C_16 
REMARK    6  A    between atoms: N_25  and  C_26 
ROOT
ATOM      1  N   UNL d   1      28.802 -15.138  -4.701  0.00  0.00    -0.321 N 
ATOM      2  C   UNL d   1      27.481 -14.936  -5.007  0.00  0.00     0.228 C 
ATOM      3  O   UNL d   1      27.154 -15.211  -6.158  0.00  0.00    -0.273 OA
ATOM      4  H   UNL d   1      29.153 -14.935  -3.766  0.00  0.00     0.169 HD
ENDROOT
BRANCH   2   5
ATOM      5  C   UNL d   1      26.346 -14.424  -4.095  0.00  0.00     0.163 C 
BRANCH   5   6
ATOM      6  C   UNL d   1      26.130 -15.375  -2.845  0.00  0.00     0.052 A 
ATOM      7  C   UNL d   1      27.033 -16.256  -2.251  0.00  0.00     0.081 A 
ATOM      8  S   UNL d   1      26.386 -17.083  -0.910  0.00  0.00    -0.062 SA
ATOM      9  C   UNL d   1      24.925 -16.256  -1.164  0.00  0.00     0.174 A 
ATOM     10  N   UNL d   1      24.897 -15.405  -2.175  0.00  0.00    -0.228 NA
BRANCH   9  11
ATOM     11  N   UNL d   1      23.964 -16.622  -0.247  0.00  0.00    -0.287 N 
ATOM     12  C   UNL d   1      23.135 -17.672  -0.507  0.00  0.00     0.322 C 
ATOM     13  O   UNL d   1      23.153 -18.326  -1.545  0.00  0.00    -0.247 OA
ATOM     14  N   UNL d   1      22.240 -17.988   0.513  0.00  0.00    -0.338 N 
ATOM     15  H   UNL d   1      22.089 -17.357   1.288  0.00  0.00     0.164 HD
ATOM     16  H   UNL d   1      23.922 -16.088   0.605  0.00  0.00     0.172 HD
BRANCH  14  17
ATOM     17  C   UNL d   1      21.255 -19.035   0.211  0.00  0.00     0.086 C 
ATOM     18  C   UNL d   1      20.489 -19.615   1.412  0.00  0.00     0.025 C 
ATOM     19  C   UNL d   1      19.561 -20.757   0.952  0.00  0.00     0.002 C 
ATOM     20  C   UNL d   1      18.597 -20.309  -0.146  0.00  0.00     0.000 C 
ATOM     21  C   UNL d   1      19.354 -19.700  -1.318  0.00  0.00     0.002 C 
ATOM     22  C   UNL d   1      20.259 -18.560  -0.861  0.00  0.00     0.025 C 
ENDBRANCH  14  17
ENDBRANCH   9  11
ENDBRANCH   5   6
ENDBRANCH   2   5
BRANCH   1  23
ATOM     23  C   UNL d   1      29.762 -15.608  -5.643  0.00  0.00     0.129 C 
ATOM     24  C   UNL d   1      30.551 -15.030  -6.605  0.00  0.00     0.057 C 
ATOM     25  C   UNL d   1      30.727 -13.627  -7.165  0.00  0.00     0.072 C 
ATOM     26  N   UNL d   1      31.410 -15.973  -7.205  0.00  0.00    -0.289 N 
ATOM     27  N   UNL d   1      31.027 -17.242  -6.805  0.00  0.00    -0.217 N 
ATOM     28  C   UNL d   1      32.226 -15.765  -8.395  0.00  0.00     0.178 C 
ATOM     29  C   UNL d   1      30.109 -17.104  -5.750  0.00  0.00     0.295 C 
ATOM     30  O   UNL d   1      29.655 -17.962  -5.004  0.00  0.00    -0.264 OA
BRANCH  27  31
ATOM     31  C   UNL d   1      31.767 -18.401  -7.131  0.00  0.00     0.060 A 
ATOM     32  C   UNL d   1      31.129 -19.452  -7.794  0.00  0.00     0.031 A 
ATOM     33  C   UNL d   1      31.838 -20.609  -8.136  0.00  0.00     0.002 A 
ATOM     34  C   UNL d   1      33.207 -20.697  -7.884  0.00  0.00     0.000 A 
ATOM     35  C   UNL d   1      33.864 -19.642  -7.257  0.00  0.00     0.002 A 
ATOM     36  C   UNL d   1      33.147 -18.503  -6.877  0.00  0.00     0.031 A 
ENDBRANCH  27  31
ENDBRANCH   1  23
TORSDOF 6
ENDMDL
MODEL 3
REMARK VINA RESULT:    -9.276      6.106      8.854
REMARK INTER + INTRA:         -12.304
REMARK INTER:                 -11.066
REMARK INTRA:                  -1.238
REMARK CONF_INDEPENDENT:        1.790
REMARK UNBOUND:                -1.238
REMARK  6 active torsions:
REMARK  status: ('A' for Active; 'I' for Inactive)
REMARK    1  A    between atoms: C_3  and  N_4 
REMARK       I    between atoms: N_4  and  C_5 
REMARK    2  A    between atoms: C_5  and  C_7 
REMARK    3  A    between atoms: C_7  and  C_8 
REMARK    4  A    between atoms: C_11  and  N_12 
REMARK       I    between atoms: N_12  and  C_13 
REMARK       I    between atoms: C_13  and  N_15 
REMARK    5  A    between atoms: N_15  and  C_16 
REMARK    6  A    between atoms: N_25  and  C_26 
ROOT
ATOM      1  N   UNL d   1      27.111 -12.410  -4.289  0.00  0.00    -0.321 N 
ATOM      2  C   UNL d   1      26.323 -13.526  -4.177  0.00  0.00     0.228 C 
ATOM      3  O   UNL d   1      25.120 -13.317  -4.051  0.00  0.00    -0.273 OA
ATOM      4  H   UNL d   1      28.121 -12.498  -4.398  0.00  0.00     0.169 HD
ENDROOT
BRANCH   2   5
ATOM      5  C   UNL d   1      26.744 -15.011  -4.202  0.00  0.00     0.163 C 
BRANCH   5   6
ATOM      6  C   UNL d   1      26.446 -15.724  -2.818  0.00  0.00     0.052 A 
ATOM      7  C   UNL d   1      27.329 -16.390  -1.970  0.00  0.00     0.081 A 
ATOM      8  S   UNL d   1      26.585 -17.003  -0.566  0.00  0.00    -0.062 SA
ATOM      9  C   UNL d   1      25.111 -16.377  -1.130  0.00  0.00     0.174 A 
ATOM     10  N   UNL d   1      25.146 -15.739  -2.288  0.00  0.00    -0.228 NA
BRANCH   9  11
ATOM     11  N   UNL d   1      24.074 -16.649  -0.265  0.00  0.00    -0.287 N 
ATOM     12  C   UNL d   1      23.251 -17.710  -0.494  0.00  0.00     0.322 C 
ATOM     13  O   UNL d   1      23.341 -18.457  -1.464  0.00  0.00    -0.247 OA
ATOM     14  N   UNL d   1      22.273 -17.924   0.474  0.00  0.00    -0.338 N 
ATOM     15  H   UNL d   1      22.071 -17.223   1.174  0.00  0.00     0.164 HD
ATOM     16  H   UNL d   1      23.973 -16.039   0.529  0.00  0.00     0.172 HD
BRANCH  14  17
ATOM     17  C   UNL d   1      21.299 -18.985   0.190  0.00  0.00     0.086 C 
ATOM     18  C   UNL d   1      20.530 -19.544   1.399  0.00  0.00     0.025 C 
ATOM     19  C   UNL d   1      19.614 -20.704   0.959  0.00  0.00     0.002 C 
ATOM     20  C   UNL d   1      18.653 -20.289  -0.154  0.00  0.00     0.000 C 
ATOM     21  C   UNL d   1      19.413 -19.700  -1.336  0.00  0.00     0.002 C 
ATOM     22  C   UNL d   1      20.306 -18.543  -0.898  0.00  0.00     0.025 C 
ENDBRANCH  14  17
ENDBRANCH   9  11
ENDBRANCH   5   6
ENDBRANCH   2   5
BRANCH   1  23
ATOM     23  C   UNL d   1      26.599 -11.081  -4.239  0.00  0.00     0.129 C 
ATOM     24  C   UNL d   1      26.701 -10.028  -3.367  0.00  0.00     0.057 C 
ATOM     25  C   UNL d   1      27.354  -9.800  -2.012  0.00  0.00     0.072 C 
ATOM     26  N   UNL d   1      26.049  -8.880  -3.862  0.00  0.00    -0.289 N 
ATOM     27  N   UNL d   1      25.302  -9.237  -4.972  0.00  0.00    -0.217 N 
ATOM     28  C   UNL d   1      25.774  -7.654  -3.123  0.00  0.00     0.178 C 
ATOM     29  C   UNL d   1      25.681 -10.537  -5.348  0.00  0.00     0.295 C 
ATOM     30  O   UNL d   1      25.394 -11.163  -6.361  0.00  0.00    -0.264 OA
BRANCH  27  31
ATOM     31  C   UNL d   1      24.630  -8.290  -5.777  0.00  0.00     0.060 A 
ATOM     32  C   UNL d   1      23.359  -7.852  -5.396  0.00  0.00     0.031 A 
ATOM     33  C   UNL d   1      22.673  -6.909  -6.170  0.00  0.00     0.002 A 
ATOM     34  C   UNL d   1      23.279  -6.342  -7.290  0.00  0.00     0.000 A 
ATOM     35  C   UNL d   1      24.560  -6.741  -7.661  0.00  0.00     0.002 A 
ATOM     36  C   UNL d   1      25.229  -7.714  -6.912  0.00  0.00     0.031 A 
ENDBRANCH  27  31
ENDBRANCH   1  23
TORSDOF 6
ENDMDL
MODEL 4
REMARK VINA RESULT:    -9.265      6.204      9.823
REMARK INTER + INTRA:         -12.175
REMARK INTER:                 -11.054
REMARK INTRA:                  -1.121
REMARK CONF_INDEPENDENT:        1.790
REMARK UNBOUND:                -1.121
REMARK  6 active torsions:
REMARK  status: ('A' for Active; 'I' for Inactive)
REMARK    1  A    between atoms: C_3  and  N_4 
REMARK       I    between atoms: N_4  and  C_5 
REMARK    2  A    between atoms: C_5  and  C_7 
REMARK    3  A    between atoms: C_7  and  C_8 
REMARK    4  A    between atoms: C_11  and  N_12 
REMARK       I    between atoms: N_12  and  C_13 
REMARK       I    between atoms: C_13  and  N_15 
REMARK    5  A    between atoms: N_15  and  C_16 
REMARK    6  A    between atoms: N_25  and  C_26 
ROOT
ATOM      1  N   UNL d   1      28.485 -15.702  -4.396  0.00  0.00    -0.321 N 
ATOM      2  C   UNL d   1      27.277 -15.276  -4.886  0.00  0.00     0.228 C 
ATOM      3  O   UNL d   1      27.191 -15.216  -6.108  0.00  0.00    -0.273 OA
ATOM      4  H   UNL d   1      28.637 -15.781  -3.391  0.00  0.00     0.169 HD
ENDROOT
BRANCH   2   5
ATOM      5  C   UNL d   1      26.007 -14.876  -4.106  0.00  0.00     0.163 C 
BRANCH   5   6
ATOM      6  C   UNL d   1      25.932 -15.607  -2.701  0.00  0.00     0.052 A 
ATOM      7  C   UNL d   1      26.653 -15.343  -1.539  0.00  0.00     0.081 A 
ATOM      8  S   UNL d   1      26.248 -16.372  -0.243  0.00  0.00    -0.062 SA
ATOM      9  C   UNL d   1      25.136 -17.145  -1.267  0.00  0.00     0.174 A 
ATOM     10  N   UNL d   1      25.047 -16.679  -2.501  0.00  0.00    -0.228 NA
BRANCH   9  11
ATOM     11  N   UNL d   1      24.484 -18.177  -0.629  0.00  0.00    -0.287 N 
ATOM     12  C   UNL d   1      23.122 -18.227  -0.622  0.00  0.00     0.322 C 
ATOM     13  O   UNL d   1      22.397 -17.378  -1.132  0.00  0.00    -0.247 OA
ATOM     14  N   UNL d   1      22.571 -19.343   0.003  0.00  0.00    -0.338 N 
ATOM     15  H   UNL d   1      23.138 -19.951   0.578  0.00  0.00     0.164 HD
ATOM     16  H   UNL d   1      25.059 -18.877  -0.190  0.00  0.00     0.172 HD
BRANCH  14  17
ATOM     17  C   UNL d   1      21.108 -19.361   0.131  0.00  0.00     0.086 C 
ATOM     18  C   UNL d   1      20.311 -19.450  -1.181  0.00  0.00     0.025 C 
ATOM     19  C   UNL d   1      18.798 -19.369  -0.894  0.00  0.00     0.002 C 
ATOM     20  C   UNL d   1      18.343 -20.442   0.096  0.00  0.00     0.000 C 
ATOM     21  C   UNL d   1      19.159 -20.377   1.380  0.00  0.00     0.002 C 
ATOM     22  C   UNL d   1      20.654 -20.472   1.092  0.00  0.00     0.025 C 
ENDBRANCH  14  17
ENDBRANCH   9  11
ENDBRANCH   5   6
ENDBRANCH   2   5
BRANCH   1  23
ATOM     23  C   UNL d   1      29.594 -16.034  -5.227  0.00  0.00     0.129 C 
ATOM     24  C   UNL d   1      30.237 -17.193  -5.581  0.00  0.00     0.057 C 
ATOM     25  C   UNL d   1      30.112 -18.661  -5.205  0.00  0.00     0.072 C 
ATOM     26  N   UNL d   1      31.248 -16.954  -6.532  0.00  0.00    -0.289 N 
ATOM     27  N   UNL d   1      31.442 -15.587  -6.643  0.00  0.00    -0.217 N 
ATOM     28  C   UNL d   1      32.263 -17.903  -6.974  0.00  0.00     0.178 C 
ATOM     29  C   UNL d   1      30.385 -14.946  -5.974  0.00  0.00     0.295 C 
ATOM     30  O   UNL d   1      30.081 -13.760  -5.969  0.00  0.00    -0.264 OA
BRANCH  27  31
ATOM     31  C   UNL d   1      32.300 -15.013  -7.608  0.00  0.00     0.060 A 
ATOM     32  C   UNL d   1      31.809 -14.005  -8.442  0.00  0.00     0.031 A 
ATOM     33  C   UNL d   1      32.637 -13.412  -9.401  0.00  0.00     0.002 A 
ATOM     34  C   UNL d   1      33.983 -13.768  -9.487  0.00  0.00     0.000 A 
ATOM     35  C   UNL d   1      34.496 -14.744  -8.637  0.00  0.00     0.002 A 
ATOM     36  C   UNL d   1      33.657 -15.367  -7.707  0.00  0.00     0.031 A 
ENDBRANCH  27  31
ENDBRANCH   1  23
TORSDOF 6
ENDMDL
MODEL 5
REMARK VINA RESULT:    -9.088      1.552      2.013
REMARK INTER + INTRA:         -12.012
REMARK INTER:                 -10.878
REMARK INTRA:                  -1.135
REMARK CONF_INDEPENDENT:        1.790
REMARK UNBOUND:                -1.135
REMARK  6 active torsions:
REMARK  status: ('A' for Active; 'I' for Inactive)
REMARK    1  A    between atoms: C_3  and  N_4 
REMARK       I    between atoms: N_4  and  C_5 
REMARK    2  A    between atoms: C_5  and  C_7 
REMARK    3  A    between atoms: C_7  and  C_8 
REMARK    4  A    between atoms: C_11  and  N_12 
REMARK       I    between atoms: N_12  and  C_13 
REMARK       I    between atoms: C_13  and  N_15 
REMARK    5  A    between atoms: N_15  and  C_16 
REMARK    6  A    between atoms: N_25  and  C_26 
ROOT
ATOM      1  N   UNL d   1      28.401 -13.915   2.266  0.00  0.00    -0.321 N 
ATOM      2  C   UNL d   1      27.890 -13.087   1.299  0.00  0.00     0.228 C 
ATOM      3  O   UNL d   1      27.969 -11.885   1.533  0.00  0.00    -0.273 OA
ATOM      4  H   UNL d   1      28.376 -14.927   2.147  0.00  0.00     0.169 HD
ENDROOT
BRANCH   2   5
ATOM      5  C   UNL d   1      27.242 -13.464  -0.050  0.00  0.00     0.163 C 
BRANCH   5   6
ATOM      6  C   UNL d   1      26.799 -14.986  -0.077  0.00  0.00     0.052 A 
ATOM      7  C   UNL d   1      27.346 -16.068   0.609  0.00  0.00     0.081 A 
ATOM      8  S   UNL d   1      26.548 -17.540   0.297  0.00  0.00    -0.062 SA
ATOM      9  C   UNL d   1      25.507 -16.700  -0.748  0.00  0.00     0.174 A 
ATOM     10  N   UNL d   1      25.716 -15.400  -0.869  0.00  0.00    -0.228 NA
BRANCH   9  11
ATOM     11  N   UNL d   1      24.581 -17.537  -1.332  0.00  0.00    -0.287 N 
ATOM     12  C   UNL d   1      23.339 -17.668  -0.788  0.00  0.00     0.322 C 
ATOM     13  O   UNL d   1      22.970 -17.104   0.238  0.00  0.00    -0.247 OA
ATOM     14  N   UNL d   1      22.467 -18.496  -1.492  0.00  0.00    -0.338 N 
ATOM     15  H   UNL d   1      22.804 -19.103  -2.226  0.00  0.00     0.164 HD
ATOM     16  H   UNL d   1      24.869 -18.022  -2.165  0.00  0.00     0.172 HD
BRANCH  14  17
ATOM     17  C   UNL d   1      21.165 -18.751  -0.864  0.00  0.00     0.086 C 
ATOM     18  C   UNL d   1      20.216 -19.692  -1.624  0.00  0.00     0.025 C 
ATOM     19  C   UNL d   1      18.862 -19.793  -0.891  0.00  0.00     0.002 C 
ATOM     20  C   UNL d   1      19.026 -20.239   0.561  0.00  0.00     0.000 C 
ATOM     21  C   UNL d   1      19.996 -19.328   1.303  0.00  0.00     0.002 C 
ATOM     22  C   UNL d   1      21.338 -19.245   0.582  0.00  0.00     0.025 C 
ENDBRANCH  14  17
ENDBRANCH   9  11
ENDBRANCH   5   6
ENDBRANCH   2   5
BRANCH   1  23
ATOM     23  C   UNL d   1      28.968 -13.440   3.484  0.00  0.00     0.129 C 
ATOM     24  C   UNL d   1      30.036 -12.648   3.821  0.00  0.00     0.057 C 
ATOM     25  C   UNL d   1      31.157 -11.957   3.060  0.00  0.00     0.072 C 
ATOM     26  N   UNL d   1      30.092 -12.417   5.210  0.00  0.00    -0.289 N 
ATOM     27  N   UNL d   1      29.186 -13.256   5.838  0.00  0.00    -0.217 N 
ATOM     28  C   UNL d   1      31.194 -11.805   5.943  0.00  0.00     0.178 C 
ATOM     29  C   UNL d   1      28.366 -13.824   4.847  0.00  0.00     0.295 C 
ATOM     30  O   UNL d   1      27.342 -14.483   4.977  0.00  0.00    -0.264 OA
BRANCH  27  31
ATOM     31  C   UNL d   1      28.906 -13.180   7.221  0.00  0.00     0.060 A 
ATOM     32  C   UNL d   1      29.144 -14.298   8.026  0.00  0.00     0.031 A 
ATOM     33  C   UNL d   1      28.884 -14.250   9.400  0.00  0.00     0.002 A 
ATOM     34  C   UNL d   1      28.453 -13.065   9.995  0.00  0.00     0.000 A 
ATOM     35  C   UNL d   1      28.248 -11.932   9.211  0.00  0.00     0.002 A 
ATOM     36  C   UNL d   1      28.467 -11.992   7.831  0.00  0.00     0.031 A 
ENDBRANCH  27  31
ENDBRANCH   1  23
TORSDOF 6
ENDMDL
MODEL 6
REMARK VINA RESULT:    -8.925      5.611      9.632
REMARK INTER + INTRA:         -13.089
REMARK INTER:                 -10.715
REMARK INTRA:                  -2.374
REMARK CONF_INDEPENDENT:        1.790
REMARK UNBOUND:                -2.374
REMARK  6 active torsions:
REMARK  status: ('A' for Active; 'I' for Inactive)
REMARK    1  A    between atoms: C_3  and  N_4 
REMARK       I    between atoms: N_4  and  C_5 
REMARK    2  A    between atoms: C_5  and  C_7 
REMARK    3  A    between atoms: C_7  and  C_8 
REMARK    4  A    between atoms: C_11  and  N_12 
REMARK       I    between atoms: N_12  and  C_13 
REMARK       I    between atoms: C_13  and  N_15 
REMARK    5  A    between atoms: N_15  and  C_16 
REMARK    6  A    between atoms: N_25  and  C_26 
ROOT
ATOM      1  N   UNL d   1      26.524 -12.657  -4.172  0.00  0.00    -0.321 N 
ATOM      2  C   UNL d   1      25.908 -11.460  -4.436  0.00  0.00     0.228 C 
ATOM      3  O   UNL d   1      25.208 -11.013  -3.533  0.00  0.00    -0.273 OA
ATOM      4  H   UNL d   1      27.125 -13.094  -4.870  0.00  0.00     0.169 HD
ENDROOT
BRANCH   2   5
ATOM      5  C   UNL d   1      25.990 -10.594  -5.710  0.00  0.00     0.163 C 
BRANCH   5   6
ATOM      6  C   UNL d   1      26.955 -11.238  -6.791  0.00  0.00     0.052 A 
ATOM      7  C   UNL d   1      27.194 -10.830  -8.102  0.00  0.00     0.081 A 
ATOM      8  S   UNL d   1      28.324 -11.809  -8.918  0.00  0.00    -0.062 SA
ATOM      9  C   UNL d   1      28.453 -12.751  -7.512  0.00  0.00     0.174 A 
ATOM     10  N   UNL d   1      27.716 -12.376  -6.481  0.00  0.00    -0.228 NA
BRANCH   9  11
ATOM     11  N   UNL d   1      29.332 -13.799  -7.676  0.00  0.00    -0.287 N 
ATOM     12  C   UNL d   1      29.226 -14.911  -6.895  0.00  0.00     0.322 C 
ATOM     13  O   UNL d   1      28.398 -15.050  -6.000  0.00  0.00    -0.247 OA
ATOM     14  N   UNL d   1      30.130 -15.930  -7.187  0.00  0.00    -0.338 N 
ATOM     15  H   UNL d   1      30.924 -15.765  -7.789  0.00  0.00     0.164 HD
ATOM     16  H   UNL d   1      30.029 -13.700  -8.395  0.00  0.00     0.172 HD
BRANCH  14  17
ATOM     17  C   UNL d   1      30.118 -17.087  -6.283  0.00  0.00     0.086 C 
ATOM     18  C   UNL d   1      30.786 -18.368  -6.808  0.00  0.00     0.025 C 
ATOM     19  C   UNL d   1      30.617 -19.515  -5.791  0.00  0.00     0.002 C 
ATOM     20  C   UNL d   1      31.158 -19.144  -4.411  0.00  0.00     0.000 C 
ATOM     21  C   UNL d   1      30.523 -17.854  -3.907  0.00  0.00     0.002 C 
ATOM     22  C   UNL d   1      30.706 -16.719  -4.910  0.00  0.00     0.025 C 
ENDBRANCH  14  17
ENDBRANCH   9  11
ENDBRANCH   5   6
ENDBRANCH   2   5
BRANCH   1  23
ATOM     23  C   UNL d   1      26.359 -13.370  -2.949  0.00  0.00     0.129 C 
ATOM     24  C   UNL d   1      26.695 -13.151  -1.638  0.00  0.00     0.057 C 
ATOM     25  C   UNL d   1      27.458 -12.077  -0.878  0.00  0.00     0.072 C 
ATOM     26  N   UNL d   1      26.197 -14.168  -0.799  0.00  0.00    -0.289 N 
ATOM     27  N   UNL d   1      25.723 -15.203  -1.587  0.00  0.00    -0.217 N 
ATOM     28  C   UNL d   1      26.534 -14.375   0.605  0.00  0.00     0.178 C 
ATOM     29  C   UNL d   1      25.666 -14.744  -2.914  0.00  0.00     0.295 C 
ATOM     30  O   UNL d   1      25.155 -15.273  -3.893  0.00  0.00    -0.264 OA
BRANCH  27  31
ATOM     31  C   UNL d   1      25.041 -16.320  -1.053  0.00  0.00     0.060 A 
ATOM     32  C   UNL d   1      23.643 -16.325  -1.046  0.00  0.00     0.031 A 
ATOM     33  C   UNL d   1      22.942 -17.421  -0.531  0.00  0.00     0.002 A 
ATOM     34  C   UNL d   1      23.627 -18.551  -0.086  0.00  0.00     0.000 A 
ATOM     35  C   UNL d   1      25.019 -18.575  -0.122  0.00  0.00     0.002 A 
ATOM     36  C   UNL d   1      25.721 -17.463  -0.597  0.00  0.00     0.031 A 
ENDBRANCH  27  31
ENDBRANCH   1  23
TORSDOF 6
ENDMDL
MODEL 7
REMARK VINA RESULT:    -8.645      5.860     10.336
REMARK INTER + INTRA:         -12.209
REMARK INTER:                 -10.434
REMARK INTRA:                  -1.775
REMARK CONF_INDEPENDENT:        1.790
REMARK UNBOUND:                -1.775
REMARK  6 active torsions:
REMARK  status: ('A' for Active; 'I' for Inactive)
REMARK    1  A    between atoms: C_3  and  N_4 
REMARK       I    between atoms: N_4  and  C_5 
REMARK    2  A    between atoms: C_5  and  C_7 
REMARK    3  A    between atoms: C_7  and  C_8 
REMARK    4  A    between atoms: C_11  and  N_12 
REMARK       I    between atoms: N_12  and  C_13 
REMARK       I    between atoms: C_13  and  N_15 
REMARK    5  A    between atoms: N_15  and  C_16 
REMARK    6  A    between atoms: N_25  and  C_26 
ROOT
ATOM      1  N   UNL d   1      27.508 -14.036  -3.922  0.00  0.00    -0.321 N 
ATOM      2  C   UNL d   1      27.859 -14.433  -5.186  0.00  0.00     0.228 C 
ATOM      3  O   UNL d   1      27.824 -15.642  -5.393  0.00  0.00    -0.273 OA
ATOM      4  H   UNL d   1      27.509 -13.049  -3.670  0.00  0.00     0.169 HD
ENDROOT
BRANCH   2   5
ATOM      5  C   UNL d   1      28.279 -13.562  -6.389  0.00  0.00     0.163 C 
BRANCH   5   6
ATOM      6  C   UNL d   1      27.455 -12.208  -6.443  0.00  0.00     0.052 A 
ATOM      7  C   UNL d   1      27.258 -11.348  -7.521  0.00  0.00     0.081 A 
ATOM      8  S   UNL d   1      26.287 -10.001  -7.142  0.00  0.00    -0.062 SA
ATOM      9  C   UNL d   1      26.166 -10.594  -5.556  0.00  0.00     0.174 A 
ATOM     10  N   UNL d   1      26.796 -11.728  -5.300  0.00  0.00    -0.228 NA
BRANCH   9  11
ATOM     11  N   UNL d   1      25.410  -9.765  -4.755  0.00  0.00    -0.287 N 
ATOM     12  C   UNL d   1      26.015  -8.976  -3.823  0.00  0.00     0.322 C 
ATOM     13  O   UNL d   1      27.223  -8.964  -3.606  0.00  0.00    -0.247 OA
ATOM     14  N   UNL d   1      25.161  -8.138  -3.110  0.00  0.00    -0.338 N 
ATOM     15  H   UNL d   1      24.158  -8.263  -3.146  0.00  0.00     0.164 HD
ATOM     16  H   UNL d   1      24.415  -9.771  -4.906  0.00  0.00     0.172 HD
BRANCH  14  17
ATOM     17  C   UNL d   1      25.768  -7.368  -2.018  0.00  0.00     0.086 C 
ATOM     18  C   UNL d   1      25.159  -5.984  -1.740  0.00  0.00     0.025 C 
ATOM     19  C   UNL d   1      25.954  -5.262  -0.632  0.00  0.00     0.002 C 
ATOM     20  C   UNL d   1      26.034  -6.090   0.650  0.00  0.00     0.000 C 
ATOM     21  C   UNL d   1      26.602  -7.475   0.367  0.00  0.00     0.002 C 
ATOM     22  C   UNL d   1      25.804  -8.190  -0.718  0.00  0.00     0.025 C 
ENDBRANCH  14  17
ENDBRANCH   9  11
ENDBRANCH   5   6
ENDBRANCH   2   5
BRANCH   1  23
ATOM     23  C   UNL d   1      27.147 -14.947  -2.887  0.00  0.00     0.129 C 
ATOM     24  C   UNL d   1      27.799 -15.536  -1.833  0.00  0.00     0.057 C 
ATOM     25  C   UNL d   1      29.226 -15.548  -1.311  0.00  0.00     0.072 C 
ATOM     26  N   UNL d   1      26.919 -16.306  -1.045  0.00  0.00    -0.289 N 
ATOM     27  N   UNL d   1      25.711 -16.424  -1.712  0.00  0.00    -0.217 N 
ATOM     28  C   UNL d   1      27.294 -17.231   0.017  0.00  0.00     0.178 C 
ATOM     29  C   UNL d   1      25.721 -15.517  -2.786  0.00  0.00     0.295 C 
ATOM     30  O   UNL d   1      24.801 -15.181  -3.521  0.00  0.00    -0.264 OA
BRANCH  27  31
ATOM     31  C   UNL d   1      24.573 -17.028  -1.131  0.00  0.00     0.060 A 
ATOM     32  C   UNL d   1      23.374 -16.313  -1.078  0.00  0.00     0.031 A 
ATOM     33  C   UNL d   1      22.230 -16.889  -0.516  0.00  0.00     0.002 A 
ATOM     34  C   UNL d   1      22.253 -18.210  -0.069  0.00  0.00     0.000 A 
ATOM     35  C   UNL d   1      23.430 -18.948  -0.150  0.00  0.00     0.002 A 
ATOM     36  C   UNL d   1      24.586 -18.358  -0.672  0.00  0.00     0.031 A 
ENDBRANCH  27  31
ENDBRANCH   1  23
TORSDOF 6
ENDMDL
MODEL 8
REMARK VINA RESULT:    -8.602      5.336     10.259
REMARK INTER + INTRA:         -12.145
REMARK INTER:                 -10.392
REMARK INTRA:                  -1.753
REMARK CONF_INDEPENDENT:        1.790
REMARK UNBOUND:                -1.753
REMARK  6 active torsions:
REMARK  status: ('A' for Active; 'I' for Inactive)
REMARK    1  A    between atoms: C_3  and  N_4 
REMARK       I    between atoms: N_4  and  C_5 
REMARK    2  A    between atoms: C_5  and  C_7 
REMARK    3  A    between atoms: C_7  and  C_8 
REMARK    4  A    between atoms: C_11  and  N_12 
REMARK       I    between atoms: N_12  and  C_13 
REMARK       I    between atoms: C_13  and  N_15 
REMARK    5  A    between atoms: N_15  and  C_16 
REMARK    6  A    between atoms: N_25  and  C_26 
ROOT
ATOM      1  N   UNL d   1      26.974 -13.337  -3.717  0.00  0.00    -0.321 N 
ATOM      2  C   UNL d   1      27.155 -13.541  -5.061  0.00  0.00     0.228 C 
ATOM      3  O   UNL d   1      27.095 -14.708  -5.435  0.00  0.00    -0.273 OA
ATOM      4  H   UNL d   1      27.007 -12.397  -3.327  0.00  0.00     0.169 HD
ENDROOT
BRANCH   2   5
ATOM      5  C   UNL d   1      27.408 -12.497  -6.169  0.00  0.00     0.163 C 
BRANCH   5   6
ATOM      6  C   UNL d   1      26.584 -11.167  -5.915  0.00  0.00     0.052 A 
ATOM      7  C   UNL d   1      26.024 -10.294  -6.846  0.00  0.00     0.081 A 
ATOM      8  S   UNL d   1      25.204  -8.982  -6.135  0.00  0.00    -0.062 SA
ATOM      9  C   UNL d   1      25.626  -9.604  -4.613  0.00  0.00     0.174 A 
ATOM     10  N   UNL d   1      26.328 -10.724  -4.607  0.00  0.00    -0.228 NA
BRANCH   9  11
ATOM     11  N   UNL d   1      25.160  -8.811  -3.587  0.00  0.00    -0.287 N 
ATOM     12  C   UNL d   1      25.931  -8.591  -2.486  0.00  0.00     0.322 C 
ATOM     13  O   UNL d   1      27.041  -9.086  -2.310  0.00  0.00    -0.247 OA
ATOM     14  N   UNL d   1      25.384  -7.728  -1.540  0.00  0.00    -0.338 N 
ATOM     15  H   UNL d   1      24.410  -7.459  -1.582  0.00  0.00     0.164 HD
ATOM     16  H   UNL d   1      24.245  -8.407  -3.705  0.00  0.00     0.172 HD
BRANCH  14  17
ATOM     17  C   UNL d   1      26.139  -7.571  -0.290  0.00  0.00     0.086 C 
ATOM     18  C   UNL d   1      26.316  -6.132   0.221  0.00  0.00     0.025 C 
ATOM     19  C   UNL d   1      27.200  -6.118   1.485  0.00  0.00     0.002 C 
ATOM     20  C   UNL d   1      26.645  -7.023   2.584  0.00  0.00     0.000 C 
ATOM     21  C   UNL d   1      26.434  -8.440   2.066  0.00  0.00     0.002 C 
ATOM     22  C   UNL d   1      25.547  -8.449   0.825  0.00  0.00     0.025 C 
ENDBRANCH  14  17
ENDBRANCH   9  11
ENDBRANCH   5   6
ENDBRANCH   2   5
BRANCH   1  23
ATOM     23  C   UNL d   1      26.757 -14.395  -2.787  0.00  0.00     0.129 C 
ATOM     24  C   UNL d   1      27.522 -15.044  -1.851  0.00  0.00     0.057 C 
ATOM     25  C   UNL d   1      28.975 -14.988  -1.408  0.00  0.00     0.072 C 
ATOM     26  N   UNL d   1      26.761 -15.980  -1.121  0.00  0.00    -0.289 N 
ATOM     27  N   UNL d   1      25.528 -16.127  -1.733  0.00  0.00    -0.217 N 
ATOM     28  C   UNL d   1      27.279 -16.988  -0.203  0.00  0.00     0.178 C 
ATOM     29  C   UNL d   1      25.394 -15.101  -2.685  0.00  0.00     0.295 C 
ATOM     30  O   UNL d   1      24.405 -14.765  -3.323  0.00  0.00    -0.264 OA
BRANCH  27  31
ATOM     31  C   UNL d   1      24.485 -16.899  -1.174  0.00  0.00     0.060 A 
ATOM     32  C   UNL d   1      23.209 -16.339  -1.060  0.00  0.00     0.031 A 
ATOM     33  C   UNL d   1      22.155 -17.082  -0.518  0.00  0.00     0.002 A 
ATOM     34  C   UNL d   1      22.346 -18.414  -0.153  0.00  0.00     0.000 A 
ATOM     35  C   UNL d   1      23.602 -18.998  -0.297  0.00  0.00     0.002 A 
ATOM     36  C   UNL d   1      24.667 -18.242  -0.798  0.00  0.00     0.031 A 
ENDBRANCH  27  31
ENDBRANCH   1  23
TORSDOF 6
ENDMDL
MODEL 9
REMARK VINA RESULT:    -8.060      3.701      9.371
REMARK INTER + INTRA:         -11.962
REMARK INTER:                  -9.850
REMARK INTRA:                  -2.112
REMARK CONF_INDEPENDENT:        1.790
REMARK UNBOUND:                -2.112
REMARK  6 active torsions:
REMARK  status: ('A' for Active; 'I' for Inactive)
REMARK    1  A    between atoms: C_3  and  N_4 
REMARK       I    between atoms: N_4  and  C_5 
REMARK    2  A    between atoms: C_5  and  C_7 
REMARK    3  A    between atoms: C_7  and  C_8 
REMARK    4  A    between atoms: C_11  and  N_12 
REMARK       I    between atoms: N_12  and  C_13 
REMARK       I    between atoms: C_13  and  N_15 
REMARK    5  A    between atoms: N_15  and  C_16 
REMARK    6  A    between atoms: N_25  and  C_26 
ROOT
ATOM      1  N   UNL d   1      29.791 -17.563  -0.399  0.00  0.00    -0.321 N 
ATOM      2  C   UNL d   1      30.766 -18.102  -1.197  0.00  0.00     0.228 C 
ATOM      3  O   UNL d   1      30.488 -18.192  -2.389  0.00  0.00    -0.273 OA
ATOM      4  H   UNL d   1      29.944 -17.452   0.603  0.00  0.00     0.169 HD
ENDROOT
BRANCH   2   5
ATOM      5  C   UNL d   1      32.173 -18.596  -0.801  0.00  0.00     0.163 C 
BRANCH   5   6
ATOM      6  C   UNL d   1      32.747 -17.789   0.438  0.00  0.00     0.052 A 
ATOM      7  C   UNL d   1      34.004 -17.876   1.031  0.00  0.00     0.081 A 
ATOM      8  S   UNL d   1      34.208 -16.808   2.343  0.00  0.00    -0.062 SA
ATOM      9  C   UNL d   1      32.617 -16.271   2.091  0.00  0.00     0.174 A 
ATOM     10  N   UNL d   1      31.956 -16.831   1.093  0.00  0.00    -0.228 NA
BRANCH   9  11
ATOM     11  N   UNL d   1      32.252 -15.307   3.005  0.00  0.00    -0.287 N 
ATOM     12  C   UNL d   1      31.067 -14.648   2.868  0.00  0.00     0.322 C 
ATOM     13  O   UNL d   1      30.280 -14.827   1.944  0.00  0.00    -0.247 OA
ATOM     14  N   UNL d   1      30.774 -13.736   3.880  0.00  0.00    -0.338 N 
ATOM     15  H   UNL d   1      31.482 -13.447   4.541  0.00  0.00     0.164 HD
ATOM     16  H   UNL d   1      32.891 -15.134   3.763  0.00  0.00     0.172 HD
BRANCH  14  17
ATOM     17  C   UNL d   1      29.564 -12.925   3.693  0.00  0.00     0.086 C 
ATOM     18  C   UNL d   1      29.582 -11.937   2.516  0.00  0.00     0.025 C 
ATOM     19  C   UNL d   1      28.287 -11.099   2.502  0.00  0.00     0.002 C 
ATOM     20  C   UNL d   1      27.035 -11.976   2.460  0.00  0.00     0.000 C 
ATOM     21  C   UNL d   1      27.037 -12.980   3.606  0.00  0.00     0.002 C 
ATOM     22  C   UNL d   1      28.314 -13.816   3.606  0.00  0.00     0.025 C 
ENDBRANCH  14  17
ENDBRANCH   9  11
ENDBRANCH   5   6
ENDBRANCH   2   5
BRANCH   1  23
ATOM     23  C   UNL d   1      28.517 -17.151  -0.888  0.00  0.00     0.129 C 
ATOM     24  C   UNL d   1      28.077 -16.327  -1.892  0.00  0.00     0.057 C 
ATOM     25  C   UNL d   1      28.736 -15.414  -2.914  0.00  0.00     0.072 C 
ATOM     26  N   UNL d   1      26.672 -16.348  -2.000  0.00  0.00    -0.289 N 
ATOM     27  N   UNL d   1      26.150 -17.014  -0.904  0.00  0.00    -0.217 N 
ATOM     28  C   UNL d   1      25.851 -15.449  -2.803  0.00  0.00     0.178 C 
ATOM     29  C   UNL d   1      27.214 -17.648  -0.239  0.00  0.00     0.295 C 
ATOM     30  O   UNL d   1      27.176 -18.469   0.670  0.00  0.00    -0.264 OA
BRANCH  27  31
ATOM     31  C   UNL d   1      24.776 -17.318  -0.777  0.00  0.00     0.060 A 
ATOM     32  C   UNL d   1      24.392 -18.637  -0.519  0.00  0.00     0.031 A 
ATOM     33  C   UNL d   1      23.039 -18.967  -0.381  0.00  0.00     0.002 A 
ATOM     34  C   UNL d   1      22.063 -17.972  -0.425  0.00  0.00     0.000 A 
ATOM     35  C   UNL d   1      22.434 -16.648  -0.643  0.00  0.00     0.002 A 
ATOM     36  C   UNL d   1      23.782 -16.324  -0.824  0.00  0.00     0.031 A 
ENDBRANCH  27  31
ENDBRANCH   1  23
TORSDOF 6
ENDMDL
