MODEL 1
REMARK VINA RESULT:    -9.186      0.000      0.000
REMARK INTER + INTRA:         -10.935
REMARK INTER:                 -10.379
REMARK INTRA:                  -0.556
REMARK CONF_INDEPENDENT:        1.193
REMARK UNBOUND:                -0.556
REMARK  4 active torsions:
REMARK  status: ('A' for Active; 'I' for Inactive)
REMARK       I    between atoms: C_2  and  N_3 
REMARK       I    between atoms: C_2  and  N_12 
REMARK    1  A    between atoms: N_3  and  O_4 
REMARK    2  A    between atoms: O_4  and  C_5 
REMARK    3  A    between atoms: C_5  and  C_6 
REMARK    4  A    between atoms: C_13  and  N_12 
ROOT
ATOM      1  O   UNL d   1      23.076 -18.960  -1.842  0.00  0.00    -0.245 OA
ATOM      2  C   UNL d   1      22.972 -18.207  -0.870  0.00  0.00     0.340 C 
ATOM      3  N   UNL d   1      21.785 -17.585  -0.477  0.00  0.00    -0.216 N 
ATOM      4  N   UNL d   1      24.043 -17.936  -0.045  0.00  0.00    -0.333 N 
ATOM      5  H   UNL d   1      21.700 -16.839   0.202  0.00  0.00     0.199 HD
ATOM      6  H   UNL d   1      23.886 -17.072   0.447  0.00  0.00     0.165 HD
ENDROOT
BRANCH   3   7
ATOM      7  O   UNL d   1      20.637 -17.904  -1.270  0.00  0.00    -0.272 OA
BRANCH   7   8
ATOM      8  C   UNL d   1      20.341 -19.312  -1.271  0.00  0.00     0.240 C 
BRANCH   8   9
ATOM      9  C   UNL d   1      19.738 -19.761   0.053  0.00  0.00    -0.032 A 
ATOM     10  C   UNL d   1      20.361 -19.451   1.275  0.00  0.00     0.009 A 
ATOM     11  C   UNL d   1      19.905 -20.008   2.476  0.00  0.00     0.001 A 
ATOM     12  C   UNL d   1      18.779 -20.827   2.483  0.00  0.00     0.000 A 
ATOM     13  C   UNL d   1      18.132 -21.121   1.285  0.00  0.00     0.001 A 
ATOM     14  C   UNL d   1      18.616 -20.603   0.078  0.00  0.00     0.009 A 
ENDBRANCH   8   9
ENDBRANCH   7   8
ENDBRANCH   3   7
BRANCH   4  15
ATOM     15  C   UNL d   1      25.474 -18.124  -0.394  0.00  0.00     0.120 C 
ATOM     16  C   UNL d   1      26.671 -18.073   0.629  0.00  0.00     0.035 C 
ATOM     17  C   UNL d   1      27.860 -17.313  -0.033  0.00  0.00     0.041 C 
ATOM     18  C   UNL d   1      27.241 -16.699  -1.241  0.00  0.00    -0.048 A 
ATOM     19  C   UNL d   1      27.855 -15.796  -2.102  0.00  0.00     0.031 A 
ATOM     20  C   UNL d   1      25.902 -17.067  -1.395  0.00  0.00    -0.029 A 
ATOM     21  C   UNL d   1      27.072 -15.165  -3.063  0.00  0.00     0.034 A 
ATOM     22 CL   UNL d   1      27.732 -13.878  -3.997  0.00  0.00    -0.084 Cl
ATOM     23  C   UNL d   1      25.727 -15.509  -3.223  0.00  0.00     0.024 A 
ATOM     24  C   UNL d   1      25.142 -16.471  -2.396  0.00  0.00     0.011 A 
ENDBRANCH   4  15
TORSDOF 4
ENDMDL
MODEL 2
REMARK VINA RESULT:    -8.344      5.659      8.534
REMARK INTER + INTRA:         -10.133
REMARK INTER:                  -9.537
REMARK INTRA:                  -0.596
REMARK CONF_INDEPENDENT:        1.193
REMARK UNBOUND:                -0.596
REMARK  4 active torsions:
REMARK  status: ('A' for Active; 'I' for Inactive)
REMARK       I    between atoms: C_2  and  N_3 
REMARK       I    between atoms: C_2  and  N_12 
REMARK    1  A    between atoms: N_3  and  O_4 
REMARK    2  A    between atoms: O_4  and  C_5 
REMARK    3  A    between atoms: C_5  and  C_6 
REMARK    4  A    between atoms: C_13  and  N_12 
ROOT
ATOM      1  O   UNL d   1      26.860 -14.260   1.076  0.00  0.00    -0.245 OA
ATOM      2  C   UNL d   1      27.741 -15.044   1.438  0.00  0.00     0.340 C 
ATOM      3  N   UNL d   1      28.598 -14.825   2.518  0.00  0.00    -0.216 N 
ATOM      4  N   UNL d   1      27.937 -16.255   0.807  0.00  0.00    -0.333 N 
ATOM      5  H   UNL d   1      29.431 -15.358   2.735  0.00  0.00     0.199 HD
ATOM      6  H   UNL d   1      28.872 -16.584   0.981  0.00  0.00     0.165 HD
ENDROOT
BRANCH   3   7
ATOM      7  O   UNL d   1      28.373 -13.610   3.239  0.00  0.00    -0.272 OA
BRANCH   7   8
ATOM      8  C   UNL d   1      27.405 -13.765   4.293  0.00  0.00     0.240 C 
BRANCH   8   9
ATOM      9  C   UNL d   1      28.008 -13.468   5.659  0.00  0.00    -0.032 A 
ATOM     10  C   UNL d   1      27.826 -12.217   6.275  0.00  0.00     0.009 A 
ATOM     11  C   UNL d   1      28.520 -11.883   7.444  0.00  0.00     0.001 A 
ATOM     12  C   UNL d   1      29.351 -12.819   8.054  0.00  0.00     0.000 A 
ATOM     13  C   UNL d   1      29.520 -14.074   7.473  0.00  0.00     0.001 A 
ATOM     14  C   UNL d   1      28.864 -14.391   6.279  0.00  0.00     0.009 A 
ENDBRANCH   8   9
ENDBRANCH   7   8
ENDBRANCH   3   7
BRANCH   4  15
ATOM     15  C   UNL d   1      27.468 -16.607  -0.558  0.00  0.00     0.120 C 
ATOM     16  C   UNL d   1      27.282 -15.587  -1.743  0.00  0.00     0.035 C 
ATOM     17  C   UNL d   1      25.975 -15.950  -2.511  0.00  0.00     0.041 C 
ATOM     18  C   UNL d   1      25.307 -16.925  -1.606  0.00  0.00    -0.048 A 
ATOM     19  C   UNL d   1      24.029 -17.449  -1.771  0.00  0.00     0.031 A 
ATOM     20  C   UNL d   1      26.083 -17.221  -0.482  0.00  0.00    -0.029 A 
ATOM     21  C   UNL d   1      23.480 -18.188  -0.728  0.00  0.00     0.034 A 
ATOM     22 CL   UNL d   1      21.826 -18.661  -0.790  0.00  0.00    -0.084 Cl
ATOM     23  C   UNL d   1      24.235 -18.482   0.410  0.00  0.00     0.024 A 
ATOM     24  C   UNL d   1      25.544 -18.009   0.531  0.00  0.00     0.011 A 
ENDBRANCH   4  15
TORSDOF 4
ENDMDL
MODEL 3
REMARK VINA RESULT:    -8.092      5.558      7.380
REMARK INTER + INTRA:          -9.919
REMARK INTER:                  -9.286
REMARK INTRA:                  -0.634
REMARK CONF_INDEPENDENT:        1.193
REMARK UNBOUND:                -0.634
REMARK  4 active torsions:
REMARK  status: ('A' for Active; 'I' for Inactive)
REMARK       I    between atoms: C_2  and  N_3 
REMARK       I    between atoms: C_2  and  N_12 
REMARK    1  A    between atoms: N_3  and  O_4 
REMARK    2  A    between atoms: O_4  and  C_5 
REMARK    3  A    between atoms: C_5  and  C_6 
REMARK    4  A    between atoms: C_13  and  N_12 
ROOT
ATOM      1  O   UNL d   1      26.539 -14.825   0.329  0.00  0.00    -0.245 OA
ATOM      2  C   UNL d   1      27.546 -15.249   0.905  0.00  0.00     0.340 C 
ATOM      3  N   UNL d   1      28.207 -16.432   0.568  0.00  0.00    -0.216 N 
ATOM      4  N   UNL d   1      28.138 -14.553   1.937  0.00  0.00    -0.333 N 
ATOM      5  H   UNL d   1      28.922 -16.891   1.119  0.00  0.00     0.199 HD
ATOM      6  H   UNL d   1      28.691 -15.178   2.499  0.00  0.00     0.165 HD
ENDROOT
BRANCH   3   7
ATOM      7  O   UNL d   1      27.660 -17.142  -0.547  0.00  0.00    -0.272 OA
BRANCH   7   8
ATOM      8  C   UNL d   1      26.778 -18.206  -0.145  0.00  0.00     0.240 C 
BRANCH   8   9
ATOM      9  C   UNL d   1      25.320 -17.857  -0.404  0.00  0.00    -0.032 A 
ATOM     10  C   UNL d   1      24.970 -16.734  -1.175  0.00  0.00     0.009 A 
ATOM     11  C   UNL d   1      23.637 -16.315  -1.270  0.00  0.00     0.001 A 
ATOM     12  C   UNL d   1      22.627 -17.050  -0.654  0.00  0.00     0.000 A 
ATOM     13  C   UNL d   1      22.954 -18.182   0.089  0.00  0.00     0.001 A 
ATOM     14  C   UNL d   1      24.290 -18.575   0.224  0.00  0.00     0.009 A 
ENDBRANCH   8   9
ENDBRANCH   7   8
ENDBRANCH   3   7
BRANCH   4  15
ATOM     15  C   UNL d   1      27.488 -13.498   2.756  0.00  0.00     0.120 C 
ATOM     16  C   UNL d   1      27.678 -11.948   2.554  0.00  0.00     0.035 C 
ATOM     17  C   UNL d   1      27.786 -11.272   3.954  0.00  0.00     0.041 C 
ATOM     18  C   UNL d   1      27.964 -12.427   4.877  0.00  0.00    -0.048 A 
ATOM     19  C   UNL d   1      28.250 -12.350   6.236  0.00  0.00     0.031 A 
ATOM     20  C   UNL d   1      27.894 -13.653   4.210  0.00  0.00    -0.029 A 
ATOM     21  C   UNL d   1      28.586 -13.522   6.906  0.00  0.00     0.034 A 
ATOM     22 CL   UNL d   1      29.167 -13.446   8.525  0.00  0.00    -0.084 Cl
ATOM     23  C   UNL d   1      28.536 -14.755   6.253  0.00  0.00     0.024 A 
ATOM     24  C   UNL d   1      28.177 -14.825   4.904  0.00  0.00     0.011 A 
ENDBRANCH   4  15
TORSDOF 4
ENDMDL
MODEL 4
REMARK VINA RESULT:    -7.672      3.770      8.387
REMARK INTER + INTRA:          -9.671
REMARK INTER:                  -8.865
REMARK INTRA:                  -0.805
REMARK CONF_INDEPENDENT:        1.193
REMARK UNBOUND:                -0.805
REMARK  4 active torsions:
REMARK  status: ('A' for Active; 'I' for Inactive)
REMARK       I    between atoms: C_2  and  N_3 
REMARK       I    between atoms: C_2  and  N_12 
REMARK    1  A    between atoms: N_3  and  O_4 
REMARK    2  A    between atoms: O_4  and  C_5 
REMARK    3  A    between atoms: C_5  and  C_6 
REMARK    4  A    between atoms: C_13  and  N_12 
ROOT
ATOM      1  O   UNL d   1      25.458 -16.264  -3.471  0.00  0.00    -0.245 OA
ATOM      2  C   UNL d   1      25.762 -15.189  -2.947  0.00  0.00     0.340 C 
ATOM      3  N   UNL d   1      26.177 -14.058  -3.652  0.00  0.00    -0.216 N 
ATOM      4  N   UNL d   1      25.682 -14.999  -1.584  0.00  0.00    -0.333 N 
ATOM      5  H   UNL d   1      26.592 -13.225  -3.251  0.00  0.00     0.199 HD
ATOM      6  H   UNL d   1      26.278 -14.237  -1.308  0.00  0.00     0.165 HD
ENDROOT
BRANCH   3   7
ATOM      7  O   UNL d   1      26.201 -14.199  -5.076  0.00  0.00    -0.272 OA
BRANCH   7   8
ATOM      8  C   UNL d   1      27.403 -13.669  -5.663  0.00  0.00     0.240 C 
BRANCH   8   9
ATOM      9  C   UNL d   1      28.525 -14.697  -5.676  0.00  0.00    -0.032 A 
ATOM     10  C   UNL d   1      29.334 -14.872  -6.812  0.00  0.00     0.009 A 
ATOM     11  C   UNL d   1      30.247 -15.931  -6.889  0.00  0.00     0.001 A 
ATOM     12  C   UNL d   1      30.416 -16.788  -5.804  0.00  0.00     0.000 A 
ATOM     13  C   UNL d   1      29.642 -16.612  -4.659  0.00  0.00     0.001 A 
ATOM     14  C   UNL d   1      28.695 -15.583  -4.600  0.00  0.00     0.009 A 
ENDBRANCH   8   9
ENDBRANCH   7   8
ENDBRANCH   3   7
BRANCH   4  15
ATOM     15  C   UNL d   1      25.645 -16.074  -0.560  0.00  0.00     0.120 C 
ATOM     16  C   UNL d   1      26.628 -17.303  -0.501  0.00  0.00     0.035 C 
ATOM     17  C   UNL d   1      25.813 -18.575  -0.118  0.00  0.00     0.041 C 
ATOM     18  C   UNL d   1      24.399 -18.131  -0.268  0.00  0.00    -0.048 A 
ATOM     19  C   UNL d   1      23.274 -18.944  -0.177  0.00  0.00     0.031 A 
ATOM     20  C   UNL d   1      24.302 -16.778  -0.602  0.00  0.00    -0.029 A 
ATOM     21  C   UNL d   1      22.043 -18.411  -0.545  0.00  0.00     0.034 A 
ATOM     22 CL   UNL d   1      20.666 -19.436  -0.667  0.00  0.00    -0.084 Cl
ATOM     23  C   UNL d   1      21.928 -17.063  -0.895  0.00  0.00     0.024 A 
ATOM     24  C   UNL d   1      23.057 -16.240  -0.913  0.00  0.00     0.011 A 
ENDBRANCH   4  15
TORSDOF 4
ENDMDL
MODEL 5
REMARK VINA RESULT:    -7.635      5.084      8.437
REMARK INTER + INTRA:          -9.660
REMARK INTER:                  -8.828
REMARK INTRA:                  -0.833
REMARK CONF_INDEPENDENT:        1.193
REMARK UNBOUND:                -0.833
REMARK  4 active torsions:
REMARK  status: ('A' for Active; 'I' for Inactive)
REMARK       I    between atoms: C_2  and  N_3 
REMARK       I    between atoms: C_2  and  N_12 
REMARK    1  A    between atoms: N_3  and  O_4 
REMARK    2  A    between atoms: O_4  and  C_5 
REMARK    3  A    between atoms: C_5  and  C_6 
REMARK    4  A    between atoms: C_13  and  N_12 
ROOT
ATOM      1  O   UNL d   1      29.839 -14.103  -0.283  0.00  0.00    -0.245 OA
ATOM      2  C   UNL d   1      29.665 -14.995   0.552  0.00  0.00     0.340 C 
ATOM      3  N   UNL d   1      30.406 -15.129   1.729  0.00  0.00    -0.216 N 
ATOM      4  N   UNL d   1      28.673 -15.942   0.406  0.00  0.00    -0.333 N 
ATOM      5  H   UNL d   1      30.406 -15.934   2.343  0.00  0.00     0.199 HD
ATOM      6  H   UNL d   1      28.895 -16.757   0.952  0.00  0.00     0.165 HD
ENDROOT
BRANCH   3   7
ATOM      7  O   UNL d   1      31.396 -14.119   1.947  0.00  0.00    -0.272 OA
BRANCH   7   8
ATOM      8  C   UNL d   1      31.337 -13.567   3.274  0.00  0.00     0.240 C 
BRANCH   8   9
ATOM      9  C   UNL d   1      29.981 -13.805   3.923  0.00  0.00    -0.032 A 
ATOM     10  C   UNL d   1      29.806 -14.811   4.889  0.00  0.00     0.009 A 
ATOM     11  C   UNL d   1      28.530 -15.145   5.357  0.00  0.00     0.001 A 
ATOM     12  C   UNL d   1      27.416 -14.432   4.920  0.00  0.00     0.000 A 
ATOM     13  C   UNL d   1      27.574 -13.412   3.984  0.00  0.00     0.001 A 
ATOM     14  C   UNL d   1      28.844 -13.109   3.480  0.00  0.00     0.009 A 
ENDBRANCH   8   9
ENDBRANCH   7   8
ENDBRANCH   3   7
BRANCH   4  15
ATOM     15  C   UNL d   1      27.992 -16.293  -0.866  0.00  0.00     0.120 C 
ATOM     16  C   UNL d   1      27.607 -15.271  -2.001  0.00  0.00     0.035 C 
ATOM     17  C   UNL d   1      26.197 -15.643  -2.549  0.00  0.00     0.041 C 
ATOM     18  C   UNL d   1      25.692 -16.627  -1.551  0.00  0.00    -0.048 A 
ATOM     19  C   UNL d   1      24.409 -17.161  -1.509  0.00  0.00     0.031 A 
ATOM     20  C   UNL d   1      26.642 -16.919  -0.570  0.00  0.00    -0.029 A 
ATOM     21  C   UNL d   1      24.042 -17.909  -0.395  0.00  0.00     0.034 A 
ATOM     22 CL   UNL d   1      22.404 -18.395  -0.190  0.00  0.00    -0.084 Cl
ATOM     23  C   UNL d   1      24.974 -18.200   0.604  0.00  0.00     0.024 A 
ATOM     24  C   UNL d   1      26.281 -17.715   0.513  0.00  0.00     0.011 A 
ENDBRANCH   4  15
TORSDOF 4
ENDMDL
MODEL 6
REMARK VINA RESULT:    -7.496      4.303      8.476
REMARK INTER + INTRA:          -9.229
REMARK INTER:                  -8.689
REMARK INTRA:                  -0.540
REMARK CONF_INDEPENDENT:        1.193
REMARK UNBOUND:                -0.540
REMARK  4 active torsions:
REMARK  status: ('A' for Active; 'I' for Inactive)
REMARK       I    between atoms: C_2  and  N_3 
REMARK       I    between atoms: C_2  and  N_12 
REMARK    1  A    between atoms: N_3  and  O_4 
REMARK    2  A    between atoms: O_4  and  C_5 
REMARK    3  A    between atoms: C_5  and  C_6 
REMARK    4  A    between atoms: C_13  and  N_12 
ROOT
ATOM      1  O   UNL d   1      25.156 -15.988  -3.127  0.00  0.00    -0.245 OA
ATOM      2  C   UNL d   1      25.720 -15.028  -2.593  0.00  0.00     0.340 C 
ATOM      3  N   UNL d   1      26.256 -13.942  -3.288  0.00  0.00    -0.216 N 
ATOM      4  N   UNL d   1      25.842 -14.930  -1.223  0.00  0.00    -0.333 N 
ATOM      5  H   UNL d   1      26.866 -13.232  -2.903  0.00  0.00     0.199 HD
ATOM      6  H   UNL d   1      26.601 -14.312  -0.990  0.00  0.00     0.165 HD
ENDROOT
BRANCH   3   7
ATOM      7  O   UNL d   1      26.081 -13.978  -4.708  0.00  0.00    -0.272 OA
BRANCH   7   8
ATOM      8  C   UNL d   1      26.807 -12.933  -5.379  0.00  0.00     0.240 C 
BRANCH   8   9
ATOM      9  C   UNL d   1      26.175 -11.569  -5.146  0.00  0.00    -0.032 A 
ATOM     10  C   UNL d   1      25.874 -10.716  -6.224  0.00  0.00     0.009 A 
ATOM     11  C   UNL d   1      25.456  -9.398  -6.002  0.00  0.00     0.001 A 
ATOM     12  C   UNL d   1      25.265  -8.934  -4.703  0.00  0.00     0.000 A 
ATOM     13  C   UNL d   1      25.530  -9.775  -3.625  0.00  0.00     0.001 A 
ATOM     14  C   UNL d   1      25.995 -11.077  -3.844  0.00  0.00     0.009 A 
ENDBRANCH   8   9
ENDBRANCH   7   8
ENDBRANCH   3   7
BRANCH   4  15
ATOM     15  C   UNL d   1      25.725 -16.054  -0.260  0.00  0.00     0.120 C 
ATOM     16  C   UNL d   1      26.686 -17.300  -0.199  0.00  0.00     0.035 C 
ATOM     17  C   UNL d   1      25.832 -18.577   0.063  0.00  0.00     0.041 C 
ATOM     18  C   UNL d   1      24.437 -18.105  -0.158  0.00  0.00    -0.048 A 
ATOM     19  C   UNL d   1      23.300 -18.905  -0.183  0.00  0.00     0.031 A 
ATOM     20  C   UNL d   1      24.379 -16.735  -0.427  0.00  0.00    -0.029 A 
ATOM     21  C   UNL d   1      22.102 -18.334  -0.603  0.00  0.00     0.034 A 
ATOM     22 CL   UNL d   1      20.725 -19.332  -0.869  0.00  0.00    -0.084 Cl
ATOM     23  C   UNL d   1      22.027 -16.969  -0.891  0.00  0.00     0.024 A 
ATOM     24  C   UNL d   1      23.164 -16.163  -0.793  0.00  0.00     0.011 A 
ENDBRANCH   4  15
TORSDOF 4
ENDMDL
MODEL 7
REMARK VINA RESULT:    -7.376      5.472      8.465
REMARK INTER + INTRA:          -9.242
REMARK INTER:                  -8.569
REMARK INTRA:                  -0.673
REMARK CONF_INDEPENDENT:        1.193
REMARK UNBOUND:                -0.673
REMARK  4 active torsions:
REMARK  status: ('A' for Active; 'I' for Inactive)
REMARK       I    between atoms: C_2  and  N_3 
REMARK       I    between atoms: C_2  and  N_12 
REMARK    1  A    between atoms: N_3  and  O_4 
REMARK    2  A    between atoms: O_4  and  C_5 
REMARK    3  A    between atoms: C_5  and  C_6 
REMARK    4  A    between atoms: C_13  and  N_12 
ROOT
ATOM      1  O   UNL d   1      27.358 -14.040   0.761  0.00  0.00    -0.245 OA
ATOM      2  C   UNL d   1      28.036 -14.960   1.227  0.00  0.00     0.340 C 
ATOM      3  N   UNL d   1      28.916 -14.825   2.302  0.00  0.00    -0.216 N 
ATOM      4  N   UNL d   1      27.953 -16.245   0.731  0.00  0.00    -0.333 N 
ATOM      5  H   UNL d   1      29.605 -15.506   2.597  0.00  0.00     0.199 HD
ATOM      6  H   UNL d   1      28.788 -16.756   0.964  0.00  0.00     0.165 HD
ENDROOT
BRANCH   3   7
ATOM      7  O   UNL d   1      28.971 -13.520   2.887  0.00  0.00    -0.272 OA
BRANCH   7   8
ATOM      8  C   UNL d   1      27.723 -13.134   3.492  0.00  0.00     0.240 C 
BRANCH   8   9
ATOM      9  C   UNL d   1      27.404 -11.668   3.237  0.00  0.00    -0.032 A 
ATOM     10  C   UNL d   1      27.709 -10.683   4.193  0.00  0.00     0.009 A 
ATOM     11  C   UNL d   1      27.262  -9.366   4.036  0.00  0.00     0.001 A 
ATOM     12  C   UNL d   1      26.563  -8.997   2.888  0.00  0.00     0.000 A 
ATOM     13  C   UNL d   1      26.277  -9.954   1.918  0.00  0.00     0.001 A 
ATOM     14  C   UNL d   1      26.683 -11.282   2.096  0.00  0.00     0.009 A 
ENDBRANCH   8   9
ENDBRANCH   7   8
ENDBRANCH   3   7
BRANCH   4  15
ATOM     15  C   UNL d   1      27.422 -16.626  -0.602  0.00  0.00     0.120 C 
ATOM     16  C   UNL d   1      27.202 -15.636  -1.807  0.00  0.00     0.035 C 
ATOM     17  C   UNL d   1      25.859 -15.997  -2.510  0.00  0.00     0.041 C 
ATOM     18  C   UNL d   1      25.214 -16.935  -1.550  0.00  0.00    -0.048 A 
ATOM     19  C   UNL d   1      23.921 -17.440  -1.646  0.00  0.00     0.031 A 
ATOM     20  C   UNL d   1      26.031 -17.213  -0.451  0.00  0.00    -0.029 A 
ATOM     21  C   UNL d   1      23.405 -18.141  -0.561  0.00  0.00     0.034 A 
ATOM     22 CL   UNL d   1      21.742 -18.586  -0.541  0.00  0.00    -0.084 Cl
ATOM     23  C   UNL d   1      24.202 -18.417   0.553  0.00  0.00     0.024 A 
ATOM     24  C   UNL d   1      25.522 -17.963   0.605  0.00  0.00     0.011 A 
ENDBRANCH   4  15
TORSDOF 4
ENDMDL
MODEL 8
REMARK VINA RESULT:    -7.282      5.817      7.558
REMARK INTER + INTRA:          -8.950
REMARK INTER:                  -8.475
REMARK INTRA:                  -0.474
REMARK CONF_INDEPENDENT:        1.193
REMARK UNBOUND:                -0.474
REMARK  4 active torsions:
REMARK  status: ('A' for Active; 'I' for Inactive)
REMARK       I    between atoms: C_2  and  N_3 
REMARK       I    between atoms: C_2  and  N_12 
REMARK    1  A    between atoms: N_3  and  O_4 
REMARK    2  A    between atoms: O_4  and  C_5 
REMARK    3  A    between atoms: C_5  and  C_6 
REMARK    4  A    between atoms: C_13  and  N_12 
ROOT
ATOM      1  O   UNL d   1      27.554 -13.740   0.818  0.00  0.00    -0.245 OA
ATOM      2  C   UNL d   1      28.294 -14.673   1.143  0.00  0.00     0.340 C 
ATOM      3  N   UNL d   1      28.075 -16.009   0.803  0.00  0.00    -0.216 N 
ATOM      4  N   UNL d   1      29.453 -14.463   1.861  0.00  0.00    -0.333 N 
ATOM      5  H   UNL d   1      28.560 -16.810   1.189  0.00  0.00     0.199 HD
ATOM      6  H   UNL d   1      29.725 -15.312   2.327  0.00  0.00     0.165 HD
ENDROOT
BRANCH   3   7
ATOM      7  O   UNL d   1      26.919 -16.253  -0.005  0.00  0.00    -0.272 OA
BRANCH   7   8
ATOM      8  C   UNL d   1      26.407 -17.588   0.152  0.00  0.00     0.240 C 
BRANCH   8   9
ATOM      9  C   UNL d   1      24.943 -17.681  -0.251  0.00  0.00    -0.032 A 
ATOM     10  C   UNL d   1      24.217 -16.533  -0.615  0.00  0.00     0.009 A 
ATOM     11  C   UNL d   1      22.833 -16.591  -0.817  0.00  0.00     0.001 A 
ATOM     12  C   UNL d   1      22.164 -17.809  -0.727  0.00  0.00     0.000 A 
ATOM     13  C   UNL d   1      22.872 -18.962  -0.396  0.00  0.00     0.001 A 
ATOM     14  C   UNL d   1      24.248 -18.896  -0.147  0.00  0.00     0.009 A 
ENDBRANCH   8   9
ENDBRANCH   7   8
ENDBRANCH   3   7
BRANCH   4  15
ATOM     15  C   UNL d   1      29.762 -13.259   2.674  0.00  0.00     0.120 C 
ATOM     16  C   UNL d   1      31.168 -12.555   2.753  0.00  0.00     0.035 C 
ATOM     17  C   UNL d   1      31.433 -12.135   4.230  0.00  0.00     0.041 C 
ATOM     18  C   UNL d   1      30.368 -12.852   4.984  0.00  0.00    -0.048 A 
ATOM     19  C   UNL d   1      30.253 -12.920   6.369  0.00  0.00     0.031 A 
ATOM     20  C   UNL d   1      29.499 -13.549   4.140  0.00  0.00    -0.029 A 
ATOM     21  C   UNL d   1      29.320 -13.798   6.911  0.00  0.00     0.034 A 
ATOM     22 CL   UNL d   1      29.298 -14.086   8.608  0.00  0.00    -0.084 Cl
ATOM     23  C   UNL d   1      28.452 -14.515   6.083  0.00  0.00     0.024 A 
ATOM     24  C   UNL d   1      28.532 -14.382   4.694  0.00  0.00     0.011 A 
ENDBRANCH   4  15
TORSDOF 4
ENDMDL
MODEL 9
REMARK VINA RESULT:    -7.131      5.883      7.383
REMARK INTER + INTRA:          -8.918
REMARK INTER:                  -8.324
REMARK INTRA:                  -0.594
REMARK CONF_INDEPENDENT:        1.193
REMARK UNBOUND:                -0.594
REMARK  4 active torsions:
REMARK  status: ('A' for Active; 'I' for Inactive)
REMARK       I    between atoms: C_2  and  N_3 
REMARK       I    between atoms: C_2  and  N_12 
REMARK    1  A    between atoms: N_3  and  O_4 
REMARK    2  A    between atoms: O_4  and  C_5 
REMARK    3  A    between atoms: C_5  and  C_6 
REMARK    4  A    between atoms: C_13  and  N_12 
ROOT
ATOM      1  O   UNL d   1      27.087 -13.899   2.196  0.00  0.00    -0.245 OA
ATOM      2  C   UNL d   1      28.066 -14.638   2.058  0.00  0.00     0.340 C 
ATOM      3  N   UNL d   1      28.195 -15.597   1.051  0.00  0.00    -0.216 N 
ATOM      4  N   UNL d   1      29.161 -14.553   2.892  0.00  0.00    -0.333 N 
ATOM      5  H   UNL d   1      28.896 -16.326   1.010  0.00  0.00     0.199 HD
ATOM      6  H   UNL d   1      29.675 -15.418   2.871  0.00  0.00     0.165 HD
ENDROOT
BRANCH   3   7
ATOM      7  O   UNL d   1      27.106 -15.660   0.125  0.00  0.00    -0.272 OA
BRANCH   7   8
ATOM      8  C   UNL d   1      26.820 -17.005  -0.299  0.00  0.00     0.240 C 
BRANCH   8   9
ATOM      9  C   UNL d   1      25.323 -17.259  -0.395  0.00  0.00    -0.032 A 
ATOM     10  C   UNL d   1      24.461 -16.303  -0.962  0.00  0.00     0.009 A 
ATOM     11  C   UNL d   1      23.071 -16.459  -0.895  0.00  0.00     0.001 A 
ATOM     12  C   UNL d   1      22.523 -17.604  -0.323  0.00  0.00     0.000 A 
ATOM     13  C   UNL d   1      23.363 -18.575   0.217  0.00  0.00     0.001 A 
ATOM     14  C   UNL d   1      24.751 -18.398   0.193  0.00  0.00     0.009 A 
ENDBRANCH   8   9
ENDBRANCH   7   8
ENDBRANCH   3   7
BRANCH   4  15
ATOM     15  C   UNL d   1      29.178 -13.929   4.239  0.00  0.00     0.120 C 
ATOM     16  C   UNL d   1      28.269 -14.362   5.450  0.00  0.00     0.035 C 
ATOM     17  C   UNL d   1      27.781 -13.080   6.190  0.00  0.00     0.041 C 
ATOM     18  C   UNL d   1      28.141 -11.985   5.248  0.00  0.00    -0.048 A 
ATOM     19  C   UNL d   1      27.788 -10.646   5.380  0.00  0.00     0.031 A 
ATOM     20  C   UNL d   1      28.829 -12.456   4.127  0.00  0.00    -0.029 A 
ATOM     21  C   UNL d   1      28.031  -9.792   4.309  0.00  0.00     0.034 A 
ATOM     22 CL   UNL d   1      27.409  -8.187   4.335  0.00  0.00    -0.084 Cl
ATOM     23  C   UNL d   1      28.705 -10.248   3.173  0.00  0.00     0.024 A 
ATOM     24  C   UNL d   1      29.116 -11.580   3.084  0.00  0.00     0.011 A 
ENDBRANCH   4  15
TORSDOF 4
ENDMDL
