MODEL 1
REMARK VINA RESULT:    -7.321      0.000      0.000
REMARK INTER + INTRA:         -12.964
REMARK INTER:                 -10.602
REMARK INTRA:                  -2.362
REMARK CONF_INDEPENDENT:        3.281
REMARK UNBOUND:                -2.362
REMARK  11 active torsions:
REMARK  status: ('A' for Active; 'I' for Inactive)
REMARK       I    between atoms: C_2  and  N_3 
REMARK       I    between atoms: C_2  and  N_23 
REMARK    1  A    between atoms: N_3  and  C_4 
REMARK    2  A    between atoms: C_4  and  C_5 
REMARK    3  A    between atoms: C_5  and  C_6 
REMARK    4  A    between atoms: C_6  and  C_7 
REMARK    5  A    between atoms: C_7  and  C_8 
REMARK    6  A    between atoms: C_8  and  C_9 
REMARK    7  A    between atoms: C_9  and  N_10 
REMARK       I    between atoms: N_10  and  C_11 
REMARK       I    between atoms: C_11  and  N_13 
REMARK    8  A    between atoms: N_13  and  C_14 
REMARK    9  A    between atoms: C_18  and  N_19 
REMARK   10  A    between atoms: N_23  and  C_24 
REMARK   11  A    between atoms: C_28  and  N_29 
ROOT
ATOM      1  C   UNL d   1      27.548 -10.701  -3.059  0.00  0.00     0.002 C 
ENDROOT
BRANCH   1   2
ATOM      2  C   UNL d   1      28.726 -11.667  -2.928  0.00  0.00     0.020 C 
BRANCH   2   3
ATOM      3  C   UNL d   1      29.557 -11.351  -1.684  0.00  0.00     0.124 C 
BRANCH   3   4
ATOM      4  N   UNL d   1      28.788 -11.533  -0.475  0.00  0.00    -0.343 N 
ATOM      5  C   UNL d   1      27.972 -12.607  -0.263  0.00  0.00     0.320 C 
ATOM      6  O   UNL d   1      27.803 -13.502  -1.095  0.00  0.00    -0.247 OA
ATOM      7  N   UNL d   1      27.383 -12.700   0.974  0.00  0.00    -0.309 N 
ATOM      8  H   UNL d   1      26.930 -13.592   1.139  0.00  0.00     0.170 HD
ATOM      9  H   UNL d   1      29.030 -10.954   0.313  0.00  0.00     0.164 HD
BRANCH   7  10
ATOM     10  C   UNL d   1      27.319 -11.734   1.990  0.00  0.00     0.038 A 
ATOM     11  C   UNL d   1      27.847 -12.009   3.254  0.00  0.00     0.030 A 
ATOM     12  C   UNL d   1      27.780 -11.041   4.266  0.00  0.00     0.005 A 
ATOM     13  C   UNL d   1      27.212  -9.790   4.011  0.00  0.00     0.036 A 
ATOM     14  C   UNL d   1      26.649  -9.542   2.757  0.00  0.00     0.105 A 
ATOM     15  C   UNL d   1      26.684 -10.516   1.760  0.00  0.00     0.065 A 
BRANCH  14  16
ATOM     16  N   UNL d   1      25.982  -8.270   2.469  0.00  0.00    -0.116 N 
ATOM     17  O   UNL d   1      26.281  -7.293   3.165  0.00  0.00    -0.532 OA
ATOM     18  O   UNL d   1      25.160  -8.251   1.539  0.00  0.00    -0.532 OA
ENDBRANCH  14  16
ENDBRANCH   7  10
ENDBRANCH   3   4
ENDBRANCH   2   3
ENDBRANCH   1   2
BRANCH   1  19
ATOM     19  C   UNL d   1      26.242 -11.430  -3.383  0.00  0.00     0.002 C 
BRANCH  19  20
ATOM     20  C   UNL d   1      26.260 -11.988  -4.815  0.00  0.00     0.020 C 
BRANCH  20  21
ATOM     21  C   UNL d   1      26.360 -13.511  -4.827  0.00  0.00     0.124 C 
BRANCH  21  22
ATOM     22  N   UNL d   1      26.743 -14.092  -3.543  0.00  0.00    -0.343 N 
ATOM     23  C   UNL d   1      25.865 -14.951  -2.920  0.00  0.00     0.320 C 
ATOM     24  O   UNL d   1      24.780 -15.219  -3.432  0.00  0.00    -0.247 OA
ATOM     25  N   UNL d   1      26.289 -15.443  -1.696  0.00  0.00    -0.309 N 
ATOM     26  H   UNL d   1      27.083 -15.018  -1.240  0.00  0.00     0.170 HD
ATOM     27  H   UNL d   1      27.649 -13.891  -3.149  0.00  0.00     0.164 HD
BRANCH  25  28
ATOM     28  C   UNL d   1      25.570 -16.443  -0.986  0.00  0.00     0.038 A 
ATOM     29  C   UNL d   1      26.197 -17.287  -0.058  0.00  0.00     0.030 A 
ATOM     30  C   UNL d   1      25.486 -18.346   0.540  0.00  0.00     0.005 A 
ATOM     31  C   UNL d   1      24.139 -18.556   0.236  0.00  0.00     0.036 A 
ATOM     32  C   UNL d   1      23.516 -17.710  -0.686  0.00  0.00     0.105 A 
ATOM     33  C   UNL d   1      24.220 -16.658  -1.279  0.00  0.00     0.065 A 
BRANCH  32  34
ATOM     34  N   UNL d   1      22.135 -17.966  -1.109  0.00  0.00    -0.116 N 
ATOM     35  O   UNL d   1      21.897 -19.037  -1.683  0.00  0.00    -0.532 OA
ATOM     36  O   UNL d   1      21.289 -17.083  -0.895  0.00  0.00    -0.532 OA
ENDBRANCH  32  34
ENDBRANCH  25  28
ENDBRANCH  21  22
ENDBRANCH  20  21
ENDBRANCH  19  20
ENDBRANCH   1  19
TORSDOF 11
ENDMDL
MODEL 2
REMARK VINA RESULT:    -6.474      1.606      7.653
REMARK INTER + INTRA:         -12.433
REMARK INTER:                  -9.755
REMARK INTRA:                  -2.678
REMARK CONF_INDEPENDENT:        3.281
REMARK UNBOUND:                -2.678
REMARK  11 active torsions:
REMARK  status: ('A' for Active; 'I' for Inactive)
REMARK       I    between atoms: C_2  and  N_3 
REMARK       I    between atoms: C_2  and  N_23 
REMARK    1  A    between atoms: N_3  and  C_4 
REMARK    2  A    between atoms: C_4  and  C_5 
REMARK    3  A    between atoms: C_5  and  C_6 
REMARK    4  A    between atoms: C_6  and  C_7 
REMARK    5  A    between atoms: C_7  and  C_8 
REMARK    6  A    between atoms: C_8  and  C_9 
REMARK    7  A    between atoms: C_9  and  N_10 
REMARK       I    between atoms: N_10  and  C_11 
REMARK       I    between atoms: C_11  and  N_13 
REMARK    8  A    between atoms: N_13  and  C_14 
REMARK    9  A    between atoms: C_18  and  N_19 
REMARK   10  A    between atoms: N_23  and  C_24 
REMARK   11  A    between atoms: C_28  and  N_29 
ROOT
ATOM      1  C   UNL d   1      28.847 -14.693  -4.263  0.00  0.00     0.002 C 
ENDROOT
BRANCH   1   2
ATOM      2  C   UNL d   1      27.851 -15.548  -5.048  0.00  0.00     0.020 C 
BRANCH   2   3
ATOM      3  C   UNL d   1      26.415 -15.081  -4.797  0.00  0.00     0.124 C 
BRANCH   3   4
ATOM      4  N   UNL d   1      25.988 -15.389  -3.451  0.00  0.00    -0.343 N 
ATOM      5  C   UNL d   1      26.105 -14.511  -2.411  0.00  0.00     0.320 C 
ATOM      6  O   UNL d   1      26.607 -13.390  -2.527  0.00  0.00    -0.247 OA
ATOM      7  N   UNL d   1      25.563 -14.901  -1.212  0.00  0.00    -0.309 N 
ATOM      8  H   UNL d   1      25.524 -14.155  -0.526  0.00  0.00     0.170 HD
ATOM      9  H   UNL d   1      25.397 -16.195  -3.332  0.00  0.00     0.164 HD
BRANCH   7  10
ATOM     10  C   UNL d   1      25.095 -16.168  -0.831  0.00  0.00     0.038 A 
ATOM     11  C   UNL d   1      25.931 -17.046  -0.136  0.00  0.00     0.030 A 
ATOM     12  C   UNL d   1      25.459 -18.311   0.243  0.00  0.00     0.005 A 
ATOM     13  C   UNL d   1      24.146 -18.689  -0.046  0.00  0.00     0.036 A 
ATOM     14  C   UNL d   1      23.332 -17.820  -0.778  0.00  0.00     0.105 A 
ATOM     15  C   UNL d   1      23.811 -16.577  -1.185  0.00  0.00     0.065 A 
BRANCH  14  16
ATOM     16  N   UNL d   1      21.972 -18.206  -1.161  0.00  0.00    -0.116 N 
ATOM     17  O   UNL d   1      21.053 -17.424  -0.891  0.00  0.00    -0.532 OA
ATOM     18  O   UNL d   1      21.826 -19.294  -1.740  0.00  0.00    -0.532 OA
ENDBRANCH  14  16
ENDBRANCH   7  10
ENDBRANCH   3   4
ENDBRANCH   2   3
ENDBRANCH   1   2
BRANCH   1  19
ATOM     19  C   UNL d   1      29.511 -15.482  -3.132  0.00  0.00     0.002 C 
BRANCH  19  20
ATOM     20  C   UNL d   1      30.905 -14.922  -2.810  0.00  0.00     0.020 C 
BRANCH  20  21
ATOM     21  C   UNL d   1      30.834 -13.481  -2.310  0.00  0.00     0.124 C 
BRANCH  21  22
ATOM     22  N   UNL d   1      29.512 -13.082  -1.834  0.00  0.00    -0.343 N 
ATOM     23  C   UNL d   1      29.397 -12.580  -0.556  0.00  0.00     0.320 C 
ATOM     24  O   UNL d   1      30.384 -12.476   0.169  0.00  0.00    -0.247 OA
ATOM     25  N   UNL d   1      28.109 -12.245  -0.169  0.00  0.00    -0.309 N 
ATOM     26  H   UNL d   1      27.328 -12.555  -0.727  0.00  0.00     0.170 HD
ATOM     27  H   UNL d   1      28.716 -13.141  -2.449  0.00  0.00     0.164 HD
BRANCH  25  28
ATOM     28  C   UNL d   1      27.830 -11.589   1.062  0.00  0.00     0.038 A 
ATOM     29  C   UNL d   1      28.071 -12.203   2.299  0.00  0.00     0.030 A 
ATOM     30  C   UNL d   1      27.674 -11.579   3.497  0.00  0.00     0.005 A 
ATOM     31  C   UNL d   1      27.055 -10.326   3.472  0.00  0.00     0.036 A 
ATOM     32  C   UNL d   1      26.821  -9.714   2.237  0.00  0.00     0.105 A 
ATOM     33  C   UNL d   1      27.216 -10.333   1.047  0.00  0.00     0.065 A 
BRANCH  32  34
ATOM     34  N   UNL d   1      26.081  -8.450   2.166  0.00  0.00    -0.116 N 
ATOM     35  O   UNL d   1      25.311  -8.286   1.210  0.00  0.00    -0.532 OA
ATOM     36  O   UNL d   1      26.289  -7.605   3.050  0.00  0.00    -0.532 OA
ENDBRANCH  32  34
ENDBRANCH  25  28
ENDBRANCH  21  22
ENDBRANCH  20  21
ENDBRANCH  19  20
ENDBRANCH   1  19
TORSDOF 11
ENDMDL
MODEL 3
REMARK VINA RESULT:    -6.126      3.005      7.030
REMARK INTER + INTRA:         -12.359
REMARK INTER:                  -9.408
REMARK INTRA:                  -2.952
REMARK CONF_INDEPENDENT:        3.281
REMARK UNBOUND:                -2.952
REMARK  11 active torsions:
REMARK  status: ('A' for Active; 'I' for Inactive)
REMARK       I    between atoms: C_2  and  N_3 
REMARK       I    between atoms: C_2  and  N_23 
REMARK    1  A    between atoms: N_3  and  C_4 
REMARK    2  A    between atoms: C_4  and  C_5 
REMARK    3  A    between atoms: C_5  and  C_6 
REMARK    4  A    between atoms: C_6  and  C_7 
REMARK    5  A    between atoms: C_7  and  C_8 
REMARK    6  A    between atoms: C_8  and  C_9 
REMARK    7  A    between atoms: C_9  and  N_10 
REMARK       I    between atoms: N_10  and  C_11 
REMARK       I    between atoms: C_11  and  N_13 
REMARK    8  A    between atoms: N_13  and  C_14 
REMARK    9  A    between atoms: C_18  and  N_19 
REMARK   10  A    between atoms: N_23  and  C_24 
REMARK   11  A    between atoms: C_28  and  N_29 
ROOT
ATOM      1  C   UNL d   1      26.790 -13.428   2.103  0.00  0.00     0.002 C 
ENDROOT
BRANCH   1   2
ATOM      2  C   UNL d   1      27.187 -12.245   1.220  0.00  0.00     0.020 C 
BRANCH   2   3
ATOM      3  C   UNL d   1      27.740 -12.726  -0.123  0.00  0.00     0.124 C 
BRANCH   3   4
ATOM      4  N   UNL d   1      26.978 -13.840  -0.638  0.00  0.00    -0.343 N 
ATOM      5  C   UNL d   1      26.536 -13.911  -1.929  0.00  0.00     0.320 C 
ATOM      6  O   UNL d   1      26.729 -13.018  -2.759  0.00  0.00    -0.247 OA
ATOM      7  N   UNL d   1      25.914 -15.075  -2.305  0.00  0.00    -0.309 N 
ATOM      8  H   UNL d   1      25.760 -15.145  -3.305  0.00  0.00     0.170 HD
ATOM      9  H   UNL d   1      26.959 -14.679  -0.080  0.00  0.00     0.164 HD
BRANCH   7  10
ATOM     10  C   UNL d   1      25.464 -16.130  -1.496  0.00  0.00     0.038 A 
ATOM     11  C   UNL d   1      26.329 -16.726  -0.573  0.00  0.00     0.030 A 
ATOM     12  C   UNL d   1      25.875 -17.780   0.231  0.00  0.00     0.005 A 
ATOM     13  C   UNL d   1      24.552 -18.222   0.137  0.00  0.00     0.036 A 
ATOM     14  C   UNL d   1      23.710 -17.648  -0.818  0.00  0.00     0.105 A 
ATOM     15  C   UNL d   1      24.170 -16.624  -1.644  0.00  0.00     0.065 A 
BRANCH  14  16
ATOM     16  N   UNL d   1      22.338 -18.129  -0.998  0.00  0.00    -0.116 N 
ATOM     17  O   UNL d   1      21.422 -17.450  -0.520  0.00  0.00    -0.532 OA
ATOM     18  O   UNL d   1      22.179 -19.188  -1.625  0.00  0.00    -0.532 OA
ENDBRANCH  14  16
ENDBRANCH   7  10
ENDBRANCH   3   4
ENDBRANCH   2   3
ENDBRANCH   1   2
BRANCH   1  19
ATOM     19  C   UNL d   1      27.978 -14.349   2.393  0.00  0.00     0.002 C 
BRANCH  19  20
ATOM     20  C   UNL d   1      29.268 -13.541   2.600  0.00  0.00     0.020 C 
BRANCH  20  21
ATOM     21  C   UNL d   1      30.374 -13.988   1.648  0.00  0.00     0.124 C 
BRANCH  21  22
ATOM     22  N   UNL d   1      30.111 -15.264   0.988  0.00  0.00    -0.343 N 
ATOM     23  C   UNL d   1      30.031 -15.291  -0.387  0.00  0.00     0.320 C 
ATOM     24  O   UNL d   1      30.172 -14.261  -1.044  0.00  0.00    -0.247 OA
ATOM     25  N   UNL d   1      29.756 -16.532  -0.937  0.00  0.00    -0.309 N 
ATOM     26  H   UNL d   1      29.442 -17.281  -0.338  0.00  0.00     0.170 HD
ATOM     27  H   UNL d   1      30.030 -16.106   1.535  0.00  0.00     0.164 HD
BRANCH  25  28
ATOM     28  C   UNL d   1      29.775 -16.765  -2.340  0.00  0.00     0.038 A 
ATOM     29  C   UNL d   1      30.761 -17.556  -2.946  0.00  0.00     0.030 A 
ATOM     30  C   UNL d   1      30.825 -17.670  -4.348  0.00  0.00     0.005 A 
ATOM     31  C   UNL d   1      29.891 -17.016  -5.156  0.00  0.00     0.036 A 
ATOM     32  C   UNL d   1      28.906 -16.232  -4.548  0.00  0.00     0.105 A 
ATOM     33  C   UNL d   1      28.841 -16.119  -3.156  0.00  0.00     0.065 A 
BRANCH  32  34
ATOM     34  N   UNL d   1      27.976 -15.448  -5.367  0.00  0.00    -0.116 N 
ATOM     35  O   UNL d   1      28.457 -14.678  -6.209  0.00  0.00    -0.532 OA
ATOM     36  O   UNL d   1      26.761 -15.575  -5.149  0.00  0.00    -0.532 OA
ENDBRANCH  32  34
ENDBRANCH  25  28
ENDBRANCH  21  22
ENDBRANCH  20  21
ENDBRANCH  19  20
ENDBRANCH   1  19
TORSDOF 11
ENDMDL
MODEL 4
REMARK VINA RESULT:    -5.772      4.221      6.675
REMARK INTER + INTRA:         -12.411
REMARK INTER:                  -9.054
REMARK INTRA:                  -3.357
REMARK CONF_INDEPENDENT:        3.281
REMARK UNBOUND:                -3.357
REMARK  11 active torsions:
REMARK  status: ('A' for Active; 'I' for Inactive)
REMARK       I    between atoms: C_2  and  N_3 
REMARK       I    between atoms: C_2  and  N_23 
REMARK    1  A    between atoms: N_3  and  C_4 
REMARK    2  A    between atoms: C_4  and  C_5 
REMARK    3  A    between atoms: C_5  and  C_6 
REMARK    4  A    between atoms: C_6  and  C_7 
REMARK    5  A    between atoms: C_7  and  C_8 
REMARK    6  A    between atoms: C_8  and  C_9 
REMARK    7  A    between atoms: C_9  and  N_10 
REMARK       I    between atoms: N_10  and  C_11 
REMARK       I    between atoms: C_11  and  N_13 
REMARK    8  A    between atoms: N_13  and  C_14 
REMARK    9  A    between atoms: C_18  and  N_19 
REMARK   10  A    between atoms: N_23  and  C_24 
REMARK   11  A    between atoms: C_28  and  N_29 
ROOT
ATOM      1  C   UNL d   1      28.351 -10.329  -3.418  0.00  0.00     0.002 C 
ENDROOT
BRANCH   1   2
ATOM      2  C   UNL d   1      29.854 -10.255  -3.692  0.00  0.00     0.020 C 
BRANCH   2   3
ATOM      3  C   UNL d   1      30.126  -9.900  -5.155  0.00  0.00     0.124 C 
BRANCH   3   4
ATOM      4  N   UNL d   1      30.278 -11.087  -5.966  0.00  0.00    -0.343 N 
ATOM      5  C   UNL d   1      30.412 -11.051  -7.325  0.00  0.00     0.320 C 
ATOM      6  O   UNL d   1      30.393 -10.004  -7.978  0.00  0.00    -0.247 OA
ATOM      7  N   UNL d   1      30.651 -12.248  -7.952  0.00  0.00    -0.309 N 
ATOM      8  H   UNL d   1      30.912 -12.147  -8.927  0.00  0.00     0.170 HD
ATOM      9  H   UNL d   1      30.500 -11.944  -5.486  0.00  0.00     0.164 HD
BRANCH   7  10
ATOM     10  C   UNL d   1      30.560 -13.547  -7.429  0.00  0.00     0.038 A 
ATOM     11  C   UNL d   1      31.576 -14.475  -7.672  0.00  0.00     0.030 A 
ATOM     12  C   UNL d   1      31.480 -15.772  -7.147  0.00  0.00     0.005 A 
ATOM     13  C   UNL d   1      30.386 -16.135  -6.358  0.00  0.00     0.036 A 
ATOM     14  C   UNL d   1      29.356 -15.213  -6.157  0.00  0.00     0.105 A 
ATOM     15  C   UNL d   1      29.433 -13.935  -6.707  0.00  0.00     0.065 A 
BRANCH  14  16
ATOM     16  N   UNL d   1      28.160 -15.575  -5.394  0.00  0.00    -0.116 N 
ATOM     17  O   UNL d   1      27.065 -15.493  -5.965  0.00  0.00    -0.532 OA
ATOM     18  O   UNL d   1      28.318 -15.948  -4.221  0.00  0.00    -0.532 OA
ENDBRANCH  14  16
ENDBRANCH   7  10
ENDBRANCH   3   4
ENDBRANCH   2   3
ENDBRANCH   1   2
BRANCH   1  19
ATOM     19  C   UNL d   1      27.640 -11.284  -4.381  0.00  0.00     0.002 C 
BRANCH  19  20
ATOM     20  C   UNL d   1      26.212 -11.589  -3.905  0.00  0.00     0.020 C 
BRANCH  20  21
ATOM     21  C   UNL d   1      25.678 -12.884  -4.511  0.00  0.00     0.124 C 
BRANCH  21  22
ATOM     22  N   UNL d   1      26.203 -14.095  -3.885  0.00  0.00    -0.343 N 
ATOM     23  C   UNL d   1      25.449 -14.712  -2.911  0.00  0.00     0.320 C 
ATOM     24  O   UNL d   1      24.361 -14.251  -2.574  0.00  0.00    -0.247 OA
ATOM     25  N   UNL d   1      26.023 -15.841  -2.349  0.00  0.00    -0.309 N 
ATOM     26  H   UNL d   1      26.999 -16.036  -2.516  0.00  0.00     0.170 HD
ATOM     27  H   UNL d   1      27.081 -14.481  -4.193  0.00  0.00     0.164 HD
BRANCH  25  28
ATOM     28  C   UNL d   1      25.325 -16.674  -1.431  0.00  0.00     0.038 A 
ATOM     29  C   UNL d   1      25.970 -17.278  -0.343  0.00  0.00     0.030 A 
ATOM     30  C   UNL d   1      25.283 -18.193   0.479  0.00  0.00     0.005 A 
ATOM     31  C   UNL d   1      23.940 -18.494   0.234  0.00  0.00     0.036 A 
ATOM     32  C   UNL d   1      23.299 -17.886  -0.849  0.00  0.00     0.105 A 
ATOM     33  C   UNL d   1      23.981 -16.977  -1.664  0.00  0.00     0.065 A 
BRANCH  32  34
ATOM     34  N   UNL d   1      21.924 -18.258  -1.199  0.00  0.00    -0.116 N 
ATOM     35  O   UNL d   1      21.752 -19.325  -1.805  0.00  0.00    -0.532 OA
ATOM     36  O   UNL d   1      21.015 -17.471  -0.895  0.00  0.00    -0.532 OA
ENDBRANCH  32  34
ENDBRANCH  25  28
ENDBRANCH  21  22
ENDBRANCH  20  21
ENDBRANCH  19  20
ENDBRANCH   1  19
TORSDOF 11
ENDMDL
MODEL 5
REMARK VINA RESULT:    -5.477      2.686      3.662
REMARK INTER + INTRA:         -13.151
REMARK INTER:                  -8.759
REMARK INTRA:                  -4.392
REMARK CONF_INDEPENDENT:        3.281
REMARK UNBOUND:                -4.392
REMARK  11 active torsions:
REMARK  status: ('A' for Active; 'I' for Inactive)
REMARK       I    between atoms: C_2  and  N_3 
REMARK       I    between atoms: C_2  and  N_23 
REMARK    1  A    between atoms: N_3  and  C_4 
REMARK    2  A    between atoms: C_4  and  C_5 
REMARK    3  A    between atoms: C_5  and  C_6 
REMARK    4  A    between atoms: C_6  and  C_7 
REMARK    5  A    between atoms: C_7  and  C_8 
REMARK    6  A    between atoms: C_8  and  C_9 
REMARK    7  A    between atoms: C_9  and  N_10 
REMARK       I    between atoms: N_10  and  C_11 
REMARK       I    between atoms: C_11  and  N_13 
REMARK    8  A    between atoms: N_13  and  C_14 
REMARK    9  A    between atoms: C_18  and  N_19 
REMARK   10  A    between atoms: N_23  and  C_24 
REMARK   11  A    between atoms: C_28  and  N_29 
ROOT
ATOM      1  C   UNL d   1      28.773 -15.631  -4.030  0.00  0.00     0.002 C 
ENDROOT
BRANCH   1   2
ATOM      2  C   UNL d   1      30.085 -16.394  -4.217  0.00  0.00     0.020 C 
BRANCH   2   3
ATOM      3  C   UNL d   1      31.006 -16.202  -3.011  0.00  0.00     0.124 C 
BRANCH   3   4
ATOM      4  N   UNL d   1      30.253 -15.903  -1.815  0.00  0.00    -0.343 N 
ATOM      5  C   UNL d   1      29.995 -16.827  -0.843  0.00  0.00     0.320 C 
ATOM      6  O   UNL d   1      30.362 -18.003  -0.914  0.00  0.00    -0.247 OA
ATOM      7  N   UNL d   1      29.357 -16.375   0.285  0.00  0.00    -0.309 N 
ATOM      8  H   UNL d   1      29.342 -17.052   1.039  0.00  0.00     0.170 HD
ATOM      9  H   UNL d   1      30.099 -14.930  -1.602  0.00  0.00     0.164 HD
BRANCH   7  10
ATOM     10  C   UNL d   1      28.728 -15.139   0.501  0.00  0.00     0.038 A 
ATOM     11  C   UNL d   1      28.541 -14.664   1.803  0.00  0.00     0.030 A 
ATOM     12  C   UNL d   1      27.912 -13.429   2.014  0.00  0.00     0.005 A 
ATOM     13  C   UNL d   1      27.494 -12.655   0.929  0.00  0.00     0.036 A 
ATOM     14  C   UNL d   1      27.647 -13.158  -0.365  0.00  0.00     0.105 A 
ATOM     15  C   UNL d   1      28.241 -14.401  -0.576  0.00  0.00     0.065 A 
BRANCH  14  16
ATOM     16  N   UNL d   1      27.160 -12.410  -1.527  0.00  0.00    -0.116 N 
ATOM     17  O   UNL d   1      25.941 -12.389  -1.728  0.00  0.00    -0.532 OA
ATOM     18  O   UNL d   1      28.004 -11.839  -2.236  0.00  0.00    -0.532 OA
ENDBRANCH  14  16
ENDBRANCH   7  10
ENDBRANCH   3   4
ENDBRANCH   2   3
ENDBRANCH   1   2
BRANCH   1  19
ATOM     19  C   UNL d   1      28.926 -14.142  -4.350  0.00  0.00     0.002 C 
BRANCH  19  20
ATOM     20  C   UNL d   1      28.113 -13.757  -5.596  0.00  0.00     0.020 C 
BRANCH  20  21
ATOM     21  C   UNL d   1      26.616 -13.718  -5.305  0.00  0.00     0.124 C 
BRANCH  21  22
ATOM     22  N   UNL d   1      26.285 -13.781  -3.884  0.00  0.00    -0.343 N 
ATOM     23  C   UNL d   1      25.737 -14.943  -3.385  0.00  0.00     0.320 C 
ATOM     24  O   UNL d   1      25.527 -15.904  -4.123  0.00  0.00    -0.247 OA
ATOM     25  N   UNL d   1      25.429 -14.917  -2.035  0.00  0.00    -0.309 N 
ATOM     26  H   UNL d   1      25.426 -14.036  -1.544  0.00  0.00     0.170 HD
ATOM     27  H   UNL d   1      26.492 -12.998  -3.283  0.00  0.00     0.164 HD
BRANCH  25  28
ATOM     28  C   UNL d   1      24.987 -16.072  -1.332  0.00  0.00     0.038 A 
ATOM     29  C   UNL d   1      25.850 -16.817  -0.517  0.00  0.00     0.030 A 
ATOM     30  C   UNL d   1      25.417 -18.022   0.070  0.00  0.00     0.005 A 
ATOM     31  C   UNL d   1      24.113 -18.481  -0.133  0.00  0.00     0.036 A 
ATOM     32  C   UNL d   1      23.254 -17.733  -0.943  0.00  0.00     0.105 A 
ATOM     33  C   UNL d   1      23.682 -16.536  -1.525  0.00  0.00     0.065 A 
BRANCH  32  34
ATOM     34  N   UNL d   1      21.914 -18.236  -1.263  0.00  0.00    -0.116 N 
ATOM     35  O   UNL d   1      20.942 -17.560  -0.900  0.00  0.00    -0.532 OA
ATOM     36  O   UNL d   1      21.829 -19.325  -1.852  0.00  0.00    -0.532 OA
ENDBRANCH  32  34
ENDBRANCH  25  28
ENDBRANCH  21  22
ENDBRANCH  20  21
ENDBRANCH  19  20
ENDBRANCH   1  19
TORSDOF 11
ENDMDL
MODEL 6
REMARK VINA RESULT:    -5.406      3.999      5.834
REMARK INTER + INTRA:         -12.502
REMARK INTER:                  -8.688
REMARK INTRA:                  -3.814
REMARK CONF_INDEPENDENT:        3.281
REMARK UNBOUND:                -3.814
REMARK  11 active torsions:
REMARK  status: ('A' for Active; 'I' for Inactive)
REMARK       I    between atoms: C_2  and  N_3 
REMARK       I    between atoms: C_2  and  N_23 
REMARK    1  A    between atoms: N_3  and  C_4 
REMARK    2  A    between atoms: C_4  and  C_5 
REMARK    3  A    between atoms: C_5  and  C_6 
REMARK    4  A    between atoms: C_6  and  C_7 
REMARK    5  A    between atoms: C_7  and  C_8 
REMARK    6  A    between atoms: C_8  and  C_9 
REMARK    7  A    between atoms: C_9  and  N_10 
REMARK       I    between atoms: N_10  and  C_11 
REMARK       I    between atoms: C_11  and  N_13 
REMARK    8  A    between atoms: N_13  and  C_14 
REMARK    9  A    between atoms: C_18  and  N_19 
REMARK   10  A    between atoms: N_23  and  C_24 
REMARK   11  A    between atoms: C_28  and  N_29 
ROOT
ATOM      1  C   UNL d   1      29.684 -15.520  -6.122  0.00  0.00     0.002 C 
ENDROOT
BRANCH   1   2
ATOM      2  C   UNL d   1      30.517 -14.261  -6.364  0.00  0.00     0.020 C 
BRANCH   2   3
ATOM      3  C   UNL d   1      30.037 -13.521  -7.615  0.00  0.00     0.124 C 
BRANCH   3   4
ATOM      4  N   UNL d   1      28.890 -12.690  -7.329  0.00  0.00    -0.343 N 
ATOM      5  C   UNL d   1      28.223 -11.981  -8.287  0.00  0.00     0.320 C 
ATOM      6  O   UNL d   1      28.558 -11.970  -9.475  0.00  0.00    -0.247 OA
ATOM      7  N   UNL d   1      27.091 -11.318  -7.887  0.00  0.00    -0.309 N 
ATOM      8  H   UNL d   1      26.543 -10.953  -8.658  0.00  0.00     0.170 HD
ATOM      9  H   UNL d   1      28.450 -12.811  -6.431  0.00  0.00     0.164 HD
BRANCH   7  10
ATOM     10  C   UNL d   1      26.629 -11.077  -6.583  0.00  0.00     0.038 A 
ATOM     11  C   UNL d   1      26.604  -9.774  -6.077  0.00  0.00     0.030 A 
ATOM     12  C   UNL d   1      26.143  -9.538  -4.774  0.00  0.00     0.005 A 
ATOM     13  C   UNL d   1      25.679 -10.595  -3.987  0.00  0.00     0.036 A 
ATOM     14  C   UNL d   1      25.747 -11.898  -4.488  0.00  0.00     0.105 A 
ATOM     15  C   UNL d   1      26.239 -12.138  -5.770  0.00  0.00     0.065 A 
BRANCH  14  16
ATOM     16  N   UNL d   1      25.336 -13.041  -3.671  0.00  0.00    -0.116 N 
ATOM     17  O   UNL d   1      25.289 -12.887  -2.445  0.00  0.00    -0.532 OA
ATOM     18  O   UNL d   1      25.056 -14.097  -4.261  0.00  0.00    -0.532 OA
ENDBRANCH  14  16
ENDBRANCH   7  10
ENDBRANCH   3   4
ENDBRANCH   2   3
ENDBRANCH   1   2
BRANCH   1  19
ATOM     19  C   UNL d   1      28.797 -15.389  -4.881  0.00  0.00     0.002 C 
BRANCH  19  20
ATOM     20  C   UNL d   1      29.642 -15.187  -3.614  0.00  0.00     0.020 C 
BRANCH  20  21
ATOM     21  C   UNL d   1      29.033 -14.137  -2.689  0.00  0.00     0.124 C 
BRANCH  21  22
ATOM     22  N   UNL d   1      27.587 -14.259  -2.522  0.00  0.00    -0.343 N 
ATOM     23  C   UNL d   1      27.089 -15.375  -1.885  0.00  0.00     0.320 C 
ATOM     24  O   UNL d   1      27.846 -16.251  -1.470  0.00  0.00    -0.247 OA
ATOM     25  N   UNL d   1      25.708 -15.430  -1.785  0.00  0.00    -0.309 N 
ATOM     26  H   UNL d   1      25.147 -14.793  -2.330  0.00  0.00     0.170 HD
ATOM     27  H   UNL d   1      26.980 -13.519  -2.836  0.00  0.00     0.164 HD
BRANCH  25  28
ATOM     28  C   UNL d   1      25.038 -16.439  -1.040  0.00  0.00     0.038 A 
ATOM     29  C   UNL d   1      25.669 -17.131   0.003  0.00  0.00     0.030 A 
ATOM     30  C   UNL d   1      25.022 -18.206   0.642  0.00  0.00     0.005 A 
ATOM     31  C   UNL d   1      23.731 -18.583   0.263  0.00  0.00     0.036 A 
ATOM     32  C   UNL d   1      23.103 -17.888  -0.774  0.00  0.00     0.105 A 
ATOM     33  C   UNL d   1      23.744 -16.819  -1.409  0.00  0.00     0.065 A 
BRANCH  32  34
ATOM     34  N   UNL d   1      21.793 -18.323  -1.269  0.00  0.00    -0.116 N 
ATOM     35  O   UNL d   1      20.797 -17.686  -0.902  0.00  0.00    -0.532 OA
ATOM     36  O   UNL d   1      21.753 -19.323  -2.004  0.00  0.00    -0.532 OA
ENDBRANCH  32  34
ENDBRANCH  25  28
ENDBRANCH  21  22
ENDBRANCH  20  21
ENDBRANCH  19  20
ENDBRANCH   1  19
TORSDOF 11
ENDMDL
MODEL 7
REMARK VINA RESULT:    -5.085      2.415      6.605
REMARK INTER + INTRA:         -12.737
REMARK INTER:                  -8.366
REMARK INTRA:                  -4.371
REMARK CONF_INDEPENDENT:        3.281
REMARK UNBOUND:                -4.371
REMARK  11 active torsions:
REMARK  status: ('A' for Active; 'I' for Inactive)
REMARK       I    between atoms: C_2  and  N_3 
REMARK       I    between atoms: C_2  and  N_23 
REMARK    1  A    between atoms: N_3  and  C_4 
REMARK    2  A    between atoms: C_4  and  C_5 
REMARK    3  A    between atoms: C_5  and  C_6 
REMARK    4  A    between atoms: C_6  and  C_7 
REMARK    5  A    between atoms: C_7  and  C_8 
REMARK    6  A    between atoms: C_8  and  C_9 
REMARK    7  A    between atoms: C_9  and  N_10 
REMARK       I    between atoms: N_10  and  C_11 
REMARK       I    between atoms: C_11  and  N_13 
REMARK    8  A    between atoms: N_13  and  C_14 
REMARK    9  A    between atoms: C_18  and  N_19 
REMARK   10  A    between atoms: N_23  and  C_24 
REMARK   11  A    between atoms: C_28  and  N_29 
ROOT
ATOM      1  C   UNL d   1      29.409 -15.183  -4.099  0.00  0.00     0.002 C 
ENDROOT
BRANCH   1   2
ATOM      2  C   UNL d   1      30.266 -16.404  -4.434  0.00  0.00     0.020 C 
BRANCH   2   3
ATOM      3  C   UNL d   1      30.641 -17.173  -3.166  0.00  0.00     0.124 C 
BRANCH   3   4
ATOM      4  N   UNL d   1      29.570 -17.145  -2.196  0.00  0.00    -0.343 N 
ATOM      5  C   UNL d   1      29.781 -17.202  -0.848  0.00  0.00     0.320 C 
ATOM      6  O   UNL d   1      30.903 -17.306  -0.343  0.00  0.00    -0.247 OA
ATOM      7  N   UNL d   1      28.677 -17.062  -0.044  0.00  0.00    -0.309 N 
ATOM      8  H   UNL d   1      28.905 -16.940   0.936  0.00  0.00     0.170 HD
ATOM      9  H   UNL d   1      28.661 -16.863  -2.526  0.00  0.00     0.164 HD
BRANCH   7  10
ATOM     10  C   UNL d   1      27.321 -17.087  -0.404  0.00  0.00     0.038 A 
ATOM     11  C   UNL d   1      26.445 -17.979   0.222  0.00  0.00     0.030 A 
ATOM     12  C   UNL d   1      25.091 -18.001  -0.140  0.00  0.00     0.005 A 
ATOM     13  C   UNL d   1      24.604 -17.116  -1.106  0.00  0.00     0.036 A 
ATOM     14  C   UNL d   1      25.496 -16.259  -1.756  0.00  0.00     0.105 A 
ATOM     15  C   UNL d   1      26.849 -16.261  -1.421  0.00  0.00     0.065 A 
BRANCH  14  16
ATOM     16  N   UNL d   1      25.041 -15.365  -2.822  0.00  0.00    -0.116 N 
ATOM     17  O   UNL d   1      25.450 -15.580  -3.969  0.00  0.00    -0.532 OA
ATOM     18  O   UNL d   1      24.265 -14.448  -2.509  0.00  0.00    -0.532 OA
ENDBRANCH  14  16
ENDBRANCH   7  10
ENDBRANCH   3   4
ENDBRANCH   2   3
ENDBRANCH   1   2
BRANCH   1  19
ATOM     19  C   UNL d   1      28.073 -15.199  -4.846  0.00  0.00     0.002 C 
BRANCH  19  20
ATOM     20  C   UNL d   1      27.768 -13.827  -5.466  0.00  0.00     0.020 C 
BRANCH  20  21
ATOM     21  C   UNL d   1      27.632 -12.742  -4.400  0.00  0.00     0.124 C 
BRANCH  21  22
ATOM     22  N   UNL d   1      26.868 -13.155  -3.226  0.00  0.00    -0.343 N 
ATOM     23  C   UNL d   1      27.398 -12.917  -1.977  0.00  0.00     0.320 C 
ATOM     24  O   UNL d   1      28.494 -12.374  -1.854  0.00  0.00    -0.247 OA
ATOM     25  N   UNL d   1      26.625 -13.357  -0.915  0.00  0.00    -0.309 N 
ATOM     26  H   UNL d   1      25.851 -13.979  -1.090  0.00  0.00     0.170 HD
ATOM     27  H   UNL d   1      25.956 -13.569  -3.339  0.00  0.00     0.164 HD
BRANCH  25  28
ATOM     28  C   UNL d   1      26.957 -13.071   0.438  0.00  0.00     0.038 A 
ATOM     29  C   UNL d   1      27.500 -14.045   1.288  0.00  0.00     0.030 A 
ATOM     30  C   UNL d   1      27.706 -13.768   2.654  0.00  0.00     0.005 A 
ATOM     31  C   UNL d   1      27.395 -12.510   3.177  0.00  0.00     0.036 A 
ATOM     32  C   UNL d   1      26.859 -11.540   2.325  0.00  0.00     0.105 A 
ATOM     33  C   UNL d   1      26.655 -11.814   0.969  0.00  0.00     0.065 A 
BRANCH  32  34
ATOM     34  N   UNL d   1      26.422 -10.246   2.860  0.00  0.00    -0.116 N 
ATOM     35  O   UNL d   1      25.409  -9.731   2.369  0.00  0.00    -0.532 OA
ATOM     36  O   UNL d   1      27.110  -9.725   3.752  0.00  0.00    -0.532 OA
ENDBRANCH  32  34
ENDBRANCH  25  28
ENDBRANCH  21  22
ENDBRANCH  20  21
ENDBRANCH  19  20
ENDBRANCH   1  19
TORSDOF 11
ENDMDL
MODEL 8
REMARK VINA RESULT:    -5.076      3.205      5.326
REMARK INTER + INTRA:         -12.400
REMARK INTER:                  -8.358
REMARK INTRA:                  -4.042
REMARK CONF_INDEPENDENT:        3.281
REMARK UNBOUND:                -4.042
REMARK  11 active torsions:
REMARK  status: ('A' for Active; 'I' for Inactive)
REMARK       I    between atoms: C_2  and  N_3 
REMARK       I    between atoms: C_2  and  N_23 
REMARK    1  A    between atoms: N_3  and  C_4 
REMARK    2  A    between atoms: C_4  and  C_5 
REMARK    3  A    between atoms: C_5  and  C_6 
REMARK    4  A    between atoms: C_6  and  C_7 
REMARK    5  A    between atoms: C_7  and  C_8 
REMARK    6  A    between atoms: C_8  and  C_9 
REMARK    7  A    between atoms: C_9  and  N_10 
REMARK       I    between atoms: N_10  and  C_11 
REMARK       I    between atoms: C_11  and  N_13 
REMARK    8  A    between atoms: N_13  and  C_14 
REMARK    9  A    between atoms: C_18  and  N_19 
REMARK   10  A    between atoms: N_23  and  C_24 
REMARK   11  A    between atoms: C_28  and  N_29 
ROOT
ATOM      1  C   UNL d   1      31.256 -18.226  -4.541  0.00  0.00     0.002 C 
ENDROOT
BRANCH   1   2
ATOM      2  C   UNL d   1      30.044 -17.438  -5.042  0.00  0.00     0.020 C 
BRANCH   2   3
ATOM      3  C   UNL d   1      30.387 -15.957  -5.209  0.00  0.00     0.124 C 
BRANCH   3   4
ATOM      4  N   UNL d   1      29.529 -15.122  -4.400  0.00  0.00    -0.343 N 
ATOM      5  C   UNL d   1      28.243 -14.816  -4.746  0.00  0.00     0.320 C 
ATOM      6  O   UNL d   1      27.713 -15.207  -5.789  0.00  0.00    -0.247 OA
ATOM      7  N   UNL d   1      27.513 -14.098  -3.832  0.00  0.00    -0.309 N 
ATOM      8  H   UNL d   1      26.526 -14.044  -4.057  0.00  0.00     0.170 HD
ATOM      9  H   UNL d   1      29.826 -14.938  -3.456  0.00  0.00     0.164 HD
BRANCH   7  10
ATOM     10  C   UNL d   1      27.960 -13.435  -2.678  0.00  0.00     0.038 A 
ATOM     11  C   UNL d   1      29.123 -12.662  -2.718  0.00  0.00     0.030 A 
ATOM     12  C   UNL d   1      29.565 -12.002  -1.563  0.00  0.00     0.005 A 
ATOM     13  C   UNL d   1      28.833 -12.090  -0.376  0.00  0.00     0.036 A 
ATOM     14  C   UNL d   1      27.695 -12.899  -0.336  0.00  0.00     0.105 A 
ATOM     15  C   UNL d   1      27.274 -13.584  -1.475  0.00  0.00     0.065 A 
BRANCH  14  16
ATOM     16  N   UNL d   1      26.939 -13.074   0.905  0.00  0.00    -0.116 N 
ATOM     17  O   UNL d   1      26.330 -12.095   1.352  0.00  0.00    -0.532 OA
ATOM     18  O   UNL d   1      26.951 -14.199   1.431  0.00  0.00    -0.532 OA
ENDBRANCH  14  16
ENDBRANCH   7  10
ENDBRANCH   3   4
ENDBRANCH   2   3
ENDBRANCH   1   2
BRANCH   1  19
ATOM     19  C   UNL d   1      31.178 -18.501  -3.037  0.00  0.00     0.002 C 
BRANCH  19  20
ATOM     20  C   UNL d   1      32.318 -17.795  -2.286  0.00  0.00     0.020 C 
BRANCH  20  21
ATOM     21  C   UNL d   1      31.793 -16.936  -1.139  0.00  0.00     0.124 C 
BRANCH  21  22
ATOM     22  N   UNL d   1      30.609 -17.482  -0.481  0.00  0.00    -0.343 N 
ATOM     23  C   UNL d   1      29.369 -17.032  -0.877  0.00  0.00     0.320 C 
ATOM     24  O   UNL d   1      29.262 -16.185  -1.762  0.00  0.00    -0.247 OA
ATOM     25  N   UNL d   1      28.297 -17.579  -0.191  0.00  0.00    -0.309 N 
ATOM     26  H   UNL d   1      28.465 -18.099   0.657  0.00  0.00     0.170 HD
ATOM     27  H   UNL d   1      30.708 -18.200   0.219  0.00  0.00     0.164 HD
BRANCH  25  28
ATOM     28  C   UNL d   1      26.947 -17.330  -0.563  0.00  0.00     0.038 A 
ATOM     29  C   UNL d   1      25.875 -17.980   0.064  0.00  0.00     0.030 A 
ATOM     30  C   UNL d   1      24.558 -17.804  -0.406  0.00  0.00     0.005 A 
ATOM     31  C   UNL d   1      24.299 -16.959  -1.488  0.00  0.00     0.036 A 
ATOM     32  C   UNL d   1      25.370 -16.309  -2.107  0.00  0.00     0.105 A 
ATOM     33  C   UNL d   1      26.677 -16.482  -1.642  0.00  0.00     0.065 A 
BRANCH  32  34
ATOM     34  N   UNL d   1      25.148 -15.500  -3.310  0.00  0.00    -0.116 N 
ATOM     35  O   UNL d   1      25.555 -15.949  -4.390  0.00  0.00    -0.532 OA
ATOM     36  O   UNL d   1      24.593 -14.398  -3.175  0.00  0.00    -0.532 OA
ENDBRANCH  32  34
ENDBRANCH  25  28
ENDBRANCH  21  22
ENDBRANCH  20  21
ENDBRANCH  19  20
ENDBRANCH   1  19
TORSDOF 11
ENDMDL
