MODEL 1
REMARK VINA RESULT:    -7.804      0.000      0.000
REMARK INTER + INTRA:          -9.561
REMARK INTER:                  -8.997
REMARK INTRA:                  -0.564
REMARK CONF_INDEPENDENT:        1.193
REMARK UNBOUND:                -0.564
REMARK  4 active torsions:
REMARK  status: ('A' for Active; 'I' for Inactive)
REMARK    1  A    between atoms: N_1  and  C_2 
REMARK    2  A    between atoms: C_7  and  N_8 
REMARK       I    between atoms: N_8  and  C_9 
REMARK    3  A    between atoms: C_11  and  C_9 
REMARK    4  A    between atoms: C_13  and  C_14 
ROOT
ATOM      1  C   UNL d   1      28.677 -14.392  -1.917  0.00  0.00     0.036 C 
ATOM      2  C   UNL d   1      29.260 -15.230  -0.953  0.00  0.00     0.030 C 
ATOM      3  C   UNL d   1      28.483 -16.111  -0.248  0.00  0.00     0.003 C 
ATOM      4  C   UNL d   1      27.122 -16.106  -0.467  0.00  0.00     0.014 C 
ATOM      5  C   UNL d   1      26.481 -15.453  -1.519  0.00  0.00     0.003 A 
ATOM      6  C   UNL d   1      25.095 -15.675  -1.792  0.00  0.00     0.045 A 
ATOM      7  C   UNL d   1      24.486 -14.826  -2.739  0.00  0.00     0.030 A 
ATOM      8  C   UNL d   1      25.235 -13.859  -3.437  0.00  0.00     0.003 A 
ATOM      9  C   UNL d   1      26.608 -13.708  -3.195  0.00  0.00     0.014 A 
ATOM     10  C   UNL d   1      27.275 -14.504  -2.235  0.00  0.00     0.003 A 
ENDROOT
BRANCH   6  11
ATOM     11  N   UNL d   1      24.263 -16.666  -1.111  0.00  0.00    -0.326 N 
ATOM     12  C   UNL d   1      22.864 -16.634  -0.895  0.00  0.00     0.227 C 
ATOM     13  O   UNL d   1      22.155 -15.659  -0.839  0.00  0.00    -0.273 OA
ATOM     14  H   UNL d   1      24.760 -17.425  -0.667  0.00  0.00     0.169 HD
BRANCH  12  15
ATOM     15  C   UNL d   1      22.153 -17.952  -0.938  0.00  0.00     0.087 A 
ATOM     16  C   UNL d   1      22.805 -19.294  -1.061  0.00  0.00     0.025 A 
ATOM     17  C   UNL d   1      22.085 -18.939   0.230  0.00  0.00     0.032 A 
BRANCH  17  18
ATOM     18  C   UNL d   1      20.709 -19.540   0.568  0.00  0.00    -0.053 A 
ATOM     19  C   UNL d   1      20.280 -19.718   1.898  0.00  0.00     0.007 A 
ATOM     20  C   UNL d   1      19.073 -20.368   2.198  0.00  0.00     0.001 A 
ATOM     21  C   UNL d   1      18.214 -20.761   1.175  0.00  0.00     0.000 A 
ATOM     22  C   UNL d   1      18.579 -20.542  -0.145  0.00  0.00     0.001 A 
ATOM     23  C   UNL d   1      19.807 -19.947  -0.435  0.00  0.00     0.007 A 
ENDBRANCH  17  18
ENDBRANCH  12  15
ENDBRANCH   6  11
BRANCH   1  24
ATOM     24  N   UNL d   1      29.519 -13.427  -2.466  0.00  0.00    -0.398 N 
ATOM     25  H   UNL d   1      29.133 -12.768  -3.130  0.00  0.00     0.156 HD
ATOM     26  H   UNL d   1      30.458 -13.288  -2.134  0.00  0.00     0.156 HD
ENDBRANCH   1  24
TORSDOF 4
ENDMDL
MODEL 2
REMARK VINA RESULT:    -7.539      3.303      4.993
REMARK INTER + INTRA:          -9.411
REMARK INTER:                  -8.732
REMARK INTRA:                  -0.679
REMARK CONF_INDEPENDENT:        1.193
REMARK UNBOUND:                -0.679
REMARK  4 active torsions:
REMARK  status: ('A' for Active; 'I' for Inactive)
REMARK    1  A    between atoms: N_1  and  C_2 
REMARK    2  A    between atoms: C_7  and  N_8 
REMARK       I    between atoms: N_8  and  C_9 
REMARK    3  A    between atoms: C_11  and  C_9 
REMARK    4  A    between atoms: C_13  and  C_14 
ROOT
ATOM      1  C   UNL d   1      29.799 -13.460  -7.644  0.00  0.00     0.036 C 
ATOM      2  C   UNL d   1      30.344 -14.699  -7.269  0.00  0.00     0.030 C 
ATOM      3  C   UNL d   1      29.911 -15.322  -6.128  0.00  0.00     0.003 C 
ATOM      4  C   UNL d   1      28.983 -14.677  -5.339  0.00  0.00     0.014 C 
ATOM      5  C   UNL d   1      28.257 -13.548  -5.715  0.00  0.00     0.003 A 
ATOM      6  C   UNL d   1      27.166 -13.072  -4.921  0.00  0.00     0.045 A 
ATOM      7  C   UNL d   1      26.622 -11.818  -5.268  0.00  0.00     0.030 A 
ATOM      8  C   UNL d   1      27.085 -11.111  -6.394  0.00  0.00     0.003 A 
ATOM      9  C   UNL d   1      28.112 -11.633  -7.193  0.00  0.00     0.014 A 
ATOM     10  C   UNL d   1      28.725 -12.871  -6.884  0.00  0.00     0.003 A 
ENDROOT
BRANCH   6  11
ATOM     11  N   UNL d   1      26.632 -13.761  -3.747  0.00  0.00    -0.326 N 
ATOM     12  C   UNL d   1      25.424 -14.491  -3.635  0.00  0.00     0.227 C 
ATOM     13  O   UNL d   1      24.425 -14.357  -4.300  0.00  0.00    -0.273 OA
ATOM     14  H   UNL d   1      27.147 -13.628  -2.889  0.00  0.00     0.169 HD
BRANCH  12  15
ATOM     15  C   UNL d   1      25.449 -15.687  -2.734  0.00  0.00     0.087 A 
ATOM     16  C   UNL d   1      26.355 -15.877  -1.557  0.00  0.00     0.025 A 
ATOM     17  C   UNL d   1      24.862 -15.721  -1.321  0.00  0.00     0.032 A 
BRANCH  17  18
ATOM     18  C   UNL d   1      23.981 -16.927  -0.949  0.00  0.00    -0.053 A 
ATOM     19  C   UNL d   1      24.526 -18.207  -0.726  0.00  0.00     0.007 A 
ATOM     20  C   UNL d   1      23.707 -19.323  -0.496  0.00  0.00     0.001 A 
ATOM     21  C   UNL d   1      22.328 -19.168  -0.378  0.00  0.00     0.000 A 
ATOM     22  C   UNL d   1      21.766 -17.910  -0.530  0.00  0.00     0.001 A 
ATOM     23  C   UNL d   1      22.583 -16.815  -0.815  0.00  0.00     0.007 A 
ENDBRANCH  17  18
ENDBRANCH  12  15
ENDBRANCH   6  11
BRANCH   1  24
ATOM     24  N   UNL d   1      30.411 -12.835  -8.729  0.00  0.00    -0.398 N 
ATOM     25  H   UNL d   1      30.750 -11.888  -8.615  0.00  0.00     0.156 HD
ATOM     26  H   UNL d   1      30.637 -13.333  -9.572  0.00  0.00     0.156 HD
ENDBRANCH   1  24
TORSDOF 4
ENDMDL
MODEL 3
REMARK VINA RESULT:    -7.217      3.170      5.195
REMARK INTER + INTRA:          -8.950
REMARK INTER:                  -8.410
REMARK INTRA:                  -0.540
REMARK CONF_INDEPENDENT:        1.193
REMARK UNBOUND:                -0.540
REMARK  4 active torsions:
REMARK  status: ('A' for Active; 'I' for Inactive)
REMARK    1  A    between atoms: N_1  and  C_2 
REMARK    2  A    between atoms: C_7  and  N_8 
REMARK       I    between atoms: N_8  and  C_9 
REMARK    3  A    between atoms: C_11  and  C_9 
REMARK    4  A    between atoms: C_13  and  C_14 
ROOT
ATOM      1  C   UNL d   1      28.548 -13.871  -6.687  0.00  0.00     0.036 C 
ATOM      2  C   UNL d   1      27.405 -13.294  -6.109  0.00  0.00     0.030 C 
ATOM      3  C   UNL d   1      26.902 -13.793  -4.937  0.00  0.00     0.003 C 
ATOM      4  C   UNL d   1      27.506 -14.901  -4.382  0.00  0.00     0.014 C 
ATOM      5  C   UNL d   1      28.737 -15.424  -4.774  0.00  0.00     0.003 A 
ATOM      6  C   UNL d   1      29.385 -16.443  -4.007  0.00  0.00     0.045 A 
ATOM      7  C   UNL d   1      30.520 -17.051  -4.583  0.00  0.00     0.030 A 
ATOM      8  C   UNL d   1      31.031 -16.615  -5.821  0.00  0.00     0.003 A 
ATOM      9  C   UNL d   1      30.412 -15.570  -6.520  0.00  0.00     0.014 A 
ATOM     10  C   UNL d   1      29.251 -14.936  -6.016  0.00  0.00     0.003 A 
ENDROOT
BRANCH   6  11
ATOM     11  N   UNL d   1      28.914 -16.935  -2.714  0.00  0.00    -0.326 N 
ATOM     12  C   UNL d   1      28.135 -16.252  -1.749  0.00  0.00     0.227 C 
ATOM     13  O   UNL d   1      28.055 -15.058  -1.586  0.00  0.00    -0.273 OA
ATOM     14  H   UNL d   1      29.256 -17.844  -2.439  0.00  0.00     0.169 HD
BRANCH  12  15
ATOM     15  C   UNL d   1      27.152 -17.079  -0.978  0.00  0.00     0.087 A 
ATOM     16  C   UNL d   1      27.122 -17.238   0.511  0.00  0.00     0.025 A 
ATOM     17  C   UNL d   1      25.980 -16.508  -0.176  0.00  0.00     0.032 A 
BRANCH  17  18
ATOM     18  C   UNL d   1      24.605 -17.173  -0.363  0.00  0.00    -0.053 A 
ATOM     19  C   UNL d   1      24.427 -18.565  -0.240  0.00  0.00     0.007 A 
ATOM     20  C   UNL d   1      23.194 -19.174  -0.521  0.00  0.00     0.001 A 
ATOM     21  C   UNL d   1      22.081 -18.397  -0.828  0.00  0.00     0.000 A 
ATOM     22  C   UNL d   1      22.208 -17.017  -0.894  0.00  0.00     0.001 A 
ATOM     23  C   UNL d   1      23.451 -16.424  -0.670  0.00  0.00     0.007 A 
ENDBRANCH  17  18
ENDBRANCH  12  15
ENDBRANCH   6  11
BRANCH   1  24
ATOM     24  N   UNL d   1      28.889 -13.397  -7.952  0.00  0.00    -0.398 N 
ATOM     25  H   UNL d   1      29.081 -14.068  -8.686  0.00  0.00     0.156 HD
ATOM     26  H   UNL d   1      28.830 -12.422  -8.189  0.00  0.00     0.156 HD
ENDBRANCH   1  24
TORSDOF 4
ENDMDL
MODEL 4
REMARK VINA RESULT:    -7.187      3.625      5.870
REMARK INTER + INTRA:          -9.075
REMARK INTER:                  -8.380
REMARK INTRA:                  -0.695
REMARK CONF_INDEPENDENT:        1.193
REMARK UNBOUND:                -0.695
REMARK  4 active torsions:
REMARK  status: ('A' for Active; 'I' for Inactive)
REMARK    1  A    between atoms: N_1  and  C_2 
REMARK    2  A    between atoms: C_7  and  N_8 
REMARK       I    between atoms: N_8  and  C_9 
REMARK    3  A    between atoms: C_11  and  C_9 
REMARK    4  A    between atoms: C_13  and  C_14 
ROOT
ATOM      1  C   UNL d   1      26.977 -10.138  -7.583  0.00  0.00     0.036 C 
ATOM      2  C   UNL d   1      26.041  -9.452  -6.791  0.00  0.00     0.030 C 
ATOM      3  C   UNL d   1      25.538 -10.037  -5.659  0.00  0.00     0.003 C 
ATOM      4  C   UNL d   1      25.927 -11.324  -5.358  0.00  0.00     0.014 C 
ATOM      5  C   UNL d   1      26.975 -12.010  -5.969  0.00  0.00     0.003 A 
ATOM      6  C   UNL d   1      27.444 -13.258  -5.450  0.00  0.00     0.045 A 
ATOM      7  C   UNL d   1      28.366 -13.974  -6.243  0.00  0.00     0.030 A 
ATOM      8  C   UNL d   1      28.856 -13.439  -7.450  0.00  0.00     0.003 A 
ATOM      9  C   UNL d   1      28.427 -12.183  -7.901  0.00  0.00     0.014 A 
ATOM     10  C   UNL d   1      27.480 -11.426  -7.172  0.00  0.00     0.003 A 
ENDROOT
BRANCH   6  11
ATOM     11  N   UNL d   1      26.984 -13.864  -4.202  0.00  0.00    -0.326 N 
ATOM     12  C   UNL d   1      25.743 -14.492  -3.940  0.00  0.00     0.227 C 
ATOM     13  O   UNL d   1      24.694 -14.302  -4.506  0.00  0.00    -0.273 OA
ATOM     14  H   UNL d   1      27.593 -13.744  -3.406  0.00  0.00     0.169 HD
BRANCH  12  15
ATOM     15  C   UNL d   1      25.770 -15.657  -2.999  0.00  0.00     0.087 A 
ATOM     16  C   UNL d   1      26.804 -15.905  -1.944  0.00  0.00     0.025 A 
ATOM     17  C   UNL d   1      25.379 -15.587  -1.521  0.00  0.00     0.032 A 
BRANCH  17  18
ATOM     18  C   UNL d   1      24.442 -16.683  -0.984  0.00  0.00    -0.053 A 
ATOM     19  C   UNL d   1      24.931 -17.915  -0.508  0.00  0.00     0.007 A 
ATOM     20  C   UNL d   1      24.065 -18.950  -0.125  0.00  0.00     0.001 A 
ATOM     21  C   UNL d   1      22.689 -18.742  -0.106  0.00  0.00     0.000 A 
ATOM     22  C   UNL d   1      22.177 -17.517  -0.509  0.00  0.00     0.001 A 
ATOM     23  C   UNL d   1      23.044 -16.513  -0.943  0.00  0.00     0.007 A 
ENDBRANCH  17  18
ENDBRANCH  12  15
ENDBRANCH   6  11
BRANCH   1  24
ATOM     24  N   UNL d   1      27.309  -9.529  -8.790  0.00  0.00    -0.398 N 
ATOM     25  H   UNL d   1      28.287  -9.427  -9.029  0.00  0.00     0.156 HD
ATOM     26  H   UNL d   1      26.615  -9.302  -9.482  0.00  0.00     0.156 HD
ENDBRANCH   1  24
TORSDOF 4
ENDMDL
MODEL 5
REMARK VINA RESULT:    -7.143      3.475      4.912
REMARK INTER + INTRA:          -8.933
REMARK INTER:                  -8.337
REMARK INTRA:                  -0.596
REMARK CONF_INDEPENDENT:        1.193
REMARK UNBOUND:                -0.596
REMARK  4 active torsions:
REMARK  status: ('A' for Active; 'I' for Inactive)
REMARK    1  A    between atoms: N_1  and  C_2 
REMARK    2  A    between atoms: C_7  and  N_8 
REMARK       I    between atoms: N_8  and  C_9 
REMARK    3  A    between atoms: C_11  and  C_9 
REMARK    4  A    between atoms: C_13  and  C_14 
ROOT
ATOM      1  C   UNL d   1      30.976 -15.902  -7.019  0.00  0.00     0.036 C 
ATOM      2  C   UNL d   1      31.243 -17.068  -6.282  0.00  0.00     0.030 C 
ATOM      3  C   UNL d   1      30.584 -17.302  -5.104  0.00  0.00     0.003 C 
ATOM      4  C   UNL d   1      29.709 -16.343  -4.640  0.00  0.00     0.014 C 
ATOM      5  C   UNL d   1      29.245 -15.256  -5.378  0.00  0.00     0.003 A 
ATOM      6  C   UNL d   1      28.180 -14.434  -4.893  0.00  0.00     0.045 A 
ATOM      7  C   UNL d   1      27.914 -13.246  -5.605  0.00  0.00     0.030 A 
ATOM      8  C   UNL d   1      28.616 -12.932  -6.785  0.00  0.00     0.003 A 
ATOM      9  C   UNL d   1      29.611 -13.791  -7.273  0.00  0.00     0.014 A 
ATOM     10  C   UNL d   1      29.951 -14.983  -6.590  0.00  0.00     0.003 A 
ENDROOT
BRANCH   6  11
ATOM     11  N   UNL d   1      27.406 -14.706  -3.682  0.00  0.00    -0.326 N 
ATOM     12  C   UNL d   1      26.083 -15.198  -3.582  0.00  0.00     0.227 C 
ATOM     13  O   UNL d   1      25.203 -15.101  -4.402  0.00  0.00    -0.273 OA
ATOM     14  H   UNL d   1      27.840 -14.429  -2.813  0.00  0.00     0.169 HD
BRANCH  12  15
ATOM     15  C   UNL d   1      25.795 -16.108  -2.427  0.00  0.00     0.087 A 
ATOM     16  C   UNL d   1      26.132 -15.835  -0.994  0.00  0.00     0.025 A 
ATOM     17  C   UNL d   1      24.671 -15.890  -1.411  0.00  0.00     0.032 A 
BRANCH  17  18
ATOM     18  C   UNL d   1      23.787 -17.101  -1.064  0.00  0.00    -0.053 A 
ATOM     19  C   UNL d   1      22.392 -16.984  -0.905  0.00  0.00     0.007 A 
ATOM     20  C   UNL d   1      21.608 -18.068  -0.481  0.00  0.00     0.001 A 
ATOM     21  C   UNL d   1      22.184 -19.324  -0.309  0.00  0.00     0.000 A 
ATOM     22  C   UNL d   1      23.545 -19.487  -0.520  0.00  0.00     0.001 A 
ATOM     23  C   UNL d   1      24.326 -18.390  -0.886  0.00  0.00     0.007 A 
ENDBRANCH  17  18
ENDBRANCH  12  15
ENDBRANCH   6  11
BRANCH   1  24
ATOM     24  N   UNL d   1      31.804 -15.679  -8.116  0.00  0.00    -0.398 N 
ATOM     25  H   UNL d   1      31.428 -15.183  -8.915  0.00  0.00     0.156 HD
ATOM     26  H   UNL d   1      32.789 -15.881  -8.091  0.00  0.00     0.156 HD
ENDBRANCH   1  24
TORSDOF 4
ENDMDL
MODEL 6
REMARK VINA RESULT:    -7.023      4.625      6.093
REMARK INTER + INTRA:          -8.848
REMARK INTER:                  -8.216
REMARK INTRA:                  -0.631
REMARK CONF_INDEPENDENT:        1.193
REMARK UNBOUND:                -0.631
REMARK  4 active torsions:
REMARK  status: ('A' for Active; 'I' for Inactive)
REMARK    1  A    between atoms: N_1  and  C_2 
REMARK    2  A    between atoms: C_7  and  N_8 
REMARK       I    between atoms: N_8  and  C_9 
REMARK    3  A    between atoms: C_11  and  C_9 
REMARK    4  A    between atoms: C_13  and  C_14 
ROOT
ATOM      1  C   UNL d   1      27.351 -10.015   3.956  0.00  0.00     0.036 C 
ATOM      2  C   UNL d   1      26.794  -9.227   2.935  0.00  0.00     0.030 C 
ATOM      3  C   UNL d   1      26.468  -9.792   1.731  0.00  0.00     0.003 C 
ATOM      4  C   UNL d   1      26.755 -11.126   1.532  0.00  0.00     0.014 C 
ATOM      5  C   UNL d   1      27.130 -12.023   2.532  0.00  0.00     0.003 A 
ATOM      6  C   UNL d   1      27.201 -13.428   2.275  0.00  0.00     0.045 A 
ATOM      7  C   UNL d   1      27.780 -14.233   3.278  0.00  0.00     0.030 A 
ATOM      8  C   UNL d   1      28.193 -13.680   4.506  0.00  0.00     0.003 A 
ATOM      9  C   UNL d   1      28.051 -12.308   4.755  0.00  0.00     0.014 A 
ATOM     10  C   UNL d   1      27.508 -11.438   3.780  0.00  0.00     0.003 A 
ENDROOT
BRANCH   6  11
ATOM     11  N   UNL d   1      26.782 -14.066   1.028  0.00  0.00    -0.326 N 
ATOM     12  C   UNL d   1      27.530 -14.931   0.193  0.00  0.00     0.227 C 
ATOM     13  O   UNL d   1      28.731 -14.990   0.091  0.00  0.00    -0.273 OA
ATOM     14  H   UNL d   1      25.877 -13.789   0.676  0.00  0.00     0.169 HD
BRANCH  12  15
ATOM     15  C   UNL d   1      26.767 -16.025  -0.489  0.00  0.00     0.087 A 
ATOM     16  C   UNL d   1      27.257 -17.421  -0.718  0.00  0.00     0.025 A 
ATOM     17  C   UNL d   1      26.095 -17.194   0.235  0.00  0.00     0.032 A 
BRANCH  17  18
ATOM     18  C   UNL d   1      24.651 -17.541  -0.169  0.00  0.00    -0.053 A 
ATOM     19  C   UNL d   1      23.716 -16.547  -0.520  0.00  0.00     0.007 A 
ATOM     20  C   UNL d   1      22.374 -16.863  -0.779  0.00  0.00     0.001 A 
ATOM     21  C   UNL d   1      21.956 -18.190  -0.799  0.00  0.00     0.000 A 
ATOM     22  C   UNL d   1      22.867 -19.198  -0.520  0.00  0.00     0.001 A 
ATOM     23  C   UNL d   1      24.188 -18.871  -0.207  0.00  0.00     0.007 A 
ENDBRANCH  17  18
ENDBRANCH  12  15
ENDBRANCH   6  11
BRANCH   1  24
ATOM     24  N   UNL d   1      27.791  -9.323   5.081  0.00  0.00    -0.398 N 
ATOM     25  H   UNL d   1      27.122  -8.771   5.604  0.00  0.00     0.156 HD
ATOM     26  H   UNL d   1      28.713  -9.452   5.460  0.00  0.00     0.156 HD
ENDBRANCH   1  24
TORSDOF 4
ENDMDL
MODEL 7
REMARK VINA RESULT:    -6.963      4.598      6.096
REMARK INTER + INTRA:          -8.785
REMARK INTER:                  -8.156
REMARK INTRA:                  -0.629
REMARK CONF_INDEPENDENT:        1.193
REMARK UNBOUND:                -0.629
REMARK  4 active torsions:
REMARK  status: ('A' for Active; 'I' for Inactive)
REMARK    1  A    between atoms: N_1  and  C_2 
REMARK    2  A    between atoms: C_7  and  N_8 
REMARK       I    between atoms: N_8  and  C_9 
REMARK    3  A    between atoms: C_11  and  C_9 
REMARK    4  A    between atoms: C_13  and  C_14 
ROOT
ATOM      1  C   UNL d   1      27.623 -10.338   4.251  0.00  0.00     0.036 C 
ATOM      2  C   UNL d   1      26.962  -9.502   3.337  0.00  0.00     0.030 C 
ATOM      3  C   UNL d   1      26.532 -10.002   2.136  0.00  0.00     0.003 C 
ATOM      4  C   UNL d   1      26.818 -11.315   1.831  0.00  0.00     0.014 C 
ATOM      5  C   UNL d   1      27.299 -12.262   2.734  0.00  0.00     0.003 A 
ATOM      6  C   UNL d   1      27.366 -13.648   2.386  0.00  0.00     0.045 A 
ATOM      7  C   UNL d   1      28.049 -14.499   3.280  0.00  0.00     0.030 A 
ATOM      8  C   UNL d   1      28.568 -14.012   4.495  0.00  0.00     0.003 A 
ATOM      9  C   UNL d   1      28.429 -12.660   4.840  0.00  0.00     0.014 A 
ATOM     10  C   UNL d   1      27.784 -11.745   3.975  0.00  0.00     0.003 A 
ENDROOT
BRANCH   6  11
ATOM     11  N   UNL d   1      26.841 -14.219   1.147  0.00  0.00    -0.326 N 
ATOM     12  C   UNL d   1      27.527 -14.994   0.181  0.00  0.00     0.227 C 
ATOM     13  O   UNL d   1      28.712 -14.995  -0.048  0.00  0.00    -0.273 OA
ATOM     14  H   UNL d   1      25.895 -13.957   0.910  0.00  0.00     0.169 HD
BRANCH  12  15
ATOM     15  C   UNL d   1      26.735 -16.071  -0.495  0.00  0.00     0.087 A 
ATOM     16  C   UNL d   1      27.213 -17.463  -0.773  0.00  0.00     0.025 A 
ATOM     17  C   UNL d   1      26.089 -17.255   0.229  0.00  0.00     0.032 A 
BRANCH  17  18
ATOM     18  C   UNL d   1      24.630 -17.591  -0.125  0.00  0.00    -0.053 A 
ATOM     19  C   UNL d   1      24.154 -18.916  -0.149  0.00  0.00     0.007 A 
ATOM     20  C   UNL d   1      22.854 -19.222  -0.581  0.00  0.00     0.001 A 
ATOM     21  C   UNL d   1      21.963 -18.201  -0.897  0.00  0.00     0.000 A 
ATOM     22  C   UNL d   1      22.381 -16.881  -0.823  0.00  0.00     0.001 A 
ATOM     23  C   UNL d   1      23.693 -16.589  -0.448  0.00  0.00     0.007 A 
ENDBRANCH  17  18
ENDBRANCH  12  15
ENDBRANCH   6  11
BRANCH   1  24
ATOM     24  N   UNL d   1      28.157  -9.705   5.371  0.00  0.00    -0.398 N 
ATOM     25  H   UNL d   1      29.137  -9.843   5.585  0.00  0.00     0.156 HD
ATOM     26  H   UNL d   1      27.637  -9.024   5.897  0.00  0.00     0.156 HD
ENDBRANCH   1  24
TORSDOF 4
ENDMDL
MODEL 8
REMARK VINA RESULT:    -6.953      4.683      6.223
REMARK INTER + INTRA:          -8.907
REMARK INTER:                  -8.146
REMARK INTRA:                  -0.761
REMARK CONF_INDEPENDENT:        1.193
REMARK UNBOUND:                -0.761
REMARK  4 active torsions:
REMARK  status: ('A' for Active; 'I' for Inactive)
REMARK    1  A    between atoms: N_1  and  C_2 
REMARK    2  A    between atoms: C_7  and  N_8 
REMARK       I    between atoms: N_8  and  C_9 
REMARK    3  A    between atoms: C_11  and  C_9 
REMARK    4  A    between atoms: C_13  and  C_14 
ROOT
ATOM      1  C   UNL d   1      28.119 -12.582   5.596  0.00  0.00     0.036 C 
ATOM      2  C   UNL d   1      28.399 -13.948   5.764  0.00  0.00     0.030 C 
ATOM      3  C   UNL d   1      28.249 -14.813   4.712  0.00  0.00     0.003 C 
ATOM      4  C   UNL d   1      27.764 -14.321   3.520  0.00  0.00     0.014 C 
ATOM      5  C   UNL d   1      27.636 -12.969   3.204  0.00  0.00     0.003 A 
ATOM      6  C   UNL d   1      27.325 -12.547   1.873  0.00  0.00     0.045 A 
ATOM      7  C   UNL d   1      27.017 -11.183   1.690  0.00  0.00     0.030 A 
ATOM      8  C   UNL d   1      27.092 -10.270   2.760  0.00  0.00     0.003 A 
ATOM      9  C   UNL d   1      27.462 -10.702   4.041  0.00  0.00     0.014 A 
ATOM     10  C   UNL d   1      27.753 -12.062   4.302  0.00  0.00     0.003 A 
ENDROOT
BRANCH   6  11
ATOM     11  N   UNL d   1      27.240 -13.440   0.718  0.00  0.00    -0.326 N 
ATOM     12  C   UNL d   1      28.057 -14.555   0.412  0.00  0.00     0.227 C 
ATOM     13  O   UNL d   1      29.193 -14.750   0.773  0.00  0.00    -0.273 OA
ATOM     14  H   UNL d   1      26.570 -13.178   0.010  0.00  0.00     0.169 HD
BRANCH  12  15
ATOM     15  C   UNL d   1      27.384 -15.710  -0.263  0.00  0.00     0.087 A 
ATOM     16  C   UNL d   1      27.906 -17.112  -0.324  0.00  0.00     0.025 A 
ATOM     17  C   UNL d   1      26.641 -16.829   0.471  0.00  0.00     0.032 A 
BRANCH  17  18
ATOM     18  C   UNL d   1      25.255 -17.229  -0.066  0.00  0.00    -0.053 A 
ATOM     19  C   UNL d   1      24.324 -16.270  -0.512  0.00  0.00     0.007 A 
ATOM     20  C   UNL d   1      23.024 -16.633  -0.895  0.00  0.00     0.001 A 
ATOM     21  C   UNL d   1      22.656 -17.975  -0.944  0.00  0.00     0.000 A 
ATOM     22  C   UNL d   1      23.571 -18.949  -0.571  0.00  0.00     0.001 A 
ATOM     23  C   UNL d   1      24.843 -18.574  -0.136  0.00  0.00     0.007 A 
ENDBRANCH  17  18
ENDBRANCH  12  15
ENDBRANCH   6  11
BRANCH   1  24
ATOM     24  N   UNL d   1      28.151 -11.813   6.758  0.00  0.00    -0.398 N 
ATOM     25  H   UNL d   1      28.949 -11.899   7.374  0.00  0.00     0.156 HD
ATOM     26  H   UNL d   1      27.475 -11.091   6.937  0.00  0.00     0.156 HD
ENDBRANCH   1  24
TORSDOF 4
ENDMDL
MODEL 9
REMARK VINA RESULT:    -6.948      4.670      6.759
REMARK INTER + INTRA:          -8.733
REMARK INTER:                  -8.141
REMARK INTRA:                  -0.592
REMARK CONF_INDEPENDENT:        1.193
REMARK UNBOUND:                -0.592
REMARK  4 active torsions:
REMARK  status: ('A' for Active; 'I' for Inactive)
REMARK    1  A    between atoms: N_1  and  C_2 
REMARK    2  A    between atoms: C_7  and  N_8 
REMARK       I    between atoms: N_8  and  C_9 
REMARK    3  A    between atoms: C_11  and  C_9 
REMARK    4  A    between atoms: C_13  and  C_14 
ROOT
ATOM      1  C   UNL d   1      31.760 -18.481  -6.842  0.00  0.00     0.036 C 
ATOM      2  C   UNL d   1      31.161 -19.359  -5.923  0.00  0.00     0.030 C 
ATOM      3  C   UNL d   1      30.271 -18.882  -4.998  0.00  0.00     0.003 C 
ATOM      4  C   UNL d   1      30.029 -17.525  -4.958  0.00  0.00     0.014 C 
ATOM      5  C   UNL d   1      30.425 -16.611  -5.932  0.00  0.00     0.003 A 
ATOM      6  C   UNL d   1      29.951 -15.261  -5.916  0.00  0.00     0.045 A 
ATOM      7  C   UNL d   1      30.558 -14.360  -6.815  0.00  0.00     0.030 A 
ATOM      8  C   UNL d   1      31.530 -14.794  -7.737  0.00  0.00     0.003 A 
ATOM      9  C   UNL d   1      31.928 -16.138  -7.773  0.00  0.00     0.014 A 
ATOM     10  C   UNL d   1      31.384 -17.089  -6.878  0.00  0.00     0.003 A 
ENDROOT
BRANCH   6  11
ATOM     11  N   UNL d   1      28.940 -14.748  -4.993  0.00  0.00    -0.326 N 
ATOM     12  C   UNL d   1      27.576 -15.114  -4.898  0.00  0.00     0.227 C 
ATOM     13  O   UNL d   1      26.880 -15.575  -5.770  0.00  0.00    -0.273 OA
ATOM     14  H   UNL d   1      29.231 -13.978  -4.408  0.00  0.00     0.169 HD
BRANCH  12  15
ATOM     15  C   UNL d   1      26.981 -15.119  -3.523  0.00  0.00     0.087 A 
ATOM     16  C   UNL d   1      25.933 -14.174  -3.020  0.00  0.00     0.025 A 
ATOM     17  C   UNL d   1      25.583 -15.643  -3.186  0.00  0.00     0.032 A 
BRANCH  17  18
ATOM     18  C   UNL d   1      25.452 -16.575  -1.968  0.00  0.00    -0.053 A 
ATOM     19  C   UNL d   1      24.238 -17.214  -1.645  0.00  0.00     0.007 A 
ATOM     20  C   UNL d   1      24.098 -17.972  -0.473  0.00  0.00     0.001 A 
ATOM     21  C   UNL d   1      25.197 -18.200   0.351  0.00  0.00     0.000 A 
ATOM     22  C   UNL d   1      26.423 -17.637   0.027  0.00  0.00     0.001 A 
ATOM     23  C   UNL d   1      26.539 -16.837  -1.111  0.00  0.00     0.007 A 
ENDBRANCH  17  18
ENDBRANCH  12  15
ENDBRANCH   6  11
BRANCH   1  24
ATOM     24  N   UNL d   1      32.764 -19.031  -7.636  0.00  0.00    -0.398 N 
ATOM     25  H   UNL d   1      32.543 -19.284  -8.591  0.00  0.00     0.156 HD
ATOM     26  H   UNL d   1      33.722 -19.067  -7.334  0.00  0.00     0.156 HD
ENDBRANCH   1  24
TORSDOF 4
ENDMDL
