MODEL 1
REMARK VINA RESULT:    -8.572      0.000      0.000
REMARK INTER + INTRA:         -12.223
REMARK INTER:                 -10.660
REMARK INTRA:                  -1.564
REMARK CONF_INDEPENDENT:        2.088
REMARK UNBOUND:                -1.564
REMARK  7 active torsions:
REMARK  status: ('A' for Active; 'I' for Inactive)
REMARK    1  A    between atoms: C_2  and  O_3 
REMARK    2  A    between atoms: O_3  and  C_4 
REMARK    3  A    between atoms: C_9  and  N_10 
REMARK    4  A    between atoms: C_11  and  N_12 
REMARK    5  A    between atoms: C_13  and  C_14 
REMARK       I    between atoms: C_14  and  N_16 
REMARK    6  A    between atoms: N_16  and  C_17 
REMARK    7  A    between atoms: C_17  and  C_18 
ROOT
ATOM      1  N   UNL d   1      26.109 -14.657  -2.961  0.00  0.00    -0.277 N 
ATOM      2  C   UNL d   1      24.792 -14.872  -2.475  0.00  0.00     0.126 C 
ATOM      3  C   UNL d   1      24.890 -15.689  -1.343  0.00  0.00     0.108 C 
ATOM      4  C   UNL d   1      26.261 -15.546  -1.005  0.00  0.00     0.123 C 
ATOM      5  N   UNL d   1      27.035 -15.727   0.088  0.00  0.00    -0.242 NA
ATOM      6  C   UNL d   1      28.318 -16.002  -0.349  0.00  0.00     0.086 C 
ATOM      7  C   UNL d   1      29.396 -15.059  -0.608  0.00  0.00     0.034 C 
ATOM      8  C   UNL d   1      30.628 -15.596  -1.075  0.00  0.00     0.002 C 
ATOM      9  C   UNL d   1      30.746 -16.967  -0.995  0.00  0.00     0.002 C 
ATOM     10  C   UNL d   1      29.556 -17.677  -0.957  0.00  0.00     0.034 C 
ATOM     11  C   UNL d   1      28.425 -16.882  -1.191  0.00  0.00     0.088 C 
ATOM     12  N   UNL d   1      27.940 -16.432  -2.455  0.00  0.00    -0.226 NA
ATOM     13  C   UNL d   1      26.844 -15.623  -2.256  0.00  0.00     0.167 C 
ENDROOT
BRANCH   3  14
ATOM     14  C   UNL d   1      23.883 -16.554  -0.740  0.00  0.00     0.258 C 
ATOM     15  O   UNL d   1      22.806 -16.112  -0.322  0.00  0.00    -0.267 OA
ATOM     16  N   UNL d   1      24.156 -17.916  -0.784  0.00  0.00    -0.354 N 
ATOM     17  H   UNL d   1      25.052 -18.200  -1.161  0.00  0.00     0.162 HD
BRANCH  16  18
ATOM     18  C   UNL d   1      23.282 -18.946  -0.218  0.00  0.00     0.155 C 
BRANCH  18  19
ATOM     19  C   UNL d   1      21.772 -18.636  -0.348  0.00  0.00     0.139 C 
ATOM     20  C   UNL d   1      20.888 -19.326   0.683  0.00  0.00     0.035 C 
ATOM     21  C   UNL d   1      19.571 -19.480  -0.044  0.00  0.00     0.029 C 
ATOM     22  C   UNL d   1      20.007 -19.700  -1.474  0.00  0.00     0.168 C 
ATOM     23  O   UNL d   1      21.275 -19.049  -1.638  0.00  0.00    -0.384 OA
ENDBRANCH  18  19
ENDBRANCH  16  18
ENDBRANCH   3  14
BRANCH   2  24
ATOM     24  N   UNL d   1      23.703 -14.450  -3.145  0.00  0.00    -0.384 N 
ATOM     25  H   UNL d   1      22.809 -14.233  -2.710  0.00  0.00     0.157 HD
ATOM     26  H   UNL d   1      23.789 -14.150  -4.123  0.00  0.00     0.157 HD
ENDBRANCH   2  24
BRANCH   1  27
ATOM     27  C   UNL d   1      26.506 -13.693  -3.956  0.00  0.00     0.076 A 
ATOM     28  C   UNL d   1      26.120 -12.338  -3.788  0.00  0.00     0.033 A 
ATOM     29  C   UNL d   1      26.534 -11.334  -4.686  0.00  0.00     0.002 A 
ATOM     30  C   UNL d   1      27.313 -11.665  -5.788  0.00  0.00     0.003 A 
ATOM     31  C   UNL d   1      27.688 -12.993  -5.971  0.00  0.00     0.039 A 
ATOM     32  C   UNL d   1      27.295 -14.003  -5.067  0.00  0.00     0.096 A 
BRANCH  32  33
ATOM     33  O   UNL d   1      27.770 -15.233  -5.399  0.00  0.00    -0.349 OA
BRANCH  33  34
ATOM     34  C   UNL d   1      29.149 -15.289  -5.758  0.00  0.00     0.171 C 
ATOM     35  C   UNL d   1      29.656 -16.611  -5.224  0.00  0.00     0.034 C 
ENDBRANCH  33  34
ENDBRANCH  32  33
ENDBRANCH   1  27
TORSDOF 7
ENDMDL
MODEL 2
REMARK VINA RESULT:    -8.508      1.918      4.965
REMARK INTER + INTRA:         -12.746
REMARK INTER:                 -10.596
REMARK INTRA:                  -2.151
REMARK CONF_INDEPENDENT:        2.088
REMARK UNBOUND:                -2.151
REMARK  7 active torsions:
REMARK  status: ('A' for Active; 'I' for Inactive)
REMARK    1  A    between atoms: C_2  and  O_3 
REMARK    2  A    between atoms: O_3  and  C_4 
REMARK    3  A    between atoms: C_9  and  N_10 
REMARK    4  A    between atoms: C_11  and  N_12 
REMARK    5  A    between atoms: C_13  and  C_14 
REMARK       I    between atoms: C_14  and  N_16 
REMARK    6  A    between atoms: N_16  and  C_17 
REMARK    7  A    between atoms: C_17  and  C_18 
ROOT
ATOM      1  N   UNL d   1      27.409 -16.655  -0.664  0.00  0.00    -0.277 N 
ATOM      2  C   UNL d   1      26.524 -17.626  -0.125  0.00  0.00     0.126 C 
ATOM      3  C   UNL d   1      25.292 -17.479  -0.774  0.00  0.00     0.108 C 
ATOM      4  C   UNL d   1      25.662 -16.732  -1.922  0.00  0.00     0.123 C 
ATOM      5  N   UNL d   1      25.151 -16.485  -3.148  0.00  0.00    -0.242 NA
ATOM      6  C   UNL d   1      25.633 -15.256  -3.562  0.00  0.00     0.086 C 
ATOM      7  C   UNL d   1      26.844 -14.980  -4.322  0.00  0.00     0.034 C 
ATOM      8  C   UNL d   1      27.132 -13.617  -4.607  0.00  0.00     0.002 C 
ATOM      9  C   UNL d   1      26.111 -12.728  -4.351  0.00  0.00     0.002 C 
ATOM     10  C   UNL d   1      25.164 -13.143  -3.428  0.00  0.00     0.034 C 
ATOM     11  C   UNL d   1      25.509 -14.333  -2.771  0.00  0.00     0.088 C 
ATOM     12  N   UNL d   1      26.415 -14.478  -1.680  0.00  0.00    -0.226 NA
ATOM     13  C   UNL d   1      26.530 -15.812  -1.363  0.00  0.00     0.167 C 
ENDROOT
BRANCH   3  14
ATOM     14  C   UNL d   1      23.963 -17.881  -0.330  0.00  0.00     0.258 C 
ATOM     15  O   UNL d   1      23.775 -18.424   0.765  0.00  0.00    -0.267 OA
ATOM     16  N   UNL d   1      22.912 -17.499  -1.155  0.00  0.00    -0.354 N 
ATOM     17  H   UNL d   1      23.148 -17.040  -2.027  0.00  0.00     0.162 HD
BRANCH  16  18
ATOM     18  C   UNL d   1      21.508 -17.822  -0.897  0.00  0.00     0.155 C 
BRANCH  18  19
ATOM     19  C   UNL d   1      21.292 -19.169  -0.166  0.00  0.00     0.139 C 
ATOM     20  C   UNL d   1      20.107 -19.984  -0.666  0.00  0.00     0.035 C 
ATOM     21  C   UNL d   1      19.686 -20.763   0.559  0.00  0.00     0.029 C 
ATOM     22  C   UNL d   1      19.990 -19.800   1.683  0.00  0.00     0.168 C 
ATOM     23  O   UNL d   1      21.062 -18.955   1.242  0.00  0.00    -0.384 OA
ENDBRANCH  18  19
ENDBRANCH  16  18
ENDBRANCH   3  14
BRANCH   2  24
ATOM     24  N   UNL d   1      26.861 -18.398   0.926  0.00  0.00    -0.384 N 
ATOM     25  H   UNL d   1      27.782 -18.406   1.362  0.00  0.00     0.157 HD
ATOM     26  H   UNL d   1      26.131 -18.886   1.457  0.00  0.00     0.157 HD
ENDBRANCH   2  24
BRANCH   1  27
ATOM     27  C   UNL d   1      28.835 -16.596  -0.468  0.00  0.00     0.076 A 
ATOM     28  C   UNL d   1      29.623 -17.718  -0.833  0.00  0.00     0.033 A 
ATOM     29  C   UNL d   1      31.029 -17.699  -0.732  0.00  0.00     0.002 A 
ATOM     30  C   UNL d   1      31.675 -16.575  -0.235  0.00  0.00     0.003 A 
ATOM     31  C   UNL d   1      30.912 -15.472   0.138  0.00  0.00     0.039 A 
ATOM     32  C   UNL d   1      29.506 -15.473   0.024  0.00  0.00     0.096 A 
BRANCH  32  33
ATOM     33  O   UNL d   1      28.936 -14.303   0.419  0.00  0.00    -0.349 OA
BRANCH  33  34
ATOM     34  C   UNL d   1      28.463 -14.267   1.763  0.00  0.00     0.171 C 
ATOM     35  C   UNL d   1      27.037 -13.764   1.680  0.00  0.00     0.034 C 
ENDBRANCH  33  34
ENDBRANCH  32  33
ENDBRANCH   1  27
TORSDOF 7
ENDMDL
MODEL 3
REMARK VINA RESULT:    -8.410      1.578      4.410
REMARK INTER + INTRA:         -12.595
REMARK INTER:                 -10.498
REMARK INTRA:                  -2.097
REMARK CONF_INDEPENDENT:        2.088
REMARK UNBOUND:                -2.097
REMARK  7 active torsions:
REMARK  status: ('A' for Active; 'I' for Inactive)
REMARK    1  A    between atoms: C_2  and  O_3 
REMARK    2  A    between atoms: O_3  and  C_4 
REMARK    3  A    between atoms: C_9  and  N_10 
REMARK    4  A    between atoms: C_11  and  N_12 
REMARK    5  A    between atoms: C_13  and  C_14 
REMARK       I    between atoms: C_14  and  N_16 
REMARK    6  A    between atoms: N_16  and  C_17 
REMARK    7  A    between atoms: C_17  and  C_18 
ROOT
ATOM      1  N   UNL d   1      27.526 -16.301  -0.836  0.00  0.00    -0.277 N 
ATOM      2  C   UNL d   1      26.675 -17.273  -0.246  0.00  0.00     0.126 C 
ATOM      3  C   UNL d   1      25.434 -17.193  -0.890  0.00  0.00     0.108 C 
ATOM      4  C   UNL d   1      25.773 -16.488  -2.074  0.00  0.00     0.123 C 
ATOM      5  N   UNL d   1      25.245 -16.313  -3.305  0.00  0.00    -0.242 NA
ATOM      6  C   UNL d   1      25.686 -15.090  -3.779  0.00  0.00     0.086 C 
ATOM      7  C   UNL d   1      26.882 -14.813  -4.561  0.00  0.00     0.034 C 
ATOM      8  C   UNL d   1      27.127 -13.456  -4.911  0.00  0.00     0.002 C 
ATOM      9  C   UNL d   1      26.081 -12.588  -4.686  0.00  0.00     0.002 C 
ATOM     10  C   UNL d   1      25.154 -12.988  -3.737  0.00  0.00     0.034 C 
ATOM     11  C   UNL d   1      25.540 -14.135  -3.030  0.00  0.00     0.088 C 
ATOM     12  N   UNL d   1      26.459 -14.203  -1.941  0.00  0.00    -0.226 NA
ATOM     13  C   UNL d   1      26.617 -15.518  -1.565  0.00  0.00     0.167 C 
ENDROOT
BRANCH   3  14
ATOM     14  C   UNL d   1      24.121 -17.613  -0.415  0.00  0.00     0.258 C 
ATOM     15  O   UNL d   1      23.971 -18.198   0.664  0.00  0.00    -0.267 OA
ATOM     16  N   UNL d   1      23.043 -17.202  -1.190  0.00  0.00    -0.354 N 
ATOM     17  H   UNL d   1      23.248 -16.710  -2.050  0.00  0.00     0.162 HD
BRANCH  16  18
ATOM     18  C   UNL d   1      21.648 -17.537  -0.896  0.00  0.00     0.155 C 
BRANCH  18  19
ATOM     19  C   UNL d   1      21.444 -18.970  -0.348  0.00  0.00     0.139 C 
ATOM     20  C   UNL d   1      20.221 -19.695  -0.896  0.00  0.00     0.035 C 
ATOM     21  C   UNL d   1      19.845 -20.631   0.230  0.00  0.00     0.029 C 
ATOM     22  C   UNL d   1      20.220 -19.837   1.460  0.00  0.00     0.168 C 
ATOM     23  O   UNL d   1      21.284 -18.950   1.087  0.00  0.00    -0.384 OA
ENDBRANCH  18  19
ENDBRANCH  16  18
ENDBRANCH   3  14
BRANCH   2  24
ATOM     24  N   UNL d   1      27.043 -17.985   0.837  0.00  0.00    -0.384 N 
ATOM     25  H   UNL d   1      26.392 -18.426   1.483  0.00  0.00     0.157 HD
ATOM     26  H   UNL d   1      28.022 -18.270   0.952  0.00  0.00     0.157 HD
ENDBRANCH   2  24
BRANCH   1  27
ATOM     27  C   UNL d   1      28.951 -16.190  -0.656  0.00  0.00     0.076 A 
ATOM     28  C   UNL d   1      29.445 -15.510   0.487  0.00  0.00     0.033 A 
ATOM     29  C   UNL d   1      30.825 -15.427   0.759  0.00  0.00     0.002 A 
ATOM     30  C   UNL d   1      31.743 -15.991  -0.118  0.00  0.00     0.003 A 
ATOM     31  C   UNL d   1      31.271 -16.651  -1.249  0.00  0.00     0.039 A 
ATOM     32  C   UNL d   1      29.890 -16.757  -1.522  0.00  0.00     0.096 A 
BRANCH  32  33
ATOM     33  O   UNL d   1      29.621 -17.451  -2.659  0.00  0.00    -0.349 OA
BRANCH  33  34
ATOM     34  C   UNL d   1      30.556 -17.285  -3.722  0.00  0.00     0.171 C 
ATOM     35  C   UNL d   1      29.896 -16.339  -4.702  0.00  0.00     0.034 C 
ENDBRANCH  33  34
ENDBRANCH  32  33
ENDBRANCH   1  27
TORSDOF 7
ENDMDL
MODEL 4
REMARK VINA RESULT:    -7.984      2.378      4.213
REMARK INTER + INTRA:         -12.300
REMARK INTER:                 -10.072
REMARK INTRA:                  -2.228
REMARK CONF_INDEPENDENT:        2.088
REMARK UNBOUND:                -2.228
REMARK  7 active torsions:
REMARK  status: ('A' for Active; 'I' for Inactive)
REMARK    1  A    between atoms: C_2  and  O_3 
REMARK    2  A    between atoms: O_3  and  C_4 
REMARK    3  A    between atoms: C_9  and  N_10 
REMARK    4  A    between atoms: C_11  and  N_12 
REMARK    5  A    between atoms: C_13  and  C_14 
REMARK       I    between atoms: C_14  and  N_16 
REMARK    6  A    between atoms: N_16  and  C_17 
REMARK    7  A    between atoms: C_17  and  C_18 
ROOT
ATOM      1  N   UNL d   1      27.253 -13.331  -5.739  0.00  0.00    -0.277 N 
ATOM      2  C   UNL d   1      26.242 -13.271  -4.744  0.00  0.00     0.126 C 
ATOM      3  C   UNL d   1      26.535 -14.247  -3.785  0.00  0.00     0.108 C 
ATOM      4  C   UNL d   1      27.901 -14.515  -4.060  0.00  0.00     0.123 C 
ATOM      5  N   UNL d   1      28.955 -15.053  -3.406  0.00  0.00    -0.242 NA
ATOM      6  C   UNL d   1      29.810 -15.581  -4.357  0.00  0.00     0.086 C 
ATOM      7  C   UNL d   1      30.923 -14.921  -5.024  0.00  0.00     0.034 C 
ATOM      8  C   UNL d   1      31.644 -15.680  -5.986  0.00  0.00     0.002 C 
ATOM      9  C   UNL d   1      31.370 -17.030  -6.003  0.00  0.00     0.002 C 
ATOM     10  C   UNL d   1      30.142 -17.406  -5.481  0.00  0.00     0.034 C 
ATOM     11  C   UNL d   1      29.305 -16.320  -5.189  0.00  0.00     0.088 C 
ATOM     12  N   UNL d   1      28.514 -15.575  -6.112  0.00  0.00    -0.226 NA
ATOM     13  C   UNL d   1      27.884 -14.550  -5.442  0.00  0.00     0.167 C 
ENDROOT
BRANCH   3  14
ATOM     14  C   UNL d   1      25.644 -14.903  -2.835  0.00  0.00     0.258 C 
ATOM     15  O   UNL d   1      24.414 -14.825  -2.930  0.00  0.00    -0.267 OA
ATOM     16  N   UNL d   1      26.263 -15.724  -1.899  0.00  0.00    -0.354 N 
ATOM     17  H   UNL d   1      27.275 -15.750  -1.899  0.00  0.00     0.162 HD
BRANCH  16  18
ATOM     18  C   UNL d   1      25.548 -16.454  -0.850  0.00  0.00     0.155 C 
BRANCH  18  19
ATOM     19  C   UNL d   1      24.312 -17.236  -1.353  0.00  0.00     0.139 C 
ATOM     20  C   UNL d   1      22.972 -16.675  -0.893  0.00  0.00     0.035 C 
ATOM     21  C   UNL d   1      22.084 -17.899  -0.855  0.00  0.00     0.029 C 
ATOM     22  C   UNL d   1      23.044 -18.991  -0.443  0.00  0.00     0.168 C 
ATOM     23  O   UNL d   1      24.350 -18.603  -0.893  0.00  0.00    -0.384 OA
ENDBRANCH  18  19
ENDBRANCH  16  18
ENDBRANCH   3  14
BRANCH   2  24
ATOM     24  N   UNL d   1      25.155 -12.485  -4.874  0.00  0.00    -0.384 N 
ATOM     25  H   UNL d   1      25.188 -11.478  -5.018  0.00  0.00     0.157 HD
ATOM     26  H   UNL d   1      24.232 -12.909  -5.018  0.00  0.00     0.157 HD
ENDBRANCH   2  24
BRANCH   1  27
ATOM     27  C   UNL d   1      27.487 -12.364  -6.780  0.00  0.00     0.076 A 
ATOM     28  C   UNL d   1      28.160 -12.776  -7.959  0.00  0.00     0.033 A 
ATOM     29  C   UNL d   1      28.358 -11.898  -9.043  0.00  0.00     0.002 A 
ATOM     30  C   UNL d   1      27.920 -10.582  -8.962  0.00  0.00     0.003 A 
ATOM     31  C   UNL d   1      27.268 -10.162  -7.806  0.00  0.00     0.039 A 
ATOM     32  C   UNL d   1      27.047 -11.038  -6.722  0.00  0.00     0.096 A 
BRANCH  32  33
ATOM     33  O   UNL d   1      26.381 -10.455  -5.690  0.00  0.00    -0.349 OA
BRANCH  33  34
ATOM     34  C   UNL d   1      25.456  -9.432  -6.048  0.00  0.00     0.171 C 
ATOM     35  C   UNL d   1      24.992  -8.826  -4.741  0.00  0.00     0.034 C 
ENDBRANCH  33  34
ENDBRANCH  32  33
ENDBRANCH   1  27
TORSDOF 7
ENDMDL
MODEL 5
REMARK VINA RESULT:    -7.533      3.544      7.020
REMARK INTER + INTRA:         -11.985
REMARK INTER:                  -9.621
REMARK INTRA:                  -2.364
REMARK CONF_INDEPENDENT:        2.088
REMARK UNBOUND:                -2.364
REMARK  7 active torsions:
REMARK  status: ('A' for Active; 'I' for Inactive)
REMARK    1  A    between atoms: C_2  and  O_3 
REMARK    2  A    between atoms: O_3  and  C_4 
REMARK    3  A    between atoms: C_9  and  N_10 
REMARK    4  A    between atoms: C_11  and  N_12 
REMARK    5  A    between atoms: C_13  and  C_14 
REMARK       I    between atoms: C_14  and  N_16 
REMARK    6  A    between atoms: N_16  and  C_17 
REMARK    7  A    between atoms: C_17  and  C_18 
ROOT
ATOM      1  N   UNL d   1      27.990 -15.678   0.856  0.00  0.00    -0.277 N 
ATOM      2  C   UNL d   1      29.240 -15.990   0.259  0.00  0.00     0.126 C 
ATOM      3  C   UNL d   1      28.992 -16.860  -0.809  0.00  0.00     0.108 C 
ATOM      4  C   UNL d   1      27.603 -16.662  -1.021  0.00  0.00     0.123 C 
ATOM      5  N   UNL d   1      26.718 -16.861  -2.022  0.00  0.00    -0.242 NA
ATOM      6  C   UNL d   1      25.472 -17.044  -1.448  0.00  0.00     0.086 C 
ATOM      7  C   UNL d   1      24.471 -16.033  -1.143  0.00  0.00     0.034 C 
ATOM      8  C   UNL d   1      23.268 -16.477  -0.529  0.00  0.00     0.002 C 
ATOM      9  C   UNL d   1      23.077 -17.842  -0.516  0.00  0.00     0.002 C 
ATOM     10  C   UNL d   1      24.222 -18.615  -0.626  0.00  0.00     0.034 C 
ATOM     11  C   UNL d   1      25.407 -17.870  -0.549  0.00  0.00     0.088 C 
ATOM     12  N   UNL d   1      26.035 -17.379   0.634  0.00  0.00    -0.226 NA
ATOM     13  C   UNL d   1      27.143 -16.641   0.283  0.00  0.00     0.167 C 
ENDROOT
BRANCH   3  14
ATOM     14  C   UNL d   1      29.893 -17.809  -1.453  0.00  0.00     0.258 C 
ATOM     15  O   UNL d   1      30.383 -17.593  -2.567  0.00  0.00    -0.267 OA
ATOM     16  N   UNL d   1      30.264 -18.904  -0.681  0.00  0.00    -0.354 N 
ATOM     17  H   UNL d   1      29.833 -19.000   0.230  0.00  0.00     0.162 HD
BRANCH  16  18
ATOM     18  C   UNL d   1      31.142 -19.978  -1.151  0.00  0.00     0.155 C 
BRANCH  18  19
ATOM     19  C   UNL d   1      31.150 -21.232  -0.245  0.00  0.00     0.139 C 
ATOM     20  C   UNL d   1      31.038 -22.556  -0.988  0.00  0.00     0.035 C 
ATOM     21  C   UNL d   1      30.357 -23.457   0.018  0.00  0.00     0.029 C 
ATOM     22  C   UNL d   1      29.443 -22.502   0.750  0.00  0.00     0.168 C 
ATOM     23  O   UNL d   1      30.042 -21.200   0.680  0.00  0.00    -0.384 OA
ENDBRANCH  18  19
ENDBRANCH  16  18
ENDBRANCH   3  14
BRANCH   2  24
ATOM     24  N   UNL d   1      30.410 -15.590   0.795  0.00  0.00    -0.384 N 
ATOM     25  H   UNL d   1      30.786 -15.936   1.676  0.00  0.00     0.157 HD
ATOM     26  H   UNL d   1      31.070 -15.043   0.233  0.00  0.00     0.157 HD
ENDBRANCH   2  24
BRANCH   1  27
ATOM     27  C   UNL d   1      27.740 -14.643   1.825  0.00  0.00     0.076 A 
ATOM     28  C   UNL d   1      28.198 -14.825   3.155  0.00  0.00     0.033 A 
ATOM     29  C   UNL d   1      28.048 -13.821   4.134  0.00  0.00     0.002 A 
ATOM     30  C   UNL d   1      27.409 -12.630   3.816  0.00  0.00     0.003 A 
ATOM     31  C   UNL d   1      26.944 -12.444   2.517  0.00  0.00     0.039 A 
ATOM     32  C   UNL d   1      27.106 -13.434   1.524  0.00  0.00     0.096 A 
BRANCH  32  33
ATOM     33  O   UNL d   1      26.605 -13.066   0.315  0.00  0.00    -0.349 OA
BRANCH  33  34
ATOM     34  C   UNL d   1      27.520 -13.117  -0.777  0.00  0.00     0.171 C 
ATOM     35  C   UNL d   1      26.687 -13.472  -1.990  0.00  0.00     0.034 C 
ENDBRANCH  33  34
ENDBRANCH  32  33
ENDBRANCH   1  27
TORSDOF 7
ENDMDL
MODEL 6
REMARK VINA RESULT:    -7.237      2.873      7.390
REMARK INTER + INTRA:         -11.768
REMARK INTER:                  -9.325
REMARK INTRA:                  -2.444
REMARK CONF_INDEPENDENT:        2.088
REMARK UNBOUND:                -2.444
REMARK  7 active torsions:
REMARK  status: ('A' for Active; 'I' for Inactive)
REMARK    1  A    between atoms: C_2  and  O_3 
REMARK    2  A    between atoms: O_3  and  C_4 
REMARK    3  A    between atoms: C_9  and  N_10 
REMARK    4  A    between atoms: C_11  and  N_12 
REMARK    5  A    between atoms: C_13  and  C_14 
REMARK       I    between atoms: C_14  and  N_16 
REMARK    6  A    between atoms: N_16  and  C_17 
REMARK    7  A    between atoms: C_17  and  C_18 
ROOT
ATOM      1  N   UNL d   1      27.984 -15.612   0.848  0.00  0.00    -0.277 N 
ATOM      2  C   UNL d   1      29.232 -15.899   0.232  0.00  0.00     0.126 C 
ATOM      3  C   UNL d   1      28.981 -16.747  -0.853  0.00  0.00     0.108 C 
ATOM      4  C   UNL d   1      27.588 -16.556  -1.047  0.00  0.00     0.123 C 
ATOM      5  N   UNL d   1      26.694 -16.739  -2.044  0.00  0.00    -0.242 NA
ATOM      6  C   UNL d   1      25.456 -16.946  -1.463  0.00  0.00     0.086 C 
ATOM      7  C   UNL d   1      24.449 -15.950  -1.126  0.00  0.00     0.034 C 
ATOM      8  C   UNL d   1      23.256 -16.419  -0.511  0.00  0.00     0.002 C 
ATOM      9  C   UNL d   1      23.077 -17.785  -0.527  0.00  0.00     0.002 C 
ATOM     10  C   UNL d   1      24.227 -18.545  -0.666  0.00  0.00     0.034 C 
ATOM     11  C   UNL d   1      25.407 -17.793  -0.583  0.00  0.00     0.088 C 
ATOM     12  N   UNL d   1      26.042 -17.323   0.605  0.00  0.00    -0.226 NA
ATOM     13  C   UNL d   1      27.140 -16.568   0.261  0.00  0.00     0.167 C 
ENDROOT
BRANCH   3  14
ATOM     14  C   UNL d   1      29.883 -17.673  -1.527  0.00  0.00     0.258 C 
ATOM     15  O   UNL d   1      30.480 -18.567  -0.916  0.00  0.00    -0.267 OA
ATOM     16  N   UNL d   1      29.928 -17.568  -2.912  0.00  0.00    -0.354 N 
ATOM     17  H   UNL d   1      29.394 -16.821  -3.340  0.00  0.00     0.162 HD
BRANCH  16  18
ATOM     18  C   UNL d   1      30.784 -18.390  -3.769  0.00  0.00     0.155 C 
BRANCH  18  19
ATOM     19  C   UNL d   1      30.546 -18.186  -5.284  0.00  0.00     0.139 C 
ATOM     20  C   UNL d   1      31.802 -17.893  -6.093  0.00  0.00     0.035 C 
ATOM     21  C   UNL d   1      31.283 -17.059  -7.243  0.00  0.00     0.029 C 
ATOM     22  C   UNL d   1      30.154 -16.283  -6.604  0.00  0.00     0.168 C 
ATOM     23  O   UNL d   1      29.655 -17.074  -5.516  0.00  0.00    -0.384 OA
ENDBRANCH  18  19
ENDBRANCH  16  18
ENDBRANCH   3  14
BRANCH   2  24
ATOM     24  N   UNL d   1      30.403 -15.502   0.767  0.00  0.00    -0.384 N 
ATOM     25  H   UNL d   1      30.987 -14.761   0.385  0.00  0.00     0.157 HD
ATOM     26  H   UNL d   1      30.668 -15.817   1.706  0.00  0.00     0.157 HD
ENDBRANCH   2  24
BRANCH   1  27
ATOM     27  C   UNL d   1      27.735 -14.601   1.843  0.00  0.00     0.076 A 
ATOM     28  C   UNL d   1      28.177 -14.825   3.172  0.00  0.00     0.033 A 
ATOM     29  C   UNL d   1      28.028 -13.848   4.177  0.00  0.00     0.002 A 
ATOM     30  C   UNL d   1      27.405 -12.641   3.886  0.00  0.00     0.003 A 
ATOM     31  C   UNL d   1      26.956 -12.414   2.588  0.00  0.00     0.039 A 
ATOM     32  C   UNL d   1      27.118 -13.377   1.570  0.00  0.00     0.096 A 
BRANCH  32  33
ATOM     33  O   UNL d   1      26.633 -12.970   0.366  0.00  0.00    -0.349 OA
BRANCH  33  34
ATOM     34  C   UNL d   1      27.590 -12.873  -0.686  0.00  0.00     0.171 C 
ATOM     35  C   UNL d   1      26.894 -13.408  -1.920  0.00  0.00     0.034 C 
ENDBRANCH  33  34
ENDBRANCH  32  33
ENDBRANCH   1  27
TORSDOF 7
ENDMDL
MODEL 7
REMARK VINA RESULT:    -7.085      2.961      4.932
REMARK INTER + INTRA:         -12.176
REMARK INTER:                  -9.173
REMARK INTRA:                  -3.003
REMARK CONF_INDEPENDENT:        2.088
REMARK UNBOUND:                -3.003
REMARK  7 active torsions:
REMARK  status: ('A' for Active; 'I' for Inactive)
REMARK    1  A    between atoms: C_2  and  O_3 
REMARK    2  A    between atoms: O_3  and  C_4 
REMARK    3  A    between atoms: C_9  and  N_10 
REMARK    4  A    between atoms: C_11  and  N_12 
REMARK    5  A    between atoms: C_13  and  C_14 
REMARK       I    between atoms: C_14  and  N_16 
REMARK    6  A    between atoms: N_16  and  C_17 
REMARK    7  A    between atoms: C_17  and  C_18 
ROOT
ATOM      1  N   UNL d   1      27.379 -12.870  -6.192  0.00  0.00    -0.277 N 
ATOM      2  C   UNL d   1      26.231 -12.779  -5.361  0.00  0.00     0.126 C 
ATOM      3  C   UNL d   1      26.331 -13.786  -4.393  0.00  0.00     0.108 C 
ATOM      4  C   UNL d   1      27.710 -14.114  -4.465  0.00  0.00     0.123 C 
ATOM      5  N   UNL d   1      28.626 -14.713  -3.673  0.00  0.00    -0.242 NA
ATOM      6  C   UNL d   1      29.592 -15.264  -4.496  0.00  0.00     0.086 C 
ATOM      7  C   UNL d   1      30.822 -14.646  -4.969  0.00  0.00     0.034 C 
ATOM      8  C   UNL d   1      31.647 -15.422  -5.830  0.00  0.00     0.002 C 
ATOM      9  C   UNL d   1      31.319 -16.757  -5.922  0.00  0.00     0.002 C 
ATOM     10  C   UNL d   1      30.010 -17.083  -5.602  0.00  0.00     0.034 C 
ATOM     11  C   UNL d   1      29.187 -15.964  -5.413  0.00  0.00     0.088 C 
ATOM     12  N   UNL d   1      28.580 -15.164  -6.426  0.00  0.00    -0.226 NA
ATOM     13  C   UNL d   1      27.903 -14.123  -5.834  0.00  0.00     0.167 C 
ENDROOT
BRANCH   3  14
ATOM     14  C   UNL d   1      25.278 -14.416  -3.607  0.00  0.00     0.258 C 
ATOM     15  O   UNL d   1      24.089 -14.098  -3.731  0.00  0.00    -0.267 OA
ATOM     16  N   UNL d   1      25.679 -15.480  -2.807  0.00  0.00    -0.354 N 
ATOM     17  H   UNL d   1      26.669 -15.691  -2.775  0.00  0.00     0.162 HD
BRANCH  16  18
ATOM     18  C   UNL d   1      24.779 -16.230  -1.929  0.00  0.00     0.155 C 
BRANCH  18  19
ATOM     19  C   UNL d   1      25.436 -17.450  -1.242  0.00  0.00     0.139 C 
ATOM     20  C   UNL d   1      25.081 -17.622   0.229  0.00  0.00     0.035 C 
ATOM     21  C   UNL d   1      26.300 -18.313   0.797  0.00  0.00     0.029 C 
ATOM     22  C   UNL d   1      27.425 -17.726  -0.023  0.00  0.00     0.168 C 
ATOM     23  O   UNL d   1      26.875 -17.352  -1.295  0.00  0.00    -0.384 OA
ENDBRANCH  18  19
ENDBRANCH  16  18
ENDBRANCH   3  14
BRANCH   2  24
ATOM     24  N   UNL d   1      25.213 -11.940  -5.634  0.00  0.00    -0.384 N 
ATOM     25  H   UNL d   1      24.379 -12.200  -6.157  0.00  0.00     0.157 HD
ATOM     26  H   UNL d   1      25.156 -11.034  -5.158  0.00  0.00     0.157 HD
ENDBRANCH   2  24
BRANCH   1  27
ATOM     27  C   UNL d   1      27.812 -11.896  -7.161  0.00  0.00     0.076 A 
ATOM     28  C   UNL d   1      28.573 -12.332  -8.277  0.00  0.00     0.033 A 
ATOM     29  C   UNL d   1      28.967 -11.442  -9.296  0.00  0.00     0.002 A 
ATOM     30  C   UNL d   1      28.641 -10.095  -9.209  0.00  0.00     0.003 A 
ATOM     31  C   UNL d   1      27.905  -9.653  -8.113  0.00  0.00     0.039 A 
ATOM     32  C   UNL d   1      27.488 -10.538  -7.096  0.00  0.00     0.096 A 
BRANCH  32  33
ATOM     33  O   UNL d   1      26.765  -9.929  -6.119  0.00  0.00    -0.349 OA
BRANCH  33  34
ATOM     34  C   UNL d   1      26.072  -8.746  -6.507  0.00  0.00     0.171 C 
ATOM     35  C   UNL d   1      24.745  -8.794  -5.780  0.00  0.00     0.034 C 
ENDBRANCH  33  34
ENDBRANCH  32  33
ENDBRANCH   1  27
TORSDOF 7
ENDMDL
MODEL 8
REMARK VINA RESULT:    -6.747      2.326      7.526
REMARK INTER + INTRA:         -12.018
REMARK INTER:                  -8.836
REMARK INTRA:                  -3.182
REMARK CONF_INDEPENDENT:        2.088
REMARK UNBOUND:                -3.182
REMARK  7 active torsions:
REMARK  status: ('A' for Active; 'I' for Inactive)
REMARK    1  A    between atoms: C_2  and  O_3 
REMARK    2  A    between atoms: O_3  and  C_4 
REMARK    3  A    between atoms: C_9  and  N_10 
REMARK    4  A    between atoms: C_11  and  N_12 
REMARK    5  A    between atoms: C_13  and  C_14 
REMARK       I    between atoms: C_14  and  N_16 
REMARK    6  A    between atoms: N_16  and  C_17 
REMARK    7  A    between atoms: C_17  and  C_18 
ROOT
ATOM      1  N   UNL d   1      26.886 -15.551  -2.636  0.00  0.00    -0.277 N 
ATOM      2  C   UNL d   1      25.897 -14.633  -3.076  0.00  0.00     0.126 C 
ATOM      3  C   UNL d   1      26.367 -14.041  -4.255  0.00  0.00     0.108 C 
ATOM      4  C   UNL d   1      27.386 -14.948  -4.642  0.00  0.00     0.123 C 
ATOM      5  N   UNL d   1      28.051 -15.263  -5.776  0.00  0.00    -0.242 NA
ATOM      6  C   UNL d   1      29.289 -15.761  -5.409  0.00  0.00     0.086 C 
ATOM      7  C   UNL d   1      29.655 -17.145  -5.146  0.00  0.00     0.034 C 
ATOM      8  C   UNL d   1      31.001 -17.397  -4.762  0.00  0.00     0.002 C 
ATOM      9  C   UNL d   1      31.871 -16.341  -4.922  0.00  0.00     0.002 C 
ATOM     10  C   UNL d   1      31.297 -15.080  -4.948  0.00  0.00     0.034 C 
ATOM     11  C   UNL d   1      29.933 -15.082  -4.622  0.00  0.00     0.088 C 
ATOM     12  N   UNL d   1      29.364 -15.149  -3.316  0.00  0.00    -0.226 NA
ATOM     13  C   UNL d   1      27.992 -15.192  -3.423  0.00  0.00     0.167 C 
ENDROOT
BRANCH   3  14
ATOM     14  C   UNL d   1      25.992 -12.768  -4.860  0.00  0.00     0.258 C 
ATOM     15  O   UNL d   1      25.155 -12.019  -4.343  0.00  0.00    -0.267 OA
ATOM     16  N   UNL d   1      26.727 -12.395  -5.979  0.00  0.00    -0.354 N 
ATOM     17  H   UNL d   1      27.409 -13.056  -6.330  0.00  0.00     0.162 HD
BRANCH  16  18
ATOM     18  C   UNL d   1      26.493 -11.167  -6.741  0.00  0.00     0.155 C 
BRANCH  18  19
ATOM     19  C   UNL d   1      27.380 -11.025  -8.001  0.00  0.00     0.139 C 
ATOM     20  C   UNL d   1      26.642 -11.190  -9.322  0.00  0.00     0.035 C 
ATOM     21  C   UNL d   1      27.710 -11.728 -10.247  0.00  0.00     0.029 C 
ATOM     22  C   UNL d   1      28.553 -12.574  -9.320  0.00  0.00     0.168 C 
ATOM     23  O   UNL d   1      28.427 -12.018  -8.003  0.00  0.00    -0.384 OA
ENDBRANCH  18  19
ENDBRANCH  16  18
ENDBRANCH   3  14
BRANCH   2  24
ATOM     24  N   UNL d   1      24.808 -14.344  -2.338  0.00  0.00    -0.384 N 
ATOM     25  H   UNL d   1      24.539 -14.842  -1.491  0.00  0.00     0.157 HD
ATOM     26  H   UNL d   1      24.295 -13.471  -2.504  0.00  0.00     0.157 HD
ENDBRANCH   2  24
BRANCH   1  27
ATOM     27  C   UNL d   1      26.730 -16.548  -1.608  0.00  0.00     0.076 A 
ATOM     28  C   UNL d   1      27.878 -16.985  -0.898  0.00  0.00     0.033 A 
ATOM     29  C   UNL d   1      27.784 -17.906   0.166  0.00  0.00     0.002 A 
ATOM     30  C   UNL d   1      26.550 -18.434   0.522  0.00  0.00     0.003 A 
ATOM     31  C   UNL d   1      25.418 -18.022  -0.175  0.00  0.00     0.039 A 
ATOM     32  C   UNL d   1      25.497 -17.087  -1.229  0.00  0.00     0.096 A 
BRANCH  32  33
ATOM     33  O   UNL d   1      24.288 -16.794  -1.778  0.00  0.00    -0.349 OA
BRANCH  33  34
ATOM     34  C   UNL d   1      23.169 -16.898  -0.901  0.00  0.00     0.171 C 
ATOM     35  C   UNL d   1      22.544 -18.245  -1.196  0.00  0.00     0.034 C 
ENDBRANCH  33  34
ENDBRANCH  32  33
ENDBRANCH   1  27
TORSDOF 7
ENDMDL
MODEL 9
REMARK VINA RESULT:    -6.317      4.501      8.263
REMARK INTER + INTRA:         -11.717
REMARK INTER:                  -8.405
REMARK INTRA:                  -3.312
REMARK CONF_INDEPENDENT:        2.088
REMARK UNBOUND:                -3.312
REMARK  7 active torsions:
REMARK  status: ('A' for Active; 'I' for Inactive)
REMARK    1  A    between atoms: C_2  and  O_3 
REMARK    2  A    between atoms: O_3  and  C_4 
REMARK    3  A    between atoms: C_9  and  N_10 
REMARK    4  A    between atoms: C_11  and  N_12 
REMARK    5  A    between atoms: C_13  and  C_14 
REMARK       I    between atoms: C_14  and  N_16 
REMARK    6  A    between atoms: N_16  and  C_17 
REMARK    7  A    between atoms: C_17  and  C_18 
ROOT
ATOM      1  N   UNL d   1      29.684 -15.807  -6.063  0.00  0.00    -0.277 N 
ATOM      2  C   UNL d   1      30.238 -14.885  -6.991  0.00  0.00     0.126 C 
ATOM      3  C   UNL d   1      29.493 -13.703  -6.905  0.00  0.00     0.108 C 
ATOM      4  C   UNL d   1      28.840 -13.868  -5.656  0.00  0.00     0.123 C 
ATOM      5  N   UNL d   1      28.243 -13.073  -4.740  0.00  0.00    -0.242 NA
ATOM      6  C   UNL d   1      27.301 -13.837  -4.074  0.00  0.00     0.086 C 
ATOM      7  C   UNL d   1      27.481 -14.622  -2.862  0.00  0.00     0.034 C 
ATOM      8  C   UNL d   1      26.352 -15.342  -2.383  0.00  0.00     0.002 C 
ATOM      9  C   UNL d   1      25.150 -15.024  -2.976  0.00  0.00     0.002 C 
ATOM     10  C   UNL d   1      25.228 -14.454  -4.238  0.00  0.00     0.034 C 
ATOM     11  C   UNL d   1      26.523 -14.467  -4.776  0.00  0.00     0.088 C 
ATOM     12  N   UNL d   1      27.182 -15.569  -5.398  0.00  0.00    -0.226 NA
ATOM     13  C   UNL d   1      28.464 -15.196  -5.734  0.00  0.00     0.167 C 
ENDROOT
BRANCH   3  14
ATOM     14  C   UNL d   1      29.334 -12.641  -7.891  0.00  0.00     0.258 C 
ATOM     15  O   UNL d   1      30.040 -12.577  -8.904  0.00  0.00    -0.267 OA
ATOM     16  N   UNL d   1      28.258 -11.785  -7.685  0.00  0.00    -0.354 N 
ATOM     17  H   UNL d   1      27.714 -11.916  -6.841  0.00  0.00     0.162 HD
BRANCH  16  18
ATOM     18  C   UNL d   1      27.939 -10.646  -8.548  0.00  0.00     0.155 C 
BRANCH  18  19
ATOM     19  C   UNL d   1      26.656  -9.884  -8.142  0.00  0.00     0.139 C 
ATOM     20  C   UNL d   1      26.896  -8.513  -7.525  0.00  0.00     0.035 C 
ATOM     21  C   UNL d   1      25.705  -8.335  -6.611  0.00  0.00     0.029 C 
ATOM     22  C   UNL d   1      25.438  -9.746  -6.139  0.00  0.00     0.168 C 
ATOM     23  O   UNL d   1      25.904 -10.634  -7.165  0.00  0.00    -0.384 OA
ENDBRANCH  18  19
ENDBRANCH  16  18
ENDBRANCH   3  14
BRANCH   2  24
ATOM     24  N   UNL d   1      31.206 -15.237  -7.859  0.00  0.00    -0.384 N 
ATOM     25  H   UNL d   1      31.708 -16.122  -7.833  0.00  0.00     0.157 HD
ATOM     26  H   UNL d   1      31.351 -14.686  -8.713  0.00  0.00     0.157 HD
ENDBRANCH   2  24
BRANCH   1  27
ATOM     27  C   UNL d   1      30.272 -17.053  -5.642  0.00  0.00     0.076 A 
ATOM     28  C   UNL d   1      30.328 -17.350  -4.256  0.00  0.00     0.033 A 
ATOM     29  C   UNL d   1      30.826 -18.580  -3.782  0.00  0.00     0.002 A 
ATOM     30  C   UNL d   1      31.308 -19.526  -4.677  0.00  0.00     0.003 A 
ATOM     31  C   UNL d   1      31.270 -19.242  -6.039  0.00  0.00     0.039 A 
ATOM     32  C   UNL d   1      30.756 -18.021  -6.526  0.00  0.00     0.096 A 
BRANCH  32  33
ATOM     33  O   UNL d   1      30.784 -17.932  -7.882  0.00  0.00    -0.349 OA
BRANCH  33  34
ATOM     34  C   UNL d   1      31.672 -18.829  -8.545  0.00  0.00     0.171 C 
ATOM     35  C   UNL d   1      30.792 -19.708  -9.409  0.00  0.00     0.034 C 
ENDBRANCH  33  34
ENDBRANCH  32  33
ENDBRANCH   1  27
TORSDOF 7
ENDMDL
