MODEL 1
REMARK VINA RESULT:    -7.996      0.000      0.000
REMARK INTER + INTRA:         -12.501
REMARK INTER:                 -10.382
REMARK INTRA:                  -2.119
REMARK CONF_INDEPENDENT:        2.386
REMARK UNBOUND:                -2.119
REMARK  8 active torsions:
REMARK  status: ('A' for Active; 'I' for Inactive)
REMARK    1  A    between atoms: C_2  and  N_3 
REMARK    2  A    between atoms: N_3  and  C_4 
REMARK    3  A    between atoms: N_3  and  C_6 
REMARK    4  A    between atoms: C_9  and  N_10 
REMARK    5  A    between atoms: C_16  and  N_17 
REMARK       I    between atoms: N_17  and  C_18 
REMARK    6  A    between atoms: C_18  and  C_20 
REMARK    7  A    between atoms: C_20  and  O_21 
REMARK    8  A    between atoms: C_20  and  C_23 
ROOT
ATOM      1  N   UNL d   1      28.807 -13.001   6.060  0.00  0.00    -0.149 N 
ATOM      2  N   UNL d   1      28.502 -12.079   5.194  0.00  0.00    -0.147 NA
ATOM      3  C   UNL d   1      28.175 -12.660   4.092  0.00  0.00     0.110 A 
ATOM      4  C   UNL d   1      27.839 -11.921   2.983  0.00  0.00     0.045 A 
ATOM      5  C   UNL d   1      27.445 -12.601   1.848  0.00  0.00    -0.033 A 
ATOM      6  C   UNL d   1      27.114 -11.616   0.779  0.00  0.00     0.050 C 
ATOM      7  C   UNL d   1      27.365 -14.021   1.788  0.00  0.00     0.043 A 
ATOM      8  C   UNL d   1      27.780 -14.821   2.997  0.00  0.00     0.066 A 
ATOM      9  C   UNL d   1      28.200 -14.080   4.218  0.00  0.00     0.111 A 
ATOM     10  N   UNL d   1      28.635 -14.312   5.540  0.00  0.00    -0.147 NA
ENDROOT
BRANCH   7  11
ATOM     11  N   UNL d   1      26.872 -14.665   0.555  0.00  0.00    -0.324 N 
ATOM     12  C   UNL d   1      26.620 -16.043   0.273  0.00  0.00     0.255 C 
ATOM     13  O   UNL d   1      26.902 -17.047   0.948  0.00  0.00    -0.270 OA
ATOM     14  H   UNL d   1      26.615 -14.029  -0.196  0.00  0.00     0.169 HD
BRANCH  12  15
ATOM     15  C   UNL d   1      25.894 -16.474  -0.998  0.00  0.00     0.246 C 
BRANCH  15  16
ATOM     16  O   UNL d   1      25.875 -15.328  -1.857  0.00  0.00    -0.377 OA
ATOM     17  C   UNL d   1      26.444 -15.575  -3.137  0.00  0.00     0.203 C 
ENDBRANCH  15  16
BRANCH  15  18
ATOM     18  C   UNL d   1      24.568 -17.159  -0.782  0.00  0.00    -0.020 C 
ATOM     19  C   UNL d   1      24.539 -18.536  -0.512  0.00  0.00     0.013 C 
ATOM     20  C   UNL d   1      23.344 -19.233  -0.557  0.00  0.00     0.043 C 
ATOM     21  C   UNL d   1      22.163 -18.535  -0.751  0.00  0.00     0.116 C 
ATOM     22  F   UNL d   1      21.005 -19.198  -0.804  0.00  0.00    -0.206 F 
ATOM     23  C   UNL d   1      22.154 -17.155  -0.850  0.00  0.00     0.043 C 
ATOM     24  C   UNL d   1      23.353 -16.469  -0.823  0.00  0.00     0.013 C 
ENDBRANCH  15  18
ENDBRANCH  12  15
ENDBRANCH   7  11
BRANCH   1  25
ATOM     25  C   UNL d   1      29.240 -12.379   7.348  0.00  0.00     0.085 A 
ATOM     26  C   UNL d   1      28.539 -12.486   8.558  0.00  0.00     0.036 A 
ATOM     27  C   UNL d   1      29.010 -11.838   9.765  0.00  0.00     0.039 A 
ATOM     28  C   UNL d   1      30.187 -11.069   9.833  0.00  0.00     0.135 A 
ATOM     29  C   UNL d   1      30.915 -10.970   8.651  0.00  0.00     0.046 A 
ATOM     30  C   UNL d   1      30.474 -11.586   7.416  0.00  0.00    -0.029 A 
ATOM     31  C   UNL d   1      31.461 -11.279   6.276  0.00  0.00     0.050 C 
BRANCH  28  32
ATOM     32  N   UNL d   1      30.538 -10.311  11.138  0.00  0.00    -0.042 N 
ATOM     33  H   UNL d   1      29.605 -10.097  11.503  0.00  0.00     0.286 HD
BRANCH  32  34
ATOM     34  C   UNL d   1      31.052 -11.265  12.227  0.00  0.00     0.237 C 
ATOM     35  C   UNL d   1      31.914 -12.416  11.730  0.00  0.00     0.035 C 
ENDBRANCH  32  34
BRANCH  32  36
ATOM     36  C   UNL d   1      31.042  -8.879  10.894  0.00  0.00     0.237 C 
ATOM     37  C   UNL d   1      30.040  -7.761  11.143  0.00  0.00     0.035 C 
ENDBRANCH  32  36
ENDBRANCH  28  32
ENDBRANCH   1  25
TORSDOF 8
ENDMDL
MODEL 2
REMARK VINA RESULT:    -7.969      3.618      5.516
REMARK INTER + INTRA:         -11.848
REMARK INTER:                 -10.355
REMARK INTRA:                  -1.494
REMARK CONF_INDEPENDENT:        2.386
REMARK UNBOUND:                -1.494
REMARK  8 active torsions:
REMARK  status: ('A' for Active; 'I' for Inactive)
REMARK    1  A    between atoms: C_2  and  N_3 
REMARK    2  A    between atoms: N_3  and  C_4 
REMARK    3  A    between atoms: N_3  and  C_6 
REMARK    4  A    between atoms: C_9  and  N_10 
REMARK    5  A    between atoms: C_16  and  N_17 
REMARK       I    between atoms: N_17  and  C_18 
REMARK    6  A    between atoms: C_18  and  C_20 
REMARK    7  A    between atoms: C_20  and  O_21 
REMARK    8  A    between atoms: C_20  and  C_23 
ROOT
ATOM      1  N   UNL d   1      28.190 -13.307   3.484  0.00  0.00    -0.149 N 
ATOM      2  N   UNL d   1      28.090 -14.521   3.026  0.00  0.00    -0.147 NA
ATOM      3  C   UNL d   1      27.810 -14.452   1.771  0.00  0.00     0.110 A 
ATOM      4  C   UNL d   1      27.608 -15.594   1.034  0.00  0.00     0.045 A 
ATOM      5  C   UNL d   1      27.365 -15.457  -0.318  0.00  0.00    -0.033 A 
ATOM      6  C   UNL d   1      27.192 -16.809  -0.924  0.00  0.00     0.050 C 
ATOM      7  C   UNL d   1      27.326 -14.192  -0.971  0.00  0.00     0.043 A 
ATOM      8  C   UNL d   1      27.503 -12.945  -0.143  0.00  0.00     0.066 A 
ATOM      9  C   UNL d   1      27.769 -13.102   1.314  0.00  0.00     0.111 A 
ATOM     10  N   UNL d   1      28.015 -12.329   2.468  0.00  0.00    -0.147 NA
ENDROOT
BRANCH   7  11
ATOM     11  N   UNL d   1      27.124 -14.139  -2.431  0.00  0.00    -0.324 N 
ATOM     12  C   UNL d   1      26.006 -14.546  -3.223  0.00  0.00     0.255 C 
ATOM     13  O   UNL d   1      24.995 -15.184  -2.884  0.00  0.00    -0.270 OA
ATOM     14  H   UNL d   1      27.870 -13.691  -2.959  0.00  0.00     0.169 HD
BRANCH  12  15
ATOM     15  C   UNL d   1      25.910 -14.193  -4.704  0.00  0.00     0.246 C 
BRANCH  15  16
ATOM     16  O   UNL d   1      26.649 -15.201  -5.405  0.00  0.00    -0.377 OA
ATOM     17  C   UNL d   1      28.036 -15.202  -5.093  0.00  0.00     0.203 C 
ENDBRANCH  15  16
BRANCH  15  18
ATOM     18  C   UNL d   1      26.249 -12.766  -5.050  0.00  0.00    -0.020 C 
ATOM     19  C   UNL d   1      25.783 -11.727  -4.229  0.00  0.00     0.013 C 
ATOM     20  C   UNL d   1      25.862 -10.411  -4.651  0.00  0.00     0.043 C 
ATOM     21  C   UNL d   1      26.517 -10.122  -5.837  0.00  0.00     0.116 C 
ATOM     22  F   UNL d   1      26.594  -8.856  -6.257  0.00  0.00    -0.206 F 
ATOM     23  C   UNL d   1      27.132 -11.116  -6.577  0.00  0.00     0.043 C 
ATOM     24  C   UNL d   1      27.032 -12.429  -6.158  0.00  0.00     0.013 C 
ENDBRANCH  15  18
ENDBRANCH  12  15
ENDBRANCH   7  11
BRANCH   1  25
ATOM     25  C   UNL d   1      28.471 -13.329   4.951  0.00  0.00     0.085 A 
ATOM     26  C   UNL d   1      27.807 -12.538   5.899  0.00  0.00     0.036 A 
ATOM     27  C   UNL d   1      28.146 -12.598   7.306  0.00  0.00     0.039 A 
ATOM     28  C   UNL d   1      29.142 -13.439   7.837  0.00  0.00     0.135 A 
ATOM     29  C   UNL d   1      29.798 -14.255   6.919  0.00  0.00     0.046 A 
ATOM     30  C   UNL d   1      29.504 -14.216   5.500  0.00  0.00    -0.029 A 
ATOM     31  C   UNL d   1      30.405 -15.200   4.735  0.00  0.00     0.050 C 
BRANCH  28  32
ATOM     32  N   UNL d   1      29.519 -13.338   9.336  0.00  0.00    -0.042 N 
ATOM     33  H   UNL d   1      30.292 -12.666   9.303  0.00  0.00     0.286 HD
BRANCH  32  34
ATOM     34  C   UNL d   1      28.481 -12.529  10.128  0.00  0.00     0.237 C 
ATOM     35  C   UNL d   1      27.664 -13.327  11.134  0.00  0.00     0.035 C 
ENDBRANCH  32  34
BRANCH  32  36
ATOM     36  C   UNL d   1      30.281 -14.567   9.857  0.00  0.00     0.237 C 
ATOM     37  C   UNL d   1      31.763 -14.633   9.519  0.00  0.00     0.035 C 
ENDBRANCH  32  36
ENDBRANCH  28  32
ENDBRANCH   1  25
TORSDOF 8
ENDMDL
MODEL 3
REMARK VINA RESULT:    -7.963      3.567      5.293
REMARK INTER + INTRA:         -12.354
REMARK INTER:                 -10.349
REMARK INTRA:                  -2.005
REMARK CONF_INDEPENDENT:        2.386
REMARK UNBOUND:                -2.005
REMARK  8 active torsions:
REMARK  status: ('A' for Active; 'I' for Inactive)
REMARK    1  A    between atoms: C_2  and  N_3 
REMARK    2  A    between atoms: N_3  and  C_4 
REMARK    3  A    between atoms: N_3  and  C_6 
REMARK    4  A    between atoms: C_9  and  N_10 
REMARK    5  A    between atoms: C_16  and  N_17 
REMARK       I    between atoms: N_17  and  C_18 
REMARK    6  A    between atoms: C_18  and  C_20 
REMARK    7  A    between atoms: C_20  and  O_21 
REMARK    8  A    between atoms: C_20  and  C_23 
ROOT
ATOM      1  N   UNL d   1      27.894 -13.287   3.844  0.00  0.00    -0.149 N 
ATOM      2  N   UNL d   1      28.018 -14.476   3.331  0.00  0.00    -0.147 NA
ATOM      3  C   UNL d   1      27.562 -14.440   2.127  0.00  0.00     0.110 A 
ATOM      4  C   UNL d   1      27.535 -15.576   1.354  0.00  0.00     0.045 A 
ATOM      5  C   UNL d   1      27.085 -15.463   0.054  0.00  0.00    -0.033 A 
ATOM      6  C   UNL d   1      27.152 -16.799  -0.605  0.00  0.00     0.050 C 
ATOM      7  C   UNL d   1      26.663 -14.226  -0.512  0.00  0.00     0.043 A 
ATOM      8  C   UNL d   1      26.655 -12.997   0.361  0.00  0.00     0.066 A 
ATOM      9  C   UNL d   1      27.145 -13.127   1.761  0.00  0.00     0.111 A 
ATOM     10  N   UNL d   1      27.358 -12.350   2.919  0.00  0.00    -0.147 NA
ENDROOT
BRANCH   7  11
ATOM     11  N   UNL d   1      26.258 -14.181  -1.930  0.00  0.00    -0.324 N 
ATOM     12  C   UNL d   1      26.773 -13.402  -3.012  0.00  0.00     0.255 C 
ATOM     13  O   UNL d   1      27.585 -12.462  -2.985  0.00  0.00    -0.270 OA
ATOM     14  H   UNL d   1      25.538 -14.848  -2.199  0.00  0.00     0.169 HD
BRANCH  12  15
ATOM     15  C   UNL d   1      26.360 -13.675  -4.455  0.00  0.00     0.246 C 
BRANCH  15  16
ATOM     16  O   UNL d   1      25.155 -14.446  -4.388  0.00  0.00    -0.377 OA
ATOM     17  C   UNL d   1      24.032 -13.700  -3.936  0.00  0.00     0.203 C 
ENDBRANCH  15  16
BRANCH  15  18
ATOM     18  C   UNL d   1      27.447 -14.222  -5.344  0.00  0.00    -0.020 C 
ATOM     19  C   UNL d   1      28.075 -15.429  -5.003  0.00  0.00     0.013 C 
ATOM     20  C   UNL d   1      29.232 -15.826  -5.652  0.00  0.00     0.043 C 
ATOM     21  C   UNL d   1      29.692 -15.079  -6.724  0.00  0.00     0.116 C 
ATOM     22  F   UNL d   1      30.810 -15.448  -7.354  0.00  0.00    -0.206 F 
ATOM     23  C   UNL d   1      28.991 -13.979  -7.185  0.00  0.00     0.043 C 
ATOM     24  C   UNL d   1      27.848 -13.580  -6.519  0.00  0.00     0.013 C 
ENDBRANCH  15  18
ENDBRANCH  12  15
ENDBRANCH   7  11
BRANCH   1  25
ATOM     25  C   UNL d   1      28.368 -13.282   5.261  0.00  0.00     0.085 A 
ATOM     26  C   UNL d   1      27.773 -12.547   6.297  0.00  0.00     0.036 A 
ATOM     27  C   UNL d   1      28.300 -12.576   7.645  0.00  0.00     0.039 A 
ATOM     28  C   UNL d   1      29.424 -13.331   8.031  0.00  0.00     0.135 A 
ATOM     29  C   UNL d   1      30.017 -14.091   7.026  0.00  0.00     0.046 A 
ATOM     30  C   UNL d   1      29.534 -14.080   5.660  0.00  0.00    -0.029 A 
ATOM     31  C   UNL d   1      30.404 -14.986   4.772  0.00  0.00     0.050 C 
BRANCH  28  32
ATOM     32  N   UNL d   1      29.988 -13.196   9.467  0.00  0.00    -0.042 N 
ATOM     33  H   UNL d   1      30.596 -12.378   9.368  0.00  0.00     0.286 HD
BRANCH  32  34
ATOM     34  C   UNL d   1      28.935 -12.643  10.440  0.00  0.00     0.237 C 
ATOM     35  C   UNL d   1      27.856 -13.630  10.861  0.00  0.00     0.035 C 
ENDBRANCH  32  34
BRANCH  32  36
ATOM     36  C   UNL d   1      31.050 -14.254   9.807  0.00  0.00     0.237 C 
ATOM     37  C   UNL d   1      30.552 -15.499  10.528  0.00  0.00     0.035 C 
ENDBRANCH  32  36
ENDBRANCH  28  32
ENDBRANCH   1  25
TORSDOF 8
ENDMDL
MODEL 4
REMARK VINA RESULT:    -7.818      3.456      5.009
REMARK INTER + INTRA:         -12.300
REMARK INTER:                 -10.205
REMARK INTRA:                  -2.096
REMARK CONF_INDEPENDENT:        2.386
REMARK UNBOUND:                -2.096
REMARK  8 active torsions:
REMARK  status: ('A' for Active; 'I' for Inactive)
REMARK    1  A    between atoms: C_2  and  N_3 
REMARK    2  A    between atoms: N_3  and  C_4 
REMARK    3  A    between atoms: N_3  and  C_6 
REMARK    4  A    between atoms: C_9  and  N_10 
REMARK    5  A    between atoms: C_16  and  N_17 
REMARK       I    between atoms: N_17  and  C_18 
REMARK    6  A    between atoms: C_18  and  C_20 
REMARK    7  A    between atoms: C_20  and  O_21 
REMARK    8  A    between atoms: C_20  and  C_23 
ROOT
ATOM      1  N   UNL d   1      27.721 -12.754   3.914  0.00  0.00    -0.149 N 
ATOM      2  N   UNL d   1      28.018 -13.956   3.512  0.00  0.00    -0.147 NA
ATOM      3  C   UNL d   1      27.626 -14.077   2.291  0.00  0.00     0.110 A 
ATOM      4  C   UNL d   1      27.779 -15.266   1.621  0.00  0.00     0.045 A 
ATOM      5  C   UNL d   1      27.389 -15.317   0.297  0.00  0.00    -0.033 A 
ATOM      6  C   UNL d   1      27.655 -16.683  -0.239  0.00  0.00     0.050 C 
ATOM      7  C   UNL d   1      26.849 -14.194  -0.392  0.00  0.00     0.043 A 
ATOM      8  C   UNL d   1      26.643 -12.909   0.369  0.00  0.00     0.066 A 
ATOM      9  C   UNL d   1      27.071 -12.861   1.794  0.00  0.00     0.111 A 
ATOM     10  N   UNL d   1      27.125 -11.972   2.888  0.00  0.00    -0.147 NA
ENDROOT
BRANCH   7  11
ATOM     11  N   UNL d   1      26.518 -14.317  -1.825  0.00  0.00    -0.324 N 
ATOM     12  C   UNL d   1      27.083 -13.660  -2.961  0.00  0.00     0.255 C 
ATOM     13  O   UNL d   1      27.885 -12.712  -3.001  0.00  0.00    -0.270 OA
ATOM     14  H   UNL d   1      25.818 -15.020  -2.052  0.00  0.00     0.169 HD
BRANCH  12  15
ATOM     15  C   UNL d   1      26.747 -14.101  -4.383  0.00  0.00     0.246 C 
BRANCH  15  16
ATOM     16  O   UNL d   1      25.508 -14.814  -4.299  0.00  0.00    -0.377 OA
ATOM     17  C   UNL d   1      24.409 -13.995  -3.919  0.00  0.00     0.203 C 
ENDBRANCH  15  16
BRANCH  15  18
ATOM     18  C   UNL d   1      27.861 -14.796  -5.122  0.00  0.00    -0.020 C 
ATOM     19  C   UNL d   1      28.531 -15.867  -4.512  0.00  0.00     0.013 C 
ATOM     20  C   UNL d   1      29.707 -16.358  -5.053  0.00  0.00     0.043 C 
ATOM     21  C   UNL d   1      30.148 -15.860  -6.268  0.00  0.00     0.116 C 
ATOM     22  F   UNL d   1      31.286 -16.321  -6.796  0.00  0.00    -0.206 F 
ATOM     23  C   UNL d   1      29.411 -14.922  -6.970  0.00  0.00     0.043 C 
ATOM     24  C   UNL d   1      28.248 -14.425  -6.413  0.00  0.00     0.013 C 
ENDBRANCH  15  18
ENDBRANCH  12  15
ENDBRANCH   7  11
BRANCH   1  25
ATOM     25  C   UNL d   1      28.115 -12.574   5.343  0.00  0.00     0.085 A 
ATOM     26  C   UNL d   1      28.319 -13.623   6.251  0.00  0.00     0.036 A 
ATOM     27  C   UNL d   1      28.681 -13.371   7.631  0.00  0.00     0.039 A 
ATOM     28  C   UNL d   1      28.864 -12.084   8.170  0.00  0.00     0.135 A 
ATOM     29  C   UNL d   1      28.693 -11.025   7.282  0.00  0.00     0.046 A 
ATOM     30  C   UNL d   1      28.314 -11.229   5.898  0.00  0.00    -0.029 A 
ATOM     31  C   UNL d   1      28.169  -9.880   5.174  0.00  0.00     0.050 C 
BRANCH  28  32
ATOM     32  N   UNL d   1      29.124 -11.913   9.687  0.00  0.00    -0.042 N 
ATOM     33  H   UNL d   1      28.896 -10.924   9.820  0.00  0.00     0.286 HD
BRANCH  32  34
ATOM     34  C   UNL d   1      28.020 -12.569  10.530  0.00  0.00     0.237 C 
ATOM     35  C   UNL d   1      28.247 -14.034  10.875  0.00  0.00     0.035 C 
ENDBRANCH  32  34
BRANCH  32  36
ATOM     36  C   UNL d   1      30.619 -11.874  10.049  0.00  0.00     0.237 C 
ATOM     37  C   UNL d   1      31.470 -13.018   9.518  0.00  0.00     0.035 C 
ENDBRANCH  32  36
ENDBRANCH  28  32
ENDBRANCH   1  25
TORSDOF 8
ENDMDL
MODEL 5
REMARK VINA RESULT:    -7.668      3.570      5.274
REMARK INTER + INTRA:         -11.639
REMARK INTER:                 -10.054
REMARK INTRA:                  -1.585
REMARK CONF_INDEPENDENT:        2.386
REMARK UNBOUND:                -1.585
REMARK  8 active torsions:
REMARK  status: ('A' for Active; 'I' for Inactive)
REMARK    1  A    between atoms: C_2  and  N_3 
REMARK    2  A    between atoms: N_3  and  C_4 
REMARK    3  A    between atoms: N_3  and  C_6 
REMARK    4  A    between atoms: C_9  and  N_10 
REMARK    5  A    between atoms: C_16  and  N_17 
REMARK       I    between atoms: N_17  and  C_18 
REMARK    6  A    between atoms: C_18  and  C_20 
REMARK    7  A    between atoms: C_20  and  O_21 
REMARK    8  A    between atoms: C_20  and  C_23 
ROOT
ATOM      1  N   UNL d   1      27.998 -13.167   3.997  0.00  0.00    -0.149 N 
ATOM      2  N   UNL d   1      28.142 -14.321   3.413  0.00  0.00    -0.147 NA
ATOM      3  C   UNL d   1      27.719 -14.210   2.202  0.00  0.00     0.110 A 
ATOM      4  C   UNL d   1      27.718 -15.294   1.358  0.00  0.00     0.045 A 
ATOM      5  C   UNL d   1      27.304 -15.100   0.055  0.00  0.00    -0.033 A 
ATOM      6  C   UNL d   1      27.396 -16.391  -0.685  0.00  0.00     0.050 C 
ATOM      7  C   UNL d   1      26.894 -13.830  -0.442  0.00  0.00     0.043 A 
ATOM      8  C   UNL d   1      26.856 -12.659   0.506  0.00  0.00     0.066 A 
ATOM      9  C   UNL d   1      27.307 -12.877   1.908  0.00  0.00     0.111 A 
ATOM     10  N   UNL d   1      27.485 -12.175   3.119  0.00  0.00    -0.147 NA
ENDROOT
BRANCH   7  11
ATOM     11  N   UNL d   1      26.528 -13.696  -1.866  0.00  0.00    -0.324 N 
ATOM     12  C   UNL d   1      25.408 -14.219  -2.583  0.00  0.00     0.255 C 
ATOM     13  O   UNL d   1      24.553 -15.041  -2.213  0.00  0.00    -0.270 OA
ATOM     14  H   UNL d   1      27.133 -13.091  -2.416  0.00  0.00     0.169 HD
BRANCH  12  15
ATOM     15  C   UNL d   1      25.098 -13.771  -4.008  0.00  0.00     0.246 C 
BRANCH  15  16
ATOM     16  O   UNL d   1      25.504 -14.846  -4.864  0.00  0.00    -0.377 OA
ATOM     17  C   UNL d   1      26.873 -15.201  -4.712  0.00  0.00     0.203 C 
ENDBRANCH  15  16
BRANCH  15  18
ATOM     18  C   UNL d   1      25.608 -12.402  -4.379  0.00  0.00    -0.020 C 
ATOM     19  C   UNL d   1      26.164 -12.194  -5.651  0.00  0.00     0.013 C 
ATOM     20  C   UNL d   1      26.860 -11.031  -5.929  0.00  0.00     0.043 C 
ATOM     21  C   UNL d   1      26.896 -10.023  -4.979  0.00  0.00     0.116 C 
ATOM     22  F   UNL d   1      27.571  -8.899  -5.234  0.00  0.00    -0.206 F 
ATOM     23  C   UNL d   1      26.210 -10.141  -3.783  0.00  0.00     0.043 C 
ATOM     24  C   UNL d   1      25.534 -11.314  -3.506  0.00  0.00     0.013 C 
ENDBRANCH  15  18
ENDBRANCH  12  15
ENDBRANCH   7  11
BRANCH   1  25
ATOM     25  C   UNL d   1      28.432 -13.252   5.424  0.00  0.00     0.085 A 
ATOM     26  C   UNL d   1      28.764 -14.442   6.086  0.00  0.00     0.036 A 
ATOM     27  C   UNL d   1      29.159 -14.449   7.479  0.00  0.00     0.039 A 
ATOM     28  C   UNL d   1      29.250 -13.291   8.274  0.00  0.00     0.135 A 
ATOM     29  C   UNL d   1      28.951 -12.092   7.633  0.00  0.00     0.046 A 
ATOM     30  C   UNL d   1      28.535 -12.039   6.246  0.00  0.00    -0.029 A 
ATOM     31  C   UNL d   1      28.243 -10.588   5.825  0.00  0.00     0.050 C 
BRANCH  28  32
ATOM     32  N   UNL d   1      29.556 -13.416   9.787  0.00  0.00    -0.042 N 
ATOM     33  H   UNL d   1      29.937 -12.487   9.992  0.00  0.00     0.286 HD
BRANCH  32  34
ATOM     34  C   UNL d   1      28.272 -13.382  10.631  0.00  0.00     0.237 C 
ATOM     35  C   UNL d   1      28.382 -12.636  11.953  0.00  0.00     0.035 C 
ENDBRANCH  32  34
BRANCH  32  36
ATOM     36  C   UNL d   1      30.801 -14.267  10.089  0.00  0.00     0.237 C 
ATOM     37  C   UNL d   1      30.558 -15.747  10.344  0.00  0.00     0.035 C 
ENDBRANCH  32  36
ENDBRANCH  28  32
ENDBRANCH   1  25
TORSDOF 8
ENDMDL
MODEL 6
REMARK VINA RESULT:    -7.375      3.518      5.440
REMARK INTER + INTRA:         -11.632
REMARK INTER:                  -9.761
REMARK INTRA:                  -1.870
REMARK CONF_INDEPENDENT:        2.386
REMARK UNBOUND:                -1.870
REMARK  8 active torsions:
REMARK  status: ('A' for Active; 'I' for Inactive)
REMARK    1  A    between atoms: C_2  and  N_3 
REMARK    2  A    between atoms: N_3  and  C_4 
REMARK    3  A    between atoms: N_3  and  C_6 
REMARK    4  A    between atoms: C_9  and  N_10 
REMARK    5  A    between atoms: C_16  and  N_17 
REMARK       I    between atoms: N_17  and  C_18 
REMARK    6  A    between atoms: C_18  and  C_20 
REMARK    7  A    between atoms: C_20  and  O_21 
REMARK    8  A    between atoms: C_20  and  C_23 
ROOT
ATOM      1  N   UNL d   1      28.115 -12.965   3.302  0.00  0.00    -0.149 N 
ATOM      2  N   UNL d   1      27.927 -14.233   3.084  0.00  0.00    -0.147 NA
ATOM      3  C   UNL d   1      27.765 -14.401   1.817  0.00  0.00     0.110 A 
ATOM      4  C   UNL d   1      27.508 -15.648   1.302  0.00  0.00     0.045 A 
ATOM      5  C   UNL d   1      27.399 -15.772  -0.069  0.00  0.00    -0.033 A 
ATOM      6  C   UNL d   1      27.138 -17.200  -0.412  0.00  0.00     0.050 C 
ATOM      7  C   UNL d   1      27.551 -14.670  -0.957  0.00  0.00     0.043 A 
ATOM      8  C   UNL d   1      27.786 -13.299  -0.377  0.00  0.00     0.066 A 
ATOM      9  C   UNL d   1      27.907 -13.175   1.102  0.00  0.00     0.111 A 
ATOM     10  N   UNL d   1      28.133 -12.205   2.101  0.00  0.00    -0.147 NA
ENDROOT
BRANCH   7  11
ATOM     11  N   UNL d   1      27.483 -14.902  -2.413  0.00  0.00    -0.324 N 
ATOM     12  C   UNL d   1      28.397 -14.535  -3.449  0.00  0.00     0.255 C 
ATOM     13  O   UNL d   1      29.395 -13.798  -3.390  0.00  0.00    -0.270 OA
ATOM     14  H   UNL d   1      26.693 -15.459  -2.730  0.00  0.00     0.169 HD
BRANCH  12  15
ATOM     15  C   UNL d   1      28.247 -15.072  -4.869  0.00  0.00     0.246 C 
BRANCH  15  16
ATOM     16  O   UNL d   1      26.909 -15.575  -4.968  0.00  0.00    -0.377 OA
ATOM     17  C   UNL d   1      25.921 -14.553  -4.966  0.00  0.00     0.203 C 
ENDBRANCH  15  16
BRANCH  15  18
ATOM     18  C   UNL d   1      29.339 -16.006  -5.324  0.00  0.00    -0.020 C 
ATOM     19  C   UNL d   1      29.923 -15.822  -6.587  0.00  0.00     0.013 C 
ATOM     20  C   UNL d   1      30.740 -16.798  -7.130  0.00  0.00     0.043 C 
ATOM     21  C   UNL d   1      31.072 -17.903  -6.362  0.00  0.00     0.116 C 
ATOM     22  F   UNL d   1      31.854 -18.854  -6.879  0.00  0.00    -0.206 F 
ATOM     23  C   UNL d   1      30.643 -18.020  -5.052  0.00  0.00     0.043 C 
ATOM     24  C   UNL d   1      29.813 -17.050  -4.525  0.00  0.00     0.013 C 
ENDBRANCH  15  18
ENDBRANCH  12  15
ENDBRANCH   7  11
BRANCH   1  25
ATOM     25  C   UNL d   1      28.263 -12.707   4.766  0.00  0.00     0.085 A 
ATOM     26  C   UNL d   1      27.969 -11.489   5.394  0.00  0.00     0.036 A 
ATOM     27  C   UNL d   1      28.156 -11.306   6.818  0.00  0.00     0.039 A 
ATOM     28  C   UNL d   1      28.631 -12.311   7.681  0.00  0.00     0.135 A 
ATOM     29  C   UNL d   1      28.905 -13.540   7.087  0.00  0.00     0.046 A 
ATOM     30  C   UNL d   1      28.749 -13.764   5.664  0.00  0.00    -0.029 A 
ATOM     31  C   UNL d   1      29.156 -15.200   5.295  0.00  0.00     0.050 C 
BRANCH  28  32
ATOM     32  N   UNL d   1      28.919 -11.980   9.167  0.00  0.00    -0.042 N 
ATOM     33  H   UNL d   1      28.437 -11.081   9.269  0.00  0.00     0.286 HD
BRANCH  32  34
ATOM     34  C   UNL d   1      28.083 -12.852  10.115  0.00  0.00     0.237 C 
ATOM     35  C   UNL d   1      28.598 -14.270  10.318  0.00  0.00     0.035 C 
ENDBRANCH  32  34
BRANCH  32  36
ATOM     36  C   UNL d   1      30.363 -11.517   9.419  0.00  0.00     0.237 C 
ATOM     37  C   UNL d   1      31.398 -12.616   9.611  0.00  0.00     0.035 C 
ENDBRANCH  32  36
ENDBRANCH  28  32
ENDBRANCH   1  25
TORSDOF 8
ENDMDL
MODEL 7
REMARK VINA RESULT:    -7.323      1.103      1.372
REMARK INTER + INTRA:         -11.841
REMARK INTER:                  -9.710
REMARK INTRA:                  -2.132
REMARK CONF_INDEPENDENT:        2.386
REMARK UNBOUND:                -2.132
REMARK  8 active torsions:
REMARK  status: ('A' for Active; 'I' for Inactive)
REMARK    1  A    between atoms: C_2  and  N_3 
REMARK    2  A    between atoms: N_3  and  C_4 
REMARK    3  A    between atoms: N_3  and  C_6 
REMARK    4  A    between atoms: C_9  and  N_10 
REMARK    5  A    between atoms: C_16  and  N_17 
REMARK       I    between atoms: N_17  and  C_18 
REMARK    6  A    between atoms: C_18  and  C_20 
REMARK    7  A    between atoms: C_20  and  O_21 
REMARK    8  A    between atoms: C_20  and  C_23 
ROOT
ATOM      1  N   UNL d   1      28.673 -12.457   6.138  0.00  0.00    -0.149 N 
ATOM      2  N   UNL d   1      29.657 -12.782   5.352  0.00  0.00    -0.147 NA
ATOM      3  C   UNL d   1      29.162 -13.351   4.307  0.00  0.00     0.110 A 
ATOM      4  C   UNL d   1      29.982 -13.835   3.317  0.00  0.00     0.045 A 
ATOM      5  C   UNL d   1      29.390 -14.385   2.198  0.00  0.00    -0.033 A 
ATOM      6  C   UNL d   1      30.453 -14.829   1.251  0.00  0.00     0.050 C 
ATOM      7  C   UNL d   1      27.979 -14.460   2.030  0.00  0.00     0.043 A 
ATOM      8  C   UNL d   1      27.090 -13.968   3.144  0.00  0.00     0.066 A 
ATOM      9  C   UNL d   1      27.737 -13.372   4.345  0.00  0.00     0.111 A 
ATOM     10  N   UNL d   1      27.405 -12.780   5.582  0.00  0.00    -0.147 NA
ENDROOT
BRANCH   7  11
ATOM     11  N   UNL d   1      27.429 -15.005   0.774  0.00  0.00    -0.324 N 
ATOM     12  C   UNL d   1      26.952 -16.318   0.469  0.00  0.00     0.255 C 
ATOM     13  O   UNL d   1      27.030 -17.357   1.144  0.00  0.00    -0.270 OA
ATOM     14  H   UNL d   1      27.315 -14.332   0.019  0.00  0.00     0.169 HD
BRANCH  12  15
ATOM     15  C   UNL d   1      26.212 -16.612  -0.832  0.00  0.00     0.246 C 
BRANCH  15  16
ATOM     16  O   UNL d   1      26.344 -15.440  -1.644  0.00  0.00    -0.377 OA
ATOM     17  C   UNL d   1      27.236 -15.609  -2.738  0.00  0.00     0.203 C 
ENDBRANCH  15  16
BRANCH  15  18
ATOM     18  C   UNL d   1      24.812 -17.148  -0.670  0.00  0.00    -0.020 C 
ATOM     19  C   UNL d   1      24.620 -18.519  -0.438  0.00  0.00     0.013 C 
ATOM     20  C   UNL d   1      23.357 -19.076  -0.533  0.00  0.00     0.043 C 
ATOM     21  C   UNL d   1      22.268 -18.244  -0.740  0.00  0.00     0.116 C 
ATOM     22  F   UNL d   1      21.045 -18.771  -0.840  0.00  0.00    -0.206 F 
ATOM     23  C   UNL d   1      22.417 -16.870  -0.801  0.00  0.00     0.043 C 
ATOM     24  C   UNL d   1      23.684 -16.325  -0.724  0.00  0.00     0.013 C 
ENDBRANCH  15  18
ENDBRANCH  12  15
ENDBRANCH   7  11
BRANCH   1  25
ATOM     25  C   UNL d   1      29.195 -11.832   7.390  0.00  0.00     0.085 A 
ATOM     26  C   UNL d   1      29.116 -12.414   8.663  0.00  0.00     0.036 A 
ATOM     27  C   UNL d   1      29.629 -11.739   9.837  0.00  0.00     0.039 A 
ATOM     28  C   UNL d   1      30.243 -10.473   9.808  0.00  0.00     0.135 A 
ATOM     29  C   UNL d   1      30.358  -9.885   8.551  0.00  0.00     0.046 A 
ATOM     30  C   UNL d   1      29.845 -10.516   7.351  0.00  0.00    -0.029 A 
ATOM     31  C   UNL d   1      30.087  -9.620   6.125  0.00  0.00     0.050 C 
BRANCH  28  32
ATOM     32  N   UNL d   1      30.642  -9.778  11.133  0.00  0.00    -0.042 N 
ATOM     33  H   UNL d   1      29.742  -9.741  11.620  0.00  0.00     0.286 HD
BRANCH  32  34
ATOM     34  C   UNL d   1      31.420 -10.726  12.059  0.00  0.00     0.237 C 
ATOM     35  C   UNL d   1      32.897 -10.402  12.230  0.00  0.00     0.035 C 
ENDBRANCH  32  34
BRANCH  32  36
ATOM     36  C   UNL d   1      30.902  -8.270  10.977  0.00  0.00     0.237 C 
ATOM     37  C   UNL d   1      29.678  -7.368  11.037  0.00  0.00     0.035 C 
ENDBRANCH  32  36
ENDBRANCH  28  32
ENDBRANCH   1  25
TORSDOF 8
ENDMDL
MODEL 8
REMARK VINA RESULT:    -6.993      8.825     11.816
REMARK INTER + INTRA:         -11.291
REMARK INTER:                  -9.379
REMARK INTRA:                  -1.912
REMARK CONF_INDEPENDENT:        2.386
REMARK UNBOUND:                -1.912
REMARK  8 active torsions:
REMARK  status: ('A' for Active; 'I' for Inactive)
REMARK    1  A    between atoms: C_2  and  N_3 
REMARK    2  A    between atoms: N_3  and  C_4 
REMARK    3  A    between atoms: N_3  and  C_6 
REMARK    4  A    between atoms: C_9  and  N_10 
REMARK    5  A    between atoms: C_16  and  N_17 
REMARK       I    between atoms: N_17  and  C_18 
REMARK    6  A    between atoms: C_18  and  C_20 
REMARK    7  A    between atoms: C_20  and  O_21 
REMARK    8  A    between atoms: C_20  and  C_23 
ROOT
ATOM      1  N   UNL d   1      25.200 -15.837  -1.613  0.00  0.00    -0.149 N 
ATOM      2  N   UNL d   1      24.782 -15.168  -2.647  0.00  0.00    -0.147 NA
ATOM      3  C   UNL d   1      25.716 -14.355  -3.001  0.00  0.00     0.110 A 
ATOM      4  C   UNL d   1      25.531 -13.491  -4.053  0.00  0.00     0.045 A 
ATOM      5  C   UNL d   1      26.589 -12.682  -4.419  0.00  0.00    -0.033 A 
ATOM      6  C   UNL d   1      26.183 -11.841  -5.581  0.00  0.00     0.050 C 
ATOM      7  C   UNL d   1      27.852 -12.719  -3.761  0.00  0.00     0.043 A 
ATOM      8  C   UNL d   1      28.026 -13.639  -2.580  0.00  0.00     0.066 A 
ATOM      9  C   UNL d   1      26.881 -14.510  -2.195  0.00  0.00     0.111 A 
ATOM     10  N   UNL d   1      26.533 -15.501  -1.253  0.00  0.00    -0.147 NA
ENDROOT
BRANCH   7  11
ATOM     11  N   UNL d   1      28.950 -11.867  -4.258  0.00  0.00    -0.324 N 
ATOM     12  C   UNL d   1      30.318 -12.187  -4.521  0.00  0.00     0.255 C 
ATOM     13  O   UNL d   1      30.948 -13.222  -4.248  0.00  0.00    -0.270 OA
ATOM     14  H   UNL d   1      28.685 -10.918  -4.510  0.00  0.00     0.169 HD
BRANCH  12  15
ATOM     15  C   UNL d   1      31.236 -11.210  -5.249  0.00  0.00     0.246 C 
BRANCH  15  16
ATOM     16  O   UNL d   1      30.552  -9.952  -5.266  0.00  0.00    -0.377 OA
ATOM     17  C   UNL d   1      29.639  -9.821  -6.349  0.00  0.00     0.203 C 
ENDBRANCH  15  16
BRANCH  15  18
ATOM     18  C   UNL d   1      31.767 -11.691  -6.576  0.00  0.00    -0.020 C 
ATOM     19  C   UNL d   1      30.925 -12.415  -7.434  0.00  0.00     0.013 C 
ATOM     20  C   UNL d   1      31.446 -13.078  -8.532  0.00  0.00     0.043 C 
ATOM     21  C   UNL d   1      32.787 -12.917  -8.842  0.00  0.00     0.116 C 
ATOM     22  F   UNL d   1      33.303 -13.557  -9.895  0.00  0.00    -0.206 F 
ATOM     23  C   UNL d   1      33.597 -12.071  -8.105  0.00  0.00     0.043 C 
ATOM     24  C   UNL d   1      33.072 -11.429  -7.000  0.00  0.00     0.013 C 
ENDBRANCH  15  18
ENDBRANCH  12  15
ENDBRANCH   7  11
BRANCH   1  25
ATOM     25  C   UNL d   1      24.134 -16.766  -1.131  0.00  0.00     0.085 A 
ATOM     26  C   UNL d   1      22.758 -16.538  -1.270  0.00  0.00     0.036 A 
ATOM     27  C   UNL d   1      21.780 -17.477  -0.759  0.00  0.00     0.039 A 
ATOM     28  C   UNL d   1      22.113 -18.675  -0.101  0.00  0.00     0.135 A 
ATOM     29  C   UNL d   1      23.474 -18.938   0.027  0.00  0.00     0.046 A 
ATOM     30  C   UNL d   1      24.488 -18.021  -0.454  0.00  0.00    -0.029 A 
ATOM     31  C   UNL d   1      25.894 -18.561  -0.145  0.00  0.00     0.050 C 
BRANCH  28  32
ATOM     32  N   UNL d   1      20.996 -19.549   0.522  0.00  0.00    -0.042 N 
ATOM     33  H   UNL d   1      21.505 -20.417   0.716  0.00  0.00     0.286 HD
BRANCH  32  34
ATOM     34  C   UNL d   1      20.655 -19.101   1.952  0.00  0.00     0.237 C 
ATOM     35  C   UNL d   1      19.979 -20.152   2.819  0.00  0.00     0.035 C 
ENDBRANCH  32  34
BRANCH  32  36
ATOM     36  C   UNL d   1      19.988 -20.079  -0.512  0.00  0.00     0.237 C 
ATOM     37  C   UNL d   1      18.610 -20.446   0.019  0.00  0.00     0.035 C 
ENDBRANCH  32  36
ENDBRANCH  28  32
ENDBRANCH   1  25
TORSDOF 8
ENDMDL
MODEL 9
REMARK VINA RESULT:    -6.914      3.669      5.005
REMARK INTER + INTRA:         -11.350
REMARK INTER:                  -9.301
REMARK INTRA:                  -2.049
REMARK CONF_INDEPENDENT:        2.386
REMARK UNBOUND:                -2.049
REMARK  8 active torsions:
REMARK  status: ('A' for Active; 'I' for Inactive)
REMARK    1  A    between atoms: C_2  and  N_3 
REMARK    2  A    between atoms: N_3  and  C_4 
REMARK    3  A    between atoms: N_3  and  C_6 
REMARK    4  A    between atoms: C_9  and  N_10 
REMARK    5  A    between atoms: C_16  and  N_17 
REMARK       I    between atoms: N_17  and  C_18 
REMARK    6  A    between atoms: C_18  and  C_20 
REMARK    7  A    between atoms: C_20  and  O_21 
REMARK    8  A    between atoms: C_20  and  C_23 
ROOT
ATOM      1  N   UNL d   1      27.779 -13.008   3.770  0.00  0.00    -0.149 N 
ATOM      2  N   UNL d   1      27.801 -11.943   3.023  0.00  0.00    -0.147 NA
ATOM      3  C   UNL d   1      27.602 -12.307   1.804  0.00  0.00     0.110 A 
ATOM      4  C   UNL d   1      27.611 -11.383   0.787  0.00  0.00     0.045 A 
ATOM      5  C   UNL d   1      27.337 -11.827  -0.492  0.00  0.00    -0.033 A 
ATOM      6  C   UNL d   1      27.383 -10.669  -1.431  0.00  0.00     0.050 C 
ATOM      7  C   UNL d   1      27.039 -13.187  -0.790  0.00  0.00     0.043 A 
ATOM      8  C   UNL d   1      27.077 -14.197   0.328  0.00  0.00     0.066 A 
ATOM      9  C   UNL d   1      27.370 -13.710   1.704  0.00  0.00     0.111 A 
ATOM     10  N   UNL d   1      27.498 -14.186   3.026  0.00  0.00    -0.147 NA
ENDROOT
BRANCH   7  11
ATOM     11  N   UNL d   1      26.694 -13.564  -2.174  0.00  0.00    -0.324 N 
ATOM     12  C   UNL d   1      27.359 -13.267  -3.404  0.00  0.00     0.255 C 
ATOM     13  O   UNL d   1      28.304 -12.490  -3.617  0.00  0.00    -0.270 OA
ATOM     14  H   UNL d   1      25.889 -14.180  -2.271  0.00  0.00     0.169 HD
BRANCH  12  15
ATOM     15  C   UNL d   1      26.957 -13.948  -4.709  0.00  0.00     0.246 C 
BRANCH  15  16
ATOM     16  O   UNL d   1      25.710 -14.603  -4.452  0.00  0.00    -0.377 OA
ATOM     17  C   UNL d   1      24.626 -13.701  -4.271  0.00  0.00     0.203 C 
ENDBRANCH  15  16
BRANCH  15  18
ATOM     18  C   UNL d   1      28.028 -14.793  -5.351  0.00  0.00    -0.020 C 
ATOM     19  C   UNL d   1      28.527 -15.912  -4.666  0.00  0.00     0.013 C 
ATOM     20  C   UNL d   1      29.670 -16.554  -5.111  0.00  0.00     0.043 C 
ATOM     21  C   UNL d   1      30.244 -16.154  -6.307  0.00  0.00     0.116 C 
ATOM     22  F   UNL d   1      31.351 -16.761  -6.743  0.00  0.00    -0.206 F 
ATOM     23  C   UNL d   1      29.669 -15.163  -7.084  0.00  0.00     0.043 C 
ATOM     24  C   UNL d   1      28.539 -14.516  -6.622  0.00  0.00     0.013 C 
ENDBRANCH  15  18
ENDBRANCH  12  15
ENDBRANCH   7  11
BRANCH   1  25
ATOM     25  C   UNL d   1      28.051 -12.648   5.194  0.00  0.00     0.085 A 
ATOM     26  C   UNL d   1      28.007 -11.344   5.708  0.00  0.00     0.036 A 
ATOM     27  C   UNL d   1      28.303 -11.067   7.098  0.00  0.00     0.039 A 
ATOM     28  C   UNL d   1      28.645 -12.057   8.038  0.00  0.00     0.135 A 
ATOM     29  C   UNL d   1      28.670 -13.364   7.560  0.00  0.00     0.046 A 
ATOM     30  C   UNL d   1      28.398 -13.686   6.173  0.00  0.00    -0.029 A 
ATOM     31  C   UNL d   1      28.531 -15.200   5.934  0.00  0.00     0.050 C 
BRANCH  28  32
ATOM     32  N   UNL d   1      29.069 -11.647   9.470  0.00  0.00    -0.042 N 
ATOM     33  H   UNL d   1      28.622 -10.729   9.557  0.00  0.00     0.286 HD
BRANCH  32  34
ATOM     34  C   UNL d   1      28.295 -12.435  10.538  0.00  0.00     0.237 C 
ATOM     35  C   UNL d   1      28.743 -13.875  10.736  0.00  0.00     0.035 C 
ENDBRANCH  32  34
BRANCH  32  36
ATOM     36  C   UNL d   1      30.541 -11.215   9.571  0.00  0.00     0.237 C 
ATOM     37  C   UNL d   1      31.486 -11.801   8.531  0.00  0.00     0.035 C 
ENDBRANCH  32  36
ENDBRANCH  28  32
ENDBRANCH   1  25
TORSDOF 8
ENDMDL
