MODEL 1
REMARK VINA RESULT:    -9.733      0.000      0.000
REMARK INTER + INTRA:         -11.317
REMARK INTER:                 -10.926
REMARK INTRA:                  -0.391
REMARK CONF_INDEPENDENT:        1.193
REMARK UNBOUND:                -0.391
REMARK  4 active torsions:
REMARK  status: ('A' for Active; 'I' for Inactive)
REMARK       I    between atoms: C_2  and  N_3 
REMARK    1  A    between atoms: C_2  and  C_19 
REMARK    2  A    between atoms: N_3  and  N_4 
REMARK    3  A    between atoms: C_5  and  C_6 
REMARK    4  A    between atoms: C_23  and  O_24 
ROOT
ATOM      1  C   UNL d   1      25.277 -16.798  -1.254  0.00  0.00     0.011 A 
ATOM      2  C   UNL d   1      26.617 -17.130  -1.178  0.00  0.00     0.102 A 
ATOM      3  N   UNL d   1      27.334 -16.287  -1.988  0.00  0.00    -0.364 N 
ATOM      4  C   UNL d   1      26.501 -15.376  -2.602  0.00  0.00     0.054 A 
ATOM      5  C   UNL d   1      25.204 -15.677  -2.162  0.00  0.00     0.004 A 
ATOM      6  C   UNL d   1      24.147 -14.869  -2.633  0.00  0.00     0.015 A 
ATOM      7  C   UNL d   1      24.410 -13.795  -3.498  0.00  0.00     0.013 A 
ATOM      8  C   UNL d   1      25.705 -13.514  -3.948  0.00  0.00    -0.024 A 
ATOM      9  C   UNL d   1      25.953 -12.456  -4.840  0.00  0.00     0.012 A 
ATOM     10  C   UNL d   1      27.240 -12.210  -5.326  0.00  0.00     0.001 A 
ATOM     11  C   UNL d   1      28.305 -13.004  -4.909  0.00  0.00     0.001 A 
ATOM     12  C   UNL d   1      28.091 -14.042  -3.996  0.00  0.00     0.014 A 
ATOM     13  C   UNL d   1      26.789 -14.313  -3.514  0.00  0.00     0.002 A 
ATOM     14  H   UNL d   1      28.336 -16.315  -2.114  0.00  0.00     0.165 HD
ENDROOT
BRANCH   1  15
ATOM     15  C   UNL d   1      24.180 -17.476  -0.556  0.00  0.00     0.152 C 
ATOM     16  N   UNL d   1      23.678 -18.578  -1.027  0.00  0.00    -0.183 NA
BRANCH  16  17
ATOM     17  N   UNL d   1      22.650 -19.192  -0.317  0.00  0.00    -0.243 N 
ATOM     18  C   UNL d   1      21.335 -18.746  -0.492  0.00  0.00     0.271 C 
ATOM     19  O   UNL d   1      20.993 -17.852  -1.270  0.00  0.00    -0.266 OA
ATOM     20  H   UNL d   1      22.854 -19.999   0.263  0.00  0.00     0.192 HD
BRANCH  18  21
ATOM     21  C   UNL d   1      20.257 -19.421   0.300  0.00  0.00     0.036 A 
ATOM     22  C   UNL d   1      20.321 -19.407   1.706  0.00  0.00     0.017 A 
ATOM     23  C   UNL d   1      19.363 -20.084   2.478  0.00  0.00     0.004 A 
ATOM     24  C   UNL d   1      18.339 -20.796   1.852  0.00  0.00     0.036 A 
ATOM     25  C   UNL d   1      18.290 -20.823   0.460  0.00  0.00     0.066 A 
ATOM     26  C   UNL d   1      19.238 -20.152  -0.318  0.00  0.00     0.053 A 
BRANCH  25  27
ATOM     27  O   UNL d   1      17.313 -21.511  -0.202  0.00  0.00    -0.361 OA
ATOM     28  H   UNL d   1      16.739 -21.960   0.442  0.00  0.00     0.217 HD
ENDBRANCH  25  27
ENDBRANCH  18  21
ENDBRANCH  16  17
ENDBRANCH   1  15
TORSDOF 4
ENDMDL
MODEL 2
REMARK VINA RESULT:    -9.310      1.668      2.954
REMARK INTER + INTRA:         -10.850
REMARK INTER:                 -10.503
REMARK INTRA:                  -0.347
REMARK CONF_INDEPENDENT:        1.193
REMARK UNBOUND:                -0.347
REMARK  4 active torsions:
REMARK  status: ('A' for Active; 'I' for Inactive)
REMARK       I    between atoms: C_2  and  N_3 
REMARK    1  A    between atoms: C_2  and  C_19 
REMARK    2  A    between atoms: N_3  and  N_4 
REMARK    3  A    between atoms: C_5  and  C_6 
REMARK    4  A    between atoms: C_23  and  O_24 
ROOT
ATOM      1  C   UNL d   1      24.876 -16.556  -1.353  0.00  0.00     0.011 A 
ATOM      2  C   UNL d   1      24.756 -15.557  -2.301  0.00  0.00     0.102 A 
ATOM      3  N   UNL d   1      26.006 -15.087  -2.617  0.00  0.00    -0.364 N 
ATOM      4  C   UNL d   1      26.975 -15.764  -1.907  0.00  0.00     0.054 A 
ATOM      5  C   UNL d   1      26.294 -16.688  -1.103  0.00  0.00     0.004 A 
ATOM      6  C   UNL d   1      27.065 -17.536  -0.280  0.00  0.00     0.015 A 
ATOM      7  C   UNL d   1      28.466 -17.450  -0.292  0.00  0.00     0.013 A 
ATOM      8  C   UNL d   1      29.137 -16.510  -1.083  0.00  0.00    -0.024 A 
ATOM      9  C   UNL d   1      30.539 -16.411  -1.064  0.00  0.00     0.012 A 
ATOM     10  C   UNL d   1      31.202 -15.438  -1.816  0.00  0.00     0.001 A 
ATOM     11  C   UNL d   1      30.475 -14.563  -2.618  0.00  0.00     0.001 A 
ATOM     12  C   UNL d   1      29.081 -14.663  -2.681  0.00  0.00     0.014 A 
ATOM     13  C   UNL d   1      28.398 -15.630  -1.908  0.00  0.00     0.002 A 
ATOM     14  H   UNL d   1      26.199 -14.354  -3.284  0.00  0.00     0.165 HD
ENDROOT
BRANCH   1  15
ATOM     15  C   UNL d   1      23.772 -17.296  -0.737  0.00  0.00     0.152 C 
ATOM     16  N   UNL d   1      23.687 -18.586  -0.865  0.00  0.00    -0.183 NA
BRANCH  16  17
ATOM     17  N   UNL d   1      22.629 -19.245  -0.245  0.00  0.00    -0.243 N 
ATOM     18  C   UNL d   1      21.323 -18.777  -0.438  0.00  0.00     0.271 C 
ATOM     19  O   UNL d   1      21.017 -17.825  -1.160  0.00  0.00    -0.266 OA
ATOM     20  H   UNL d   1      22.805 -20.094   0.281  0.00  0.00     0.192 HD
BRANCH  18  21
ATOM     21  C   UNL d   1      20.211 -19.502   0.257  0.00  0.00     0.036 A 
ATOM     22  C   UNL d   1      20.280 -19.700   1.649  0.00  0.00     0.017 A 
ATOM     23  C   UNL d   1      19.288 -20.430   2.322  0.00  0.00     0.004 A 
ATOM     24  C   UNL d   1      18.224 -20.984   1.610  0.00  0.00     0.036 A 
ATOM     25  C   UNL d   1      18.169 -20.801   0.230  0.00  0.00     0.066 A 
ATOM     26  C   UNL d   1      19.151 -20.075  -0.451  0.00  0.00     0.053 A 
BRANCH  25  27
ATOM     27  O   UNL d   1      17.153 -21.328  -0.516  0.00  0.00    -0.361 OA
ATOM     28  H   UNL d   1      16.790 -22.108  -0.063  0.00  0.00     0.217 HD
ENDBRANCH  25  27
ENDBRANCH  18  21
ENDBRANCH  16  17
ENDBRANCH   1  15
TORSDOF 4
ENDMDL
MODEL 3
REMARK VINA RESULT:    -8.203      1.214      1.645
REMARK INTER + INTRA:          -9.663
REMARK INTER:                  -9.397
REMARK INTRA:                  -0.266
REMARK CONF_INDEPENDENT:        1.193
REMARK UNBOUND:                -0.266
REMARK  4 active torsions:
REMARK  status: ('A' for Active; 'I' for Inactive)
REMARK       I    between atoms: C_2  and  N_3 
REMARK    1  A    between atoms: C_2  and  C_19 
REMARK    2  A    between atoms: N_3  and  N_4 
REMARK    3  A    between atoms: C_5  and  C_6 
REMARK    4  A    between atoms: C_23  and  O_24 
ROOT
ATOM      1  C   UNL d   1      25.875 -16.673  -1.482  0.00  0.00     0.011 A 
ATOM      2  C   UNL d   1      27.107 -16.770  -0.860  0.00  0.00     0.102 A 
ATOM      3  N   UNL d   1      27.975 -15.888  -1.449  0.00  0.00    -0.364 N 
ATOM      4  C   UNL d   1      27.347 -15.182  -2.454  0.00  0.00     0.054 A 
ATOM      5  C   UNL d   1      26.030 -15.658  -2.498  0.00  0.00     0.004 A 
ATOM      6  C   UNL d   1      25.154 -15.078  -3.440  0.00  0.00     0.015 A 
ATOM      7  C   UNL d   1      25.603 -14.049  -4.284  0.00  0.00     0.013 A 
ATOM      8  C   UNL d   1      26.925 -13.595  -4.246  0.00  0.00    -0.024 A 
ATOM      9  C   UNL d   1      27.374 -12.586  -5.117  0.00  0.00     0.012 A 
ATOM     10  C   UNL d   1      28.708 -12.169  -5.111  0.00  0.00     0.001 A 
ATOM     11  C   UNL d   1      29.611 -12.738  -4.217  0.00  0.00     0.001 A 
ATOM     12  C   UNL d   1      29.182 -13.719  -3.317  0.00  0.00     0.014 A 
ATOM     13  C   UNL d   1      27.839 -14.163  -3.328  0.00  0.00     0.002 A 
ATOM     14  H   UNL d   1      28.941 -15.758  -1.183  0.00  0.00     0.165 HD
ENDROOT
BRANCH   1  15
ATOM     15  C   UNL d   1      24.684 -17.465  -1.162  0.00  0.00     0.152 C 
ATOM     16  N   UNL d   1      24.592 -18.094  -0.029  0.00  0.00    -0.183 NA
BRANCH  16  17
ATOM     17  N   UNL d   1      23.432 -18.817   0.234  0.00  0.00    -0.243 N 
ATOM     18  C   UNL d   1      22.190 -18.268  -0.105  0.00  0.00     0.271 C 
ATOM     19  O   UNL d   1      22.032 -17.180  -0.665  0.00  0.00    -0.266 OA
ATOM     20  H   UNL d   1      23.501 -19.760   0.603  0.00  0.00     0.192 HD
BRANCH  18  21
ATOM     21  C   UNL d   1      20.963 -19.068   0.207  0.00  0.00     0.036 A 
ATOM     22  C   UNL d   1      20.063 -19.384  -0.828  0.00  0.00     0.017 A 
ATOM     23  C   UNL d   1      18.871 -20.075  -0.561  0.00  0.00     0.004 A 
ATOM     24  C   UNL d   1      18.557 -20.447   0.747  0.00  0.00     0.036 A 
ATOM     25  C   UNL d   1      19.442 -20.117   1.772  0.00  0.00     0.066 A 
ATOM     26  C   UNL d   1      20.632 -19.428   1.517  0.00  0.00     0.053 A 
BRANCH  25  27
ATOM     27  O   UNL d   1      19.180 -20.450   3.070  0.00  0.00    -0.361 OA
ATOM     28  H   UNL d   1      19.572 -21.318   3.267  0.00  0.00     0.217 HD
ENDBRANCH  25  27
ENDBRANCH  18  21
ENDBRANCH  16  17
ENDBRANCH   1  15
TORSDOF 4
ENDMDL
MODEL 4
REMARK VINA RESULT:    -7.555      7.184      9.893
REMARK INTER + INTRA:          -9.010
REMARK INTER:                  -8.748
REMARK INTRA:                  -0.262
REMARK CONF_INDEPENDENT:        1.193
REMARK UNBOUND:                -0.262
REMARK  4 active torsions:
REMARK  status: ('A' for Active; 'I' for Inactive)
REMARK       I    between atoms: C_2  and  N_3 
REMARK    1  A    between atoms: C_2  and  C_19 
REMARK    2  A    between atoms: N_3  and  N_4 
REMARK    3  A    between atoms: C_5  and  C_6 
REMARK    4  A    between atoms: C_23  and  O_24 
ROOT
ATOM      1  C   UNL d   1      28.053 -14.168   3.882  0.00  0.00     0.011 A 
ATOM      2  C   UNL d   1      28.154 -15.397   4.508  0.00  0.00     0.102 A 
ATOM      3  N   UNL d   1      28.415 -15.200   5.839  0.00  0.00    -0.364 N 
ATOM      4  C   UNL d   1      28.478 -13.854   6.131  0.00  0.00     0.054 A 
ATOM      5  C   UNL d   1      28.258 -13.184   4.919  0.00  0.00     0.004 A 
ATOM      6  C   UNL d   1      28.251 -11.773   4.942  0.00  0.00     0.015 A 
ATOM      7  C   UNL d   1      28.443 -11.084   6.150  0.00  0.00     0.013 A 
ATOM      8  C   UNL d   1      28.682 -11.761   7.351  0.00  0.00    -0.024 A 
ATOM      9  C   UNL d   1      28.905 -11.061   8.550  0.00  0.00     0.012 A 
ATOM     10  C   UNL d   1      29.193 -11.740   9.737  0.00  0.00     0.001 A 
ATOM     11  C   UNL d   1      29.239 -13.131   9.750  0.00  0.00     0.001 A 
ATOM     12  C   UNL d   1      28.987 -13.852   8.578  0.00  0.00     0.014 A 
ATOM     13  C   UNL d   1      28.715 -13.175   7.367  0.00  0.00     0.002 A 
ATOM     14  H   UNL d   1      28.535 -15.935   6.522  0.00  0.00     0.165 HD
ENDROOT
BRANCH   1  15
ATOM     15  C   UNL d   1      27.804 -13.946   2.454  0.00  0.00     0.152 C 
ATOM     16  N   UNL d   1      27.426 -14.925   1.688  0.00  0.00    -0.183 NA
BRANCH  16  17
ATOM     17  N   UNL d   1      27.185 -14.658   0.344  0.00  0.00    -0.243 N 
ATOM     18  C   UNL d   1      26.739 -15.689  -0.491  0.00  0.00     0.271 C 
ATOM     19  O   UNL d   1      26.501 -16.841  -0.118  0.00  0.00    -0.266 OA
ATOM     20  H   UNL d   1      27.267 -13.707  -0.002  0.00  0.00     0.192 HD
BRANCH  18  21
ATOM     21  C   UNL d   1      26.505 -15.369  -1.935  0.00  0.00     0.036 A 
ATOM     22  C   UNL d   1      27.549 -15.551  -2.861  0.00  0.00     0.017 A 
ATOM     23  C   UNL d   1      27.386 -15.199  -4.210  0.00  0.00     0.004 A 
ATOM     24  C   UNL d   1      26.181 -14.647  -4.647  0.00  0.00     0.036 A 
ATOM     25  C   UNL d   1      25.156 -14.452  -3.724  0.00  0.00     0.066 A 
ATOM     26  C   UNL d   1      25.308 -14.798  -2.378  0.00  0.00     0.053 A 
BRANCH  25  27
ATOM     27  O   UNL d   1      23.959 -13.908  -4.097  0.00  0.00    -0.361 OA
ATOM     28  H   UNL d   1      24.005 -13.633  -5.028  0.00  0.00     0.217 HD
ENDBRANCH  25  27
ENDBRANCH  18  21
ENDBRANCH  16  17
ENDBRANCH   1  15
TORSDOF 4
ENDMDL
MODEL 5
REMARK VINA RESULT:    -7.282      9.341     10.434
REMARK INTER + INTRA:          -8.847
REMARK INTER:                  -8.475
REMARK INTRA:                  -0.372
REMARK CONF_INDEPENDENT:        1.193
REMARK UNBOUND:                -0.372
REMARK  4 active torsions:
REMARK  status: ('A' for Active; 'I' for Inactive)
REMARK       I    between atoms: C_2  and  N_3 
REMARK    1  A    between atoms: C_2  and  C_19 
REMARK    2  A    between atoms: N_3  and  N_4 
REMARK    3  A    between atoms: C_5  and  C_6 
REMARK    4  A    between atoms: C_23  and  O_24 
ROOT
ATOM      1  C   UNL d   1      31.073 -21.966  -1.832  0.00  0.00     0.011 A 
ATOM      2  C   UNL d   1      30.826 -22.954  -2.768  0.00  0.00     0.102 A 
ATOM      3  N   UNL d   1      30.748 -22.381  -4.011  0.00  0.00    -0.364 N 
ATOM      4  C   UNL d   1      30.953 -21.020  -3.936  0.00  0.00     0.054 A 
ATOM      5  C   UNL d   1      31.156 -20.732  -2.579  0.00  0.00     0.004 A 
ATOM      6  C   UNL d   1      31.412 -19.391  -2.223  0.00  0.00     0.015 A 
ATOM      7  C   UNL d   1      31.475 -18.397  -3.213  0.00  0.00     0.013 A 
ATOM      8  C   UNL d   1      31.252 -18.690  -4.562  0.00  0.00    -0.024 A 
ATOM      9  C   UNL d   1      31.285 -17.681  -5.542  0.00  0.00     0.012 A 
ATOM     10  C   UNL d   1      31.012 -17.970  -6.882  0.00  0.00     0.001 A 
ATOM     11  C   UNL d   1      30.724 -19.275  -7.269  0.00  0.00     0.001 A 
ATOM     12  C   UNL d   1      30.718 -20.303  -6.319  0.00  0.00     0.014 A 
ATOM     13  C   UNL d   1      30.973 -20.019  -4.957  0.00  0.00     0.002 A 
ATOM     14  H   UNL d   1      30.575 -22.882  -4.872  0.00  0.00     0.165 HD
ENDROOT
BRANCH   1  15
ATOM     15  C   UNL d   1      31.202 -22.164  -0.385  0.00  0.00     0.152 C 
ATOM     16  N   UNL d   1      32.273 -21.782   0.242  0.00  0.00    -0.183 NA
BRANCH  16  17
ATOM     17  N   UNL d   1      32.338 -21.975   1.619  0.00  0.00    -0.243 N 
ATOM     18  C   UNL d   1      32.509 -20.868   2.459  0.00  0.00     0.271 C 
ATOM     19  O   UNL d   1      32.574 -19.698   2.075  0.00  0.00    -0.266 OA
ATOM     20  H   UNL d   1      32.192 -22.902   2.003  0.00  0.00     0.192 HD
BRANCH  18  21
ATOM     21  C   UNL d   1      32.590 -21.116   3.934  0.00  0.00     0.036 A 
ATOM     22  C   UNL d   1      33.843 -21.362   4.525  0.00  0.00     0.017 A 
ATOM     23  C   UNL d   1      33.949 -21.662   5.893  0.00  0.00     0.004 A 
ATOM     24  C   UNL d   1      32.800 -21.734   6.682  0.00  0.00     0.036 A 
ATOM     25  C   UNL d   1      31.560 -21.507   6.090  0.00  0.00     0.066 A 
ATOM     26  C   UNL d   1      31.443 -21.208   4.729  0.00  0.00     0.053 A 
BRANCH  25  27
ATOM     27  O   UNL d   1      30.404 -21.573   6.815  0.00  0.00    -0.361 OA
ATOM     28  H   UNL d   1      30.030 -22.468   6.748  0.00  0.00     0.217 HD
ENDBRANCH  25  27
ENDBRANCH  18  21
ENDBRANCH  16  17
ENDBRANCH   1  15
TORSDOF 4
ENDMDL
MODEL 6
REMARK VINA RESULT:    -7.157      7.071     10.003
REMARK INTER + INTRA:          -8.711
REMARK INTER:                  -8.350
REMARK INTRA:                  -0.361
REMARK CONF_INDEPENDENT:        1.193
REMARK UNBOUND:                -0.361
REMARK  4 active torsions:
REMARK  status: ('A' for Active; 'I' for Inactive)
REMARK       I    between atoms: C_2  and  N_3 
REMARK    1  A    between atoms: C_2  and  C_19 
REMARK    2  A    between atoms: N_3  and  N_4 
REMARK    3  A    between atoms: C_5  and  C_6 
REMARK    4  A    between atoms: C_23  and  O_24 
ROOT
ATOM      1  C   UNL d   1      27.284 -12.138   3.211  0.00  0.00     0.011 A 
ATOM      2  C   UNL d   1      27.150 -10.825   3.623  0.00  0.00     0.102 A 
ATOM      3  N   UNL d   1      27.534 -10.728   4.936  0.00  0.00    -0.364 N 
ATOM      4  C   UNL d   1      27.941 -11.954   5.418  0.00  0.00     0.054 A 
ATOM      5  C   UNL d   1      27.791 -12.857   4.357  0.00  0.00     0.004 A 
ATOM      6  C   UNL d   1      28.162 -14.200   4.580  0.00  0.00     0.015 A 
ATOM      7  C   UNL d   1      28.678 -14.593   5.826  0.00  0.00     0.013 A 
ATOM      8  C   UNL d   1      28.807 -13.688   6.885  0.00  0.00    -0.024 A 
ATOM      9  C   UNL d   1      29.295 -14.099   8.138  0.00  0.00     0.012 A 
ATOM     10  C   UNL d   1      29.374 -13.204   9.209  0.00  0.00     0.001 A 
ATOM     11  C   UNL d   1      28.989 -11.877   9.037  0.00  0.00     0.001 A 
ATOM     12  C   UNL d   1      28.532 -11.435   7.791  0.00  0.00     0.014 A 
ATOM     13  C   UNL d   1      28.428 -12.337   6.706  0.00  0.00     0.002 A 
ATOM     14  H   UNL d   1      27.533  -9.876   5.480  0.00  0.00     0.165 HD
ENDROOT
BRANCH   1  15
ATOM     15  C   UNL d   1      26.953 -12.661   1.882  0.00  0.00     0.152 C 
ATOM     16  N   UNL d   1      27.230 -13.891   1.568  0.00  0.00    -0.183 NA
BRANCH  16  17
ATOM     17  N   UNL d   1      26.879 -14.345   0.300  0.00  0.00    -0.243 N 
ATOM     18  C   UNL d   1      27.277 -13.612  -0.825  0.00  0.00     0.271 C 
ATOM     19  O   UNL d   1      27.963 -12.587  -0.789  0.00  0.00    -0.266 OA
ATOM     20  H   UNL d   1      26.401 -15.234   0.199  0.00  0.00     0.192 HD
BRANCH  18  21
ATOM     21  C   UNL d   1      26.869 -14.122  -2.173  0.00  0.00     0.036 A 
ATOM     22  C   UNL d   1      27.821 -14.768  -2.984  0.00  0.00     0.017 A 
ATOM     23  C   UNL d   1      27.490 -15.200  -4.278  0.00  0.00     0.004 A 
ATOM     24  C   UNL d   1      26.208 -14.979  -4.782  0.00  0.00     0.036 A 
ATOM     25  C   UNL d   1      25.274 -14.324  -3.983  0.00  0.00     0.066 A 
ATOM     26  C   UNL d   1      25.592 -13.889  -2.693  0.00  0.00     0.053 A 
BRANCH  25  27
ATOM     27  O   UNL d   1      24.007 -14.075  -4.430  0.00  0.00    -0.361 OA
ATOM     28  H   UNL d   1      24.030 -13.356  -5.084  0.00  0.00     0.217 HD
ENDBRANCH  25  27
ENDBRANCH  18  21
ENDBRANCH  16  17
ENDBRANCH   1  15
TORSDOF 4
ENDMDL
MODEL 7
REMARK VINA RESULT:    -6.829      7.995      9.896
REMARK INTER + INTRA:          -8.292
REMARK INTER:                  -8.022
REMARK INTRA:                  -0.270
REMARK CONF_INDEPENDENT:        1.193
REMARK UNBOUND:                -0.270
REMARK  4 active torsions:
REMARK  status: ('A' for Active; 'I' for Inactive)
REMARK       I    between atoms: C_2  and  N_3 
REMARK    1  A    between atoms: C_2  and  C_19 
REMARK    2  A    between atoms: N_3  and  N_4 
REMARK    3  A    between atoms: C_5  and  C_6 
REMARK    4  A    between atoms: C_23  and  O_24 
ROOT
ATOM      1  C   UNL d   1      27.777 -14.003   2.497  0.00  0.00     0.011 A 
ATOM      2  C   UNL d   1      27.512 -12.687   2.164  0.00  0.00     0.102 A 
ATOM      3  N   UNL d   1      27.021 -12.639   0.884  0.00  0.00    -0.364 N 
ATOM      4  C   UNL d   1      26.934 -13.906   0.348  0.00  0.00     0.054 A 
ATOM      5  C   UNL d   1      27.406 -14.780   1.337  0.00  0.00     0.004 A 
ATOM      6  C   UNL d   1      27.405 -16.161   1.047  0.00  0.00     0.015 A 
ATOM      7  C   UNL d   1      26.927 -16.624  -0.190  0.00  0.00     0.013 A 
ATOM      8  C   UNL d   1      26.477 -15.742  -1.179  0.00  0.00    -0.024 A 
ATOM      9  C   UNL d   1      26.031 -16.214  -2.426  0.00  0.00     0.012 A 
ATOM     10  C   UNL d   1      25.629 -15.327  -3.429  0.00  0.00     0.001 A 
ATOM     11  C   UNL d   1      25.645 -13.955  -3.193  0.00  0.00     0.001 A 
ATOM     12  C   UNL d   1      26.052 -13.463  -1.949  0.00  0.00     0.014 A 
ATOM     13  C   UNL d   1      26.480 -14.349  -0.934  0.00  0.00     0.002 A 
ATOM     14  H   UNL d   1      26.748 -11.797   0.398  0.00  0.00     0.165 HD
ENDROOT
BRANCH   1  15
ATOM     15  C   UNL d   1      28.335 -14.475   3.767  0.00  0.00     0.152 C 
ATOM     16  N   UNL d   1      27.988 -13.919   4.889  0.00  0.00    -0.183 NA
BRANCH  16  17
ATOM     17  N   UNL d   1      28.532 -14.417   6.070  0.00  0.00    -0.243 N 
ATOM     18  C   UNL d   1      28.845 -13.530   7.107  0.00  0.00     0.271 C 
ATOM     19  O   UNL d   1      28.642 -12.314   7.077  0.00  0.00    -0.266 OA
ATOM     20  H   UNL d   1      28.631 -15.419   6.194  0.00  0.00     0.192 HD
BRANCH  18  21
ATOM     21  C   UNL d   1      29.444 -14.099   8.357  0.00  0.00     0.036 A 
ATOM     22  C   UNL d   1      28.674 -14.139   9.535  0.00  0.00     0.017 A 
ATOM     23  C   UNL d   1      29.224 -14.605  10.739  0.00  0.00     0.004 A 
ATOM     24  C   UNL d   1      30.555 -15.023  10.784  0.00  0.00     0.036 A 
ATOM     25  C   UNL d   1      31.319 -14.965   9.620  0.00  0.00     0.066 A 
ATOM     26  C   UNL d   1      30.781 -14.503   8.415  0.00  0.00     0.053 A 
BRANCH  25  27
ATOM     27  O   UNL d   1      32.628 -15.355   9.610  0.00  0.00    -0.361 OA
ATOM     28  H   UNL d   1      32.677 -16.325   9.652  0.00  0.00     0.217 HD
ENDBRANCH  25  27
ENDBRANCH  18  21
ENDBRANCH  16  17
ENDBRANCH   1  15
TORSDOF 4
ENDMDL
MODEL 8
REMARK VINA RESULT:    -6.746      5.384      9.999
REMARK INTER + INTRA:          -8.209
REMARK INTER:                  -7.940
REMARK INTRA:                  -0.269
REMARK CONF_INDEPENDENT:        1.193
REMARK UNBOUND:                -0.269
REMARK  4 active torsions:
REMARK  status: ('A' for Active; 'I' for Inactive)
REMARK       I    between atoms: C_2  and  N_3 
REMARK    1  A    between atoms: C_2  and  C_19 
REMARK    2  A    between atoms: N_3  and  N_4 
REMARK    3  A    between atoms: C_5  and  C_6 
REMARK    4  A    between atoms: C_23  and  O_24 
ROOT
ATOM      1  C   UNL d   1      26.235 -13.676  -3.663  0.00  0.00     0.011 A 
ATOM      2  C   UNL d   1      27.604 -13.875  -3.631  0.00  0.00     0.102 A 
ATOM      3  N   UNL d   1      27.885 -14.908  -2.774  0.00  0.00    -0.364 N 
ATOM      4  C   UNL d   1      26.726 -15.424  -2.233  0.00  0.00     0.054 A 
ATOM      5  C   UNL d   1      25.676 -14.667  -2.771  0.00  0.00     0.004 A 
ATOM      6  C   UNL d   1      24.361 -15.007  -2.391  0.00  0.00     0.015 A 
ATOM      7  C   UNL d   1      24.132 -16.081  -1.516  0.00  0.00     0.013 A 
ATOM      8  C   UNL d   1      25.188 -16.818  -0.969  0.00  0.00    -0.024 A 
ATOM      9  C   UNL d   1      24.950 -17.871  -0.068  0.00  0.00     0.012 A 
ATOM     10  C   UNL d   1      26.009 -18.573   0.515  0.00  0.00     0.001 A 
ATOM     11  C   UNL d   1      27.323 -18.248   0.190  0.00  0.00     0.001 A 
ATOM     12  C   UNL d   1      27.585 -17.226  -0.729  0.00  0.00     0.014 A 
ATOM     13  C   UNL d   1      26.522 -16.496  -1.310  0.00  0.00     0.002 A 
ATOM     14  H   UNL d   1      28.811 -15.256  -2.569  0.00  0.00     0.165 HD
ENDROOT
BRANCH   1  15
ATOM     15  C   UNL d   1      25.531 -12.651  -4.439  0.00  0.00     0.152 C 
ATOM     16  N   UNL d   1      25.925 -11.413  -4.410  0.00  0.00    -0.183 NA
BRANCH  16  17
ATOM     17  N   UNL d   1      25.234 -10.482  -5.179  0.00  0.00    -0.243 N 
ATOM     18  C   UNL d   1      25.257  -9.132  -4.806  0.00  0.00     0.271 C 
ATOM     19  O   UNL d   1      25.884  -8.680  -3.846  0.00  0.00    -0.266 OA
ATOM     20  H   UNL d   1      24.780 -10.777  -6.038  0.00  0.00     0.192 HD
BRANCH  18  21
ATOM     21  C   UNL d   1      24.489  -8.160  -5.649  0.00  0.00     0.036 A 
ATOM     22  C   UNL d   1      25.139  -7.504  -6.711  0.00  0.00     0.017 A 
ATOM     23  C   UNL d   1      24.469  -6.539  -7.480  0.00  0.00     0.004 A 
ATOM     24  C   UNL d   1      23.146  -6.209  -7.186  0.00  0.00     0.036 A 
ATOM     25  C   UNL d   1      22.511  -6.848  -6.123  0.00  0.00     0.066 A 
ATOM     26  C   UNL d   1      23.169  -7.810  -5.351  0.00  0.00     0.053 A 
BRANCH  25  27
ATOM     27  O   UNL d   1      21.219  -6.556  -5.789  0.00  0.00    -0.361 OA
ATOM     28  H   UNL d   1      21.102  -6.660  -4.829  0.00  0.00     0.217 HD
ENDBRANCH  25  27
ENDBRANCH  18  21
ENDBRANCH  16  17
ENDBRANCH   1  15
TORSDOF 4
ENDMDL
