MODEL 1
REMARK VINA RESULT:   -11.066      0.000      0.000
REMARK INTER + INTRA:         -18.530
REMARK INTER:                 -15.839
REMARK INTRA:                  -2.691
REMARK CONF_INDEPENDENT:        4.773
REMARK UNBOUND:                -2.691
REMARK  16 active torsions:
REMARK  status: ('A' for Active; 'I' for Inactive)
REMARK       I    between atoms: C_2  and  N_3 
REMARK    1  A    between atoms: C_2  and  O_32 
REMARK    2  A    between atoms: N_3  and  C_4 
REMARK    3  A    between atoms: C_4  and  C_5 
REMARK    4  A    between atoms: C_5  and  C_6 
REMARK    5  A    between atoms: C_6  and  C_7 
REMARK    6  A    between atoms: C_8  and  C_7 
REMARK    7  A    between atoms: C_8  and  C_20 
REMARK    8  A    between atoms: C_8  and  N_9 
REMARK       I    between atoms: N_9  and  C_10 
REMARK    9  A    between atoms: C_10  and  O_12 
REMARK   10  A    between atoms: O_12  and  C_13 
REMARK   11  A    between atoms: C_13  and  C_14 
REMARK   12  A    between atoms: C_20  and  O_22 
REMARK   13  A    between atoms: O_22  and  C_23 
REMARK   14  A    between atoms: C_26  and  N_27 
REMARK   15  A    between atoms: O_32  and  C_33 
REMARK   16  A    between atoms: C_33  and  C_34 
ROOT
ATOM      1  C   UNL d   1      26.685 -15.198  -0.227  0.00  0.00     0.187 C 
ENDROOT
BRANCH   1   2
ATOM      2  C   UNL d   1      27.799 -14.128  -0.393  0.00  0.00     0.287 C 
ATOM      3  O   UNL d   1      28.248 -13.810  -1.490  0.00  0.00    -0.263 OA
BRANCH   2   4
ATOM      4  O   UNL d   1      28.173 -13.524   0.829  0.00  0.00    -0.277 OA
BRANCH   4   5
ATOM      5  C   UNL d   1      27.659 -12.233   1.159  0.00  0.00     0.079 A 
ATOM      6  C   UNL d   1      27.210 -11.986   2.464  0.00  0.00     0.040 A 
ATOM      7  C   UNL d   1      26.643 -10.738   2.792  0.00  0.00     0.039 A 
ATOM      8  C   UNL d   1      26.605  -9.716   1.832  0.00  0.00     0.103 A 
ATOM      9  C   UNL d   1      27.032  -9.969   0.525  0.00  0.00     0.039 A 
ATOM     10  C   UNL d   1      27.531 -11.233   0.189  0.00  0.00     0.040 A 
BRANCH   8  11
ATOM     11  N   UNL d   1      26.170  -8.359   2.205  0.00  0.00    -0.116 N 
ATOM     12  O   UNL d   1      26.654  -7.859   3.230  0.00  0.00    -0.532 OA
ATOM     13  O   UNL d   1      25.361  -7.786   1.460  0.00  0.00    -0.532 OA
ENDBRANCH   8  11
ENDBRANCH   4   5
ENDBRANCH   2   4
ENDBRANCH   1   2
BRANCH   1  14
ATOM     14  N   UNL d   1      25.850 -15.340  -1.492  0.00  0.00    -0.323 N 
ATOM     15  C   UNL d   1      25.534 -14.338  -2.381  0.00  0.00     0.361 C 
ATOM     16  O   UNL d   1      25.785 -13.147  -2.201  0.00  0.00    -0.238 OA
ATOM     17  H   UNL d   1      25.179 -16.104  -1.503  0.00  0.00     0.165 HD
BRANCH  15  18
ATOM     18  O   UNL d   1      25.016 -14.736  -3.567  0.00  0.00    -0.299 OA
BRANCH  18  19
ATOM     19  C   UNL d   1      25.672 -14.004  -4.649  0.00  0.00     0.219 C 
BRANCH  19  20
ATOM     20  C   UNL d   1      27.007 -14.605  -4.924  0.00  0.00    -0.034 C 
ATOM     21  C   UNL d   1      27.564 -15.575  -4.078  0.00  0.00     0.009 C 
ATOM     22  C   UNL d   1      28.902 -15.914  -4.233  0.00  0.00     0.001 C 
ATOM     23  C   UNL d   1      29.633 -15.378  -5.294  0.00  0.00     0.000 C 
ATOM     24  C   UNL d   1      29.046 -14.482  -6.185  0.00  0.00     0.001 C 
ATOM     25  C   UNL d   1      27.730 -14.104  -6.005  0.00  0.00     0.009 C 
ENDBRANCH  19  20
ENDBRANCH  18  19
ENDBRANCH  15  18
ENDBRANCH   1  14
BRANCH   1  26
ATOM     26  C   UNL d   1      27.260 -16.501   0.420  0.00  0.00     0.035 C 
BRANCH  26  27
ATOM     27  C   UNL d   1      26.791 -17.786  -0.221  0.00  0.00     0.004 C 
BRANCH  27  28
ATOM     28  C   UNL d   1      25.386 -18.024  -0.659  0.00  0.00     0.020 C 
BRANCH  28  29
ATOM     29  C   UNL d   1      24.521 -18.198   0.603  0.00  0.00     0.125 C 
BRANCH  29  30
ATOM     30  N   UNL d   1      23.146 -18.332   0.201  0.00  0.00    -0.337 N 
ATOM     31  C   UNL d   1      22.523 -17.410  -0.597  0.00  0.00     0.360 C 
ATOM     32  O   UNL d   1      23.092 -16.414  -1.028  0.00  0.00    -0.239 OA
ATOM     33  H   UNL d   1      22.666 -19.153   0.522  0.00  0.00     0.164 HD
BRANCH  31  34
ATOM     34  O   UNL d   1      21.218 -17.656  -0.892  0.00  0.00    -0.299 OA
BRANCH  34  35
ATOM     35  C   UNL d   1      20.748 -18.961  -1.259  0.00  0.00     0.219 C 
BRANCH  35  36
ATOM     36  C   UNL d   1      20.080 -19.618  -0.079  0.00  0.00    -0.034 A 
ATOM     37  C   UNL d   1      18.951 -20.433  -0.240  0.00  0.00     0.009 A 
ATOM     38  C   UNL d   1      18.273 -20.928   0.878  0.00  0.00     0.001 A 
ATOM     39  C   UNL d   1      18.772 -20.696   2.159  0.00  0.00     0.000 A 
ATOM     40  C   UNL d   1      19.914 -19.917   2.327  0.00  0.00     0.001 A 
ATOM     41  C   UNL d   1      20.560 -19.374   1.216  0.00  0.00     0.009 A 
ENDBRANCH  35  36
ENDBRANCH  34  35
ENDBRANCH  31  34
ENDBRANCH  29  30
ENDBRANCH  28  29
ENDBRANCH  27  28
ENDBRANCH  26  27
ENDBRANCH   1  26
TORSDOF 16
ENDMDL
MODEL 2
REMARK VINA RESULT:    -9.857      3.080      9.000
REMARK INTER + INTRA:         -18.412
REMARK INTER:                 -14.630
REMARK INTRA:                  -3.782
REMARK CONF_INDEPENDENT:        4.773
REMARK UNBOUND:                -3.782
REMARK  16 active torsions:
REMARK  status: ('A' for Active; 'I' for Inactive)
REMARK       I    between atoms: C_2  and  N_3 
REMARK    1  A    between atoms: C_2  and  O_32 
REMARK    2  A    between atoms: N_3  and  C_4 
REMARK    3  A    between atoms: C_4  and  C_5 
REMARK    4  A    between atoms: C_5  and  C_6 
REMARK    5  A    between atoms: C_6  and  C_7 
REMARK    6  A    between atoms: C_8  and  C_7 
REMARK    7  A    between atoms: C_8  and  C_20 
REMARK    8  A    between atoms: C_8  and  N_9 
REMARK       I    between atoms: N_9  and  C_10 
REMARK    9  A    between atoms: C_10  and  O_12 
REMARK   10  A    between atoms: O_12  and  C_13 
REMARK   11  A    between atoms: C_13  and  C_14 
REMARK   12  A    between atoms: C_20  and  O_22 
REMARK   13  A    between atoms: O_22  and  C_23 
REMARK   14  A    between atoms: C_26  and  N_27 
REMARK   15  A    between atoms: O_32  and  C_33 
REMARK   16  A    between atoms: C_33  and  C_34 
ROOT
ATOM      1  C   UNL d   1      28.472 -14.829   0.640  0.00  0.00     0.187 C 
ENDROOT
BRANCH   1   2
ATOM      2  C   UNL d   1      27.200 -15.105  -0.209  0.00  0.00     0.287 C 
ATOM      3  O   UNL d   1      26.528 -14.205  -0.701  0.00  0.00    -0.263 OA
BRANCH   2   4
ATOM      4  O   UNL d   1      26.956 -16.484  -0.408  0.00  0.00    -0.277 OA
BRANCH   4   5
ATOM      5  C   UNL d   1      25.612 -16.946  -0.542  0.00  0.00     0.079 A 
ATOM      6  C   UNL d   1      24.594 -16.022  -0.816  0.00  0.00     0.040 A 
ATOM      7  C   UNL d   1      23.253 -16.450  -0.891  0.00  0.00     0.039 A 
ATOM      8  C   UNL d   1      22.949 -17.815  -0.773  0.00  0.00     0.103 A 
ATOM      9  C   UNL d   1      23.961 -18.732  -0.478  0.00  0.00     0.039 A 
ATOM     10  C   UNL d   1      25.281 -18.290  -0.337  0.00  0.00     0.040 A 
BRANCH   8  11
ATOM     11  N   UNL d   1      21.578 -18.297  -1.014  0.00  0.00    -0.116 N 
ATOM     12  O   UNL d   1      21.425 -19.499  -1.268  0.00  0.00    -0.532 OA
ATOM     13  O   UNL d   1      20.653 -17.475  -0.930  0.00  0.00    -0.532 OA
ENDBRANCH   8  11
ENDBRANCH   4   5
ENDBRANCH   2   4
ENDBRANCH   1   2
BRANCH   1  14
ATOM     14  N   UNL d   1      28.153 -14.780   2.127  0.00  0.00    -0.323 N 
ATOM     15  C   UNL d   1      27.420 -13.813   2.777  0.00  0.00     0.361 C 
ATOM     16  O   UNL d   1      27.024 -12.774   2.251  0.00  0.00    -0.238 OA
ATOM     17  H   UNL d   1      28.807 -15.260   2.742  0.00  0.00     0.165 HD
BRANCH  15  18
ATOM     18  O   UNL d   1      27.033 -14.107   4.041  0.00  0.00    -0.299 OA
BRANCH  18  19
ATOM     19  C   UNL d   1      28.199 -14.528   4.816  0.00  0.00     0.219 C 
BRANCH  19  20
ATOM     20  C   UNL d   1      28.355 -13.645   6.006  0.00  0.00    -0.034 C 
ATOM     21  C   UNL d   1      27.780 -12.368   6.053  0.00  0.00     0.009 C 
ATOM     22  C   UNL d   1      28.161 -11.495   7.064  0.00  0.00     0.001 C 
ATOM     23  C   UNL d   1      29.011 -11.940   8.077  0.00  0.00     0.000 C 
ATOM     24  C   UNL d   1      29.507 -13.243   8.073  0.00  0.00     0.001 C 
ATOM     25  C   UNL d   1      29.170 -14.098   7.042  0.00  0.00     0.009 C 
ENDBRANCH  19  20
ENDBRANCH  18  19
ENDBRANCH  15  18
ENDBRANCH   1  14
BRANCH   1  26
ATOM     26  C   UNL d   1      29.657 -15.737   0.174  0.00  0.00     0.035 C 
BRANCH  26  27
ATOM     27  C   UNL d   1      29.896 -15.750  -1.318  0.00  0.00     0.004 C 
BRANCH  27  28
ATOM     28  C   UNL d   1      29.215 -16.691  -2.254  0.00  0.00     0.020 C 
BRANCH  28  29
ATOM     29  C   UNL d   1      28.741 -15.881  -3.475  0.00  0.00     0.125 C 
BRANCH  29  30
ATOM     30  N   UNL d   1      27.340 -15.594  -3.318  0.00  0.00    -0.337 N 
ATOM     31  C   UNL d   1      26.501 -15.436  -4.389  0.00  0.00     0.360 C 
ATOM     32  O   UNL d   1      26.880 -15.534  -5.550  0.00  0.00    -0.239 OA
ATOM     33  H   UNL d   1      27.001 -15.533  -2.376  0.00  0.00     0.164 HD
BRANCH  31  34
ATOM     34  O   UNL d   1      25.201 -15.157  -4.096  0.00  0.00    -0.299 OA
BRANCH  34  35
ATOM     35  C   UNL d   1      24.825 -14.065  -3.246  0.00  0.00     0.219 C 
BRANCH  35  36
ATOM     36  C   UNL d   1      25.539 -12.810  -3.676  0.00  0.00    -0.034 A 
ATOM     37  C   UNL d   1      26.174 -11.975  -2.745  0.00  0.00     0.009 A 
ATOM     38  C   UNL d   1      26.719 -10.753  -3.150  0.00  0.00     0.001 A 
ATOM     39  C   UNL d   1      26.723 -10.401  -4.498  0.00  0.00     0.000 A 
ATOM     40  C   UNL d   1      26.127 -11.239  -5.435  0.00  0.00     0.001 A 
ATOM     41  C   UNL d   1      25.531 -12.433  -5.027  0.00  0.00     0.009 A 
ENDBRANCH  35  36
ENDBRANCH  34  35
ENDBRANCH  31  34
ENDBRANCH  29  30
ENDBRANCH  28  29
ENDBRANCH  27  28
ENDBRANCH  26  27
ENDBRANCH   1  26
TORSDOF 16
ENDMDL
MODEL 3
REMARK VINA RESULT:    -9.110      2.562      6.487
REMARK INTER + INTRA:         -18.989
REMARK INTER:                 -13.883
REMARK INTRA:                  -5.106
REMARK CONF_INDEPENDENT:        4.773
REMARK UNBOUND:                -5.106
REMARK  16 active torsions:
REMARK  status: ('A' for Active; 'I' for Inactive)
REMARK       I    between atoms: C_2  and  N_3 
REMARK    1  A    between atoms: C_2  and  O_32 
REMARK    2  A    between atoms: N_3  and  C_4 
REMARK    3  A    between atoms: C_4  and  C_5 
REMARK    4  A    between atoms: C_5  and  C_6 
REMARK    5  A    between atoms: C_6  and  C_7 
REMARK    6  A    between atoms: C_8  and  C_7 
REMARK    7  A    between atoms: C_8  and  C_20 
REMARK    8  A    between atoms: C_8  and  N_9 
REMARK       I    between atoms: N_9  and  C_10 
REMARK    9  A    between atoms: C_10  and  O_12 
REMARK   10  A    between atoms: O_12  and  C_13 
REMARK   11  A    between atoms: C_13  and  C_14 
REMARK   12  A    between atoms: C_20  and  O_22 
REMARK   13  A    between atoms: O_22  and  C_23 
REMARK   14  A    between atoms: C_26  and  N_27 
REMARK   15  A    between atoms: O_32  and  C_33 
REMARK   16  A    between atoms: C_33  and  C_34 
ROOT
ATOM      1  C   UNL d   1      29.877 -15.069   0.601  0.00  0.00     0.187 C 
ENDROOT
BRANCH   1   2
ATOM      2  C   UNL d   1      29.561 -14.396   1.964  0.00  0.00     0.287 C 
ATOM      3  O   UNL d   1      30.441 -14.043   2.744  0.00  0.00    -0.263 OA
BRANCH   2   4
ATOM      4  O   UNL d   1      28.179 -14.174   2.166  0.00  0.00    -0.277 OA
BRANCH   4   5
ATOM      5  C   UNL d   1      27.700 -12.838   2.326  0.00  0.00     0.079 A 
ATOM      6  C   UNL d   1      27.107 -12.187   1.236  0.00  0.00     0.040 A 
ATOM      7  C   UNL d   1      26.684 -10.848   1.357  0.00  0.00     0.039 A 
ATOM      8  C   UNL d   1      26.783 -10.195   2.596  0.00  0.00     0.103 A 
ATOM      9  C   UNL d   1      27.394 -10.837   3.676  0.00  0.00     0.039 A 
ATOM     10  C   UNL d   1      27.874 -12.144   3.528  0.00  0.00     0.040 A 
BRANCH   8  11
ATOM     11  N   UNL d   1      26.195  -8.858   2.782  0.00  0.00    -0.116 N 
ATOM     12  O   UNL d   1      26.656  -8.144   3.684  0.00  0.00    -0.532 OA
ATOM     13  O   UNL d   1      25.285  -8.514   2.012  0.00  0.00    -0.532 OA
ENDBRANCH   8  11
ENDBRANCH   4   5
ENDBRANCH   2   4
ENDBRANCH   1   2
BRANCH   1  14
ATOM     14  N   UNL d   1      28.938 -16.234   0.320  0.00  0.00    -0.323 N 
ATOM     15  C   UNL d   1      27.680 -16.157  -0.232  0.00  0.00     0.361 C 
ATOM     16  O   UNL d   1      27.086 -15.104  -0.459  0.00  0.00    -0.238 OA
ATOM     17  H   UNL d   1      29.067 -17.063   0.895  0.00  0.00     0.165 HD
BRANCH  15  18
ATOM     18  O   UNL d   1      27.136 -17.328  -0.642  0.00  0.00    -0.299 OA
BRANCH  18  19
ATOM     19  C   UNL d   1      26.178 -17.791   0.360  0.00  0.00     0.219 C 
BRANCH  19  20
ATOM     20  C   UNL d   1      24.795 -17.699  -0.188  0.00  0.00    -0.034 C 
ATOM     21  C   UNL d   1      24.248 -16.475  -0.599  0.00  0.00     0.009 C 
ATOM     22  C   UNL d   1      22.886 -16.402  -0.860  0.00  0.00     0.001 C 
ATOM     23  C   UNL d   1      22.111 -17.562  -0.828  0.00  0.00     0.000 C 
ATOM     24  C   UNL d   1      22.682 -18.793  -0.507  0.00  0.00     0.001 C 
ATOM     25  C   UNL d   1      24.027 -18.861  -0.197  0.00  0.00     0.009 C 
ENDBRANCH  19  20
ENDBRANCH  18  19
ENDBRANCH  15  18
ENDBRANCH   1  14
BRANCH   1  26
ATOM     26  C   UNL d   1      30.063 -13.993  -0.519  0.00  0.00     0.035 C 
BRANCH  26  27
ATOM     27  C   UNL d   1      30.352 -14.551  -1.892  0.00  0.00     0.004 C 
BRANCH  27  28
ATOM     28  C   UNL d   1      29.432 -14.398  -3.055  0.00  0.00     0.020 C 
BRANCH  28  29
ATOM     29  C   UNL d   1      28.792 -15.770  -3.336  0.00  0.00     0.125 C 
BRANCH  29  30
ATOM     30  N   UNL d   1      27.361 -15.633  -3.264  0.00  0.00    -0.337 N 
ATOM     31  C   UNL d   1      26.597 -15.353  -4.364  0.00  0.00     0.360 C 
ATOM     32  O   UNL d   1      27.072 -15.206  -5.484  0.00  0.00    -0.239 OA
ATOM     33  H   UNL d   1      26.946 -15.774  -2.362  0.00  0.00     0.164 HD
BRANCH  31  34
ATOM     34  O   UNL d   1      25.257 -15.241  -4.151  0.00  0.00    -0.299 OA
BRANCH  34  35
ATOM     35  C   UNL d   1      24.708 -14.331  -3.188  0.00  0.00     0.219 C 
BRANCH  35  36
ATOM     36  C   UNL d   1      25.534 -13.071  -3.144  0.00  0.00    -0.034 A 
ATOM     37  C   UNL d   1      25.531 -12.159  -4.209  0.00  0.00     0.009 A 
ATOM     38  C   UNL d   1      26.399 -11.063  -4.202  0.00  0.00     0.001 A 
ATOM     39  C   UNL d   1      27.204 -10.815  -3.091  0.00  0.00     0.000 A 
ATOM     40  C   UNL d   1      27.187 -11.695  -2.013  0.00  0.00     0.001 A 
ATOM     41  C   UNL d   1      26.364 -12.821  -2.042  0.00  0.00     0.009 A 
ENDBRANCH  35  36
ENDBRANCH  34  35
ENDBRANCH  31  34
ENDBRANCH  29  30
ENDBRANCH  28  29
ENDBRANCH  27  28
ENDBRANCH  26  27
ENDBRANCH   1  26
TORSDOF 16
ENDMDL
MODEL 4
REMARK VINA RESULT:    -8.956      2.897      6.613
REMARK INTER + INTRA:         -18.203
REMARK INTER:                 -13.729
REMARK INTRA:                  -4.474
REMARK CONF_INDEPENDENT:        4.773
REMARK UNBOUND:                -4.474
REMARK  16 active torsions:
REMARK  status: ('A' for Active; 'I' for Inactive)
REMARK       I    between atoms: C_2  and  N_3 
REMARK    1  A    between atoms: C_2  and  O_32 
REMARK    2  A    between atoms: N_3  and  C_4 
REMARK    3  A    between atoms: C_4  and  C_5 
REMARK    4  A    between atoms: C_5  and  C_6 
REMARK    5  A    between atoms: C_6  and  C_7 
REMARK    6  A    between atoms: C_8  and  C_7 
REMARK    7  A    between atoms: C_8  and  C_20 
REMARK    8  A    between atoms: C_8  and  N_9 
REMARK       I    between atoms: N_9  and  C_10 
REMARK    9  A    between atoms: C_10  and  O_12 
REMARK   10  A    between atoms: O_12  and  C_13 
REMARK   11  A    between atoms: C_13  and  C_14 
REMARK   12  A    between atoms: C_20  and  O_22 
REMARK   13  A    between atoms: O_22  and  C_23 
REMARK   14  A    between atoms: C_26  and  N_27 
REMARK   15  A    between atoms: O_32  and  C_33 
REMARK   16  A    between atoms: C_33  and  C_34 
ROOT
ATOM      1  C   UNL d   1      29.663 -14.833  -0.213  0.00  0.00     0.187 C 
ENDROOT
BRANCH   1   2
ATOM      2  C   UNL d   1      28.803 -13.823  -1.021  0.00  0.00     0.287 C 
ATOM      3  O   UNL d   1      29.201 -13.300  -2.057  0.00  0.00    -0.263 OA
BRANCH   2   4
ATOM      4  O   UNL d   1      27.510 -13.639  -0.479  0.00  0.00    -0.277 OA
BRANCH   4   5
ATOM      5  C   UNL d   1      27.202 -12.420   0.200  0.00  0.00     0.079 A 
ATOM      6  C   UNL d   1      27.589 -11.201  -0.372  0.00  0.00     0.040 A 
ATOM      7  C   UNL d   1      27.349  -9.992   0.313  0.00  0.00     0.039 A 
ATOM      8  C   UNL d   1      26.646 -10.006   1.528  0.00  0.00     0.103 A 
ATOM      9  C   UNL d   1      26.279 -11.224   2.107  0.00  0.00     0.039 A 
ATOM     10  C   UNL d   1      26.583 -12.425   1.454  0.00  0.00     0.040 A 
BRANCH   8  11
ATOM     11  N   UNL d   1      26.242  -8.744   2.170  0.00  0.00    -0.116 N 
ATOM     12  O   UNL d   1      26.694  -8.498   3.296  0.00  0.00    -0.532 OA
ATOM     13  O   UNL d   1      25.487  -7.990   1.537  0.00  0.00    -0.532 OA
ENDBRANCH   8  11
ENDBRANCH   4   5
ENDBRANCH   2   4
ENDBRANCH   1   2
BRANCH   1  14
ATOM     14  N   UNL d   1      29.103 -15.055   1.185  0.00  0.00    -0.323 N 
ATOM     15  C   UNL d   1      29.049 -14.129   2.202  0.00  0.00     0.361 C 
ATOM     16  O   UNL d   1      29.572 -13.017   2.155  0.00  0.00    -0.238 OA
ATOM     17  H   UNL d   1      29.108 -16.014   1.523  0.00  0.00     0.165 HD
BRANCH  15  18
ATOM     18  O   UNL d   1      28.270 -14.453   3.261  0.00  0.00    -0.299 OA
BRANCH  18  19
ATOM     19  C   UNL d   1      29.121 -14.811   4.394  0.00  0.00     0.219 C 
BRANCH  19  20
ATOM     20  C   UNL d   1      28.918 -13.835   5.502  0.00  0.00    -0.034 C 
ATOM     21  C   UNL d   1      29.273 -14.140   6.823  0.00  0.00     0.009 C 
ATOM     22  C   UNL d   1      28.836 -13.308   7.846  0.00  0.00     0.001 C 
ATOM     23  C   UNL d   1      28.159 -12.128   7.536  0.00  0.00     0.000 C 
ATOM     24  C   UNL d   1      27.889 -11.786   6.212  0.00  0.00     0.001 C 
ATOM     25  C   UNL d   1      28.278 -12.636   5.195  0.00  0.00     0.009 C 
ENDBRANCH  19  20
ENDBRANCH  18  19
ENDBRANCH  15  18
ENDBRANCH   1  14
BRANCH   1  26
ATOM     26  C   UNL d   1      29.997 -16.093  -1.077  0.00  0.00     0.035 C 
BRANCH  26  27
ATOM     27  C   UNL d   1      29.049 -16.340  -2.228  0.00  0.00     0.004 C 
BRANCH  27  28
ATOM     28  C   UNL d   1      29.462 -16.300  -3.660  0.00  0.00     0.020 C 
BRANCH  28  29
ATOM     29  C   UNL d   1      28.788 -15.077  -4.311  0.00  0.00     0.125 C 
BRANCH  29  30
ATOM     30  N   UNL d   1      27.509 -14.872  -3.685  0.00  0.00    -0.337 N 
ATOM     31  C   UNL d   1      26.329 -15.142  -4.325  0.00  0.00     0.360 C 
ATOM     32  O   UNL d   1      26.279 -15.582  -5.467  0.00  0.00    -0.239 OA
ATOM     33  H   UNL d   1      27.525 -14.535  -2.740  0.00  0.00     0.164 HD
BRANCH  31  34
ATOM     34  O   UNL d   1      25.193 -14.893  -3.619  0.00  0.00    -0.299 OA
BRANCH  34  35
ATOM     35  C   UNL d   1      25.217 -14.547  -2.227  0.00  0.00     0.219 C 
BRANCH  35  36
ATOM     36  C   UNL d   1      25.112 -15.793  -1.386  0.00  0.00    -0.034 A 
ATOM     37  C   UNL d   1      26.237 -16.348  -0.760  0.00  0.00     0.009 A 
ATOM     38  C   UNL d   1      26.140 -17.573  -0.092  0.00  0.00     0.001 A 
ATOM     39  C   UNL d   1      24.904 -18.201   0.041  0.00  0.00     0.000 A 
ATOM     40  C   UNL d   1      23.774 -17.639  -0.546  0.00  0.00     0.001 A 
ATOM     41  C   UNL d   1      23.877 -16.447  -1.263  0.00  0.00     0.009 A 
ENDBRANCH  35  36
ENDBRANCH  34  35
ENDBRANCH  31  34
ENDBRANCH  29  30
ENDBRANCH  28  29
ENDBRANCH  27  28
ENDBRANCH  26  27
ENDBRANCH   1  26
TORSDOF 16
ENDMDL
MODEL 5
REMARK VINA RESULT:    -8.733      3.214      8.136
REMARK INTER + INTRA:         -17.976
REMARK INTER:                 -13.506
REMARK INTRA:                  -4.470
REMARK CONF_INDEPENDENT:        4.773
REMARK UNBOUND:                -4.470
REMARK  16 active torsions:
REMARK  status: ('A' for Active; 'I' for Inactive)
REMARK       I    between atoms: C_2  and  N_3 
REMARK    1  A    between atoms: C_2  and  O_32 
REMARK    2  A    between atoms: N_3  and  C_4 
REMARK    3  A    between atoms: C_4  and  C_5 
REMARK    4  A    between atoms: C_5  and  C_6 
REMARK    5  A    between atoms: C_6  and  C_7 
REMARK    6  A    between atoms: C_8  and  C_7 
REMARK    7  A    between atoms: C_8  and  C_20 
REMARK    8  A    between atoms: C_8  and  N_9 
REMARK       I    between atoms: N_9  and  C_10 
REMARK    9  A    between atoms: C_10  and  O_12 
REMARK   10  A    between atoms: O_12  and  C_13 
REMARK   11  A    between atoms: C_13  and  C_14 
REMARK   12  A    between atoms: C_20  and  O_22 
REMARK   13  A    between atoms: O_22  and  C_23 
REMARK   14  A    between atoms: C_26  and  N_27 
REMARK   15  A    between atoms: O_32  and  C_33 
REMARK   16  A    between atoms: C_33  and  C_34 
ROOT
ATOM      1  C   UNL d   1      28.174 -16.927  -0.313  0.00  0.00     0.187 C 
ENDROOT
BRANCH   1   2
ATOM      2  C   UNL d   1      26.711 -16.921  -0.834  0.00  0.00     0.287 C 
ATOM      3  O   UNL d   1      26.436 -16.810  -2.024  0.00  0.00    -0.263 OA
BRANCH   2   4
ATOM      4  O   UNL d   1      25.758 -17.128   0.191  0.00  0.00    -0.277 OA
BRANCH   4   5
ATOM      5  C   UNL d   1      24.433 -17.534  -0.156  0.00  0.00     0.079 A 
ATOM      6  C   UNL d   1      24.131 -18.901  -0.223  0.00  0.00     0.040 A 
ATOM      7  C   UNL d   1      22.847 -19.322  -0.623  0.00  0.00     0.039 A 
ATOM      8  C   UNL d   1      21.847 -18.369  -0.874  0.00  0.00     0.103 A 
ATOM      9  C   UNL d   1      22.155 -17.006  -0.828  0.00  0.00     0.039 A 
ATOM     10  C   UNL d   1      23.452 -16.597  -0.496  0.00  0.00     0.040 A 
BRANCH   8  11
ATOM     11  N   UNL d   1      20.460 -18.793  -1.129  0.00  0.00    -0.116 N 
ATOM     12  O   UNL d   1      19.555 -17.980  -0.895  0.00  0.00    -0.532 OA
ATOM     13  O   UNL d   1      20.279 -19.932  -1.584  0.00  0.00    -0.532 OA
ENDBRANCH   8  11
ENDBRANCH   4   5
ENDBRANCH   2   4
ENDBRANCH   1   2
BRANCH   1  14
ATOM     14  N   UNL d   1      29.169 -17.185  -1.436  0.00  0.00    -0.323 N 
ATOM     15  C   UNL d   1      29.486 -16.324  -2.462  0.00  0.00     0.361 C 
ATOM     16  O   UNL d   1      28.904 -15.263  -2.682  0.00  0.00    -0.238 OA
ATOM     17  H   UNL d   1      29.336 -18.160  -1.673  0.00  0.00     0.165 HD
BRANCH  15  18
ATOM     18  O   UNL d   1      30.584 -16.642  -3.188  0.00  0.00    -0.299 OA
BRANCH  18  19
ATOM     19  C   UNL d   1      30.892 -18.058  -3.002  0.00  0.00     0.219 C 
BRANCH  19  20
ATOM     20  C   UNL d   1      30.929 -18.743  -4.325  0.00  0.00    -0.034 C 
ATOM     21  C   UNL d   1      30.634 -18.059  -5.513  0.00  0.00     0.009 C 
ATOM     22  C   UNL d   1      30.435 -18.790  -6.677  0.00  0.00     0.001 C 
ATOM     23  C   UNL d   1      30.648 -20.169  -6.674  0.00  0.00     0.000 C 
ATOM     24  C   UNL d   1      31.030 -20.829  -5.507  0.00  0.00     0.001 C 
ATOM     25  C   UNL d   1      31.180 -20.113  -4.335  0.00  0.00     0.009 C 
ENDBRANCH  19  20
ENDBRANCH  18  19
ENDBRANCH  15  18
ENDBRANCH   1  14
BRANCH   1  26
ATOM     26  C   UNL d   1      28.433 -15.704   0.628  0.00  0.00     0.035 C 
BRANCH  26  27
ATOM     27  C   UNL d   1      28.110 -14.359   0.021  0.00  0.00     0.004 C 
BRANCH  27  28
ATOM     28  C   UNL d   1      26.723 -13.831  -0.124  0.00  0.00     0.020 C 
BRANCH  28  29
ATOM     29  C   UNL d   1      26.651 -13.050  -1.449  0.00  0.00     0.125 C 
BRANCH  29  30
ATOM     30  N   UNL d   1      26.298 -13.965  -2.502  0.00  0.00    -0.337 N 
ATOM     31  C   UNL d   1      25.392 -13.645  -3.477  0.00  0.00     0.360 C 
ATOM     32  O   UNL d   1      24.824 -12.560  -3.525  0.00  0.00    -0.239 OA
ATOM     33  H   UNL d   1      26.769 -14.851  -2.498  0.00  0.00     0.164 HD
BRANCH  31  34
ATOM     34  O   UNL d   1      25.146 -14.608  -4.407  0.00  0.00    -0.299 OA
BRANCH  34  35
ATOM     35  C   UNL d   1      26.142 -15.558  -4.808  0.00  0.00     0.219 C 
BRANCH  35  36
ATOM     36  C   UNL d   1      27.335 -14.839  -5.383  0.00  0.00    -0.034 A 
ATOM     37  C   UNL d   1      27.260 -13.494  -5.771  0.00  0.00     0.009 A 
ATOM     38  C   UNL d   1      28.339 -12.885  -6.418  0.00  0.00     0.001 A 
ATOM     39  C   UNL d   1      29.533 -13.581  -6.594  0.00  0.00     0.000 A 
ATOM     40  C   UNL d   1      29.630 -14.906  -6.180  0.00  0.00     0.001 A 
ATOM     41  C   UNL d   1      28.535 -15.535  -5.585  0.00  0.00     0.009 A 
ENDBRANCH  35  36
ENDBRANCH  34  35
ENDBRANCH  31  34
ENDBRANCH  29  30
ENDBRANCH  28  29
ENDBRANCH  27  28
ENDBRANCH  26  27
ENDBRANCH   1  26
TORSDOF 16
ENDMDL
MODEL 6
REMARK VINA RESULT:    -8.223      2.483      6.619
REMARK INTER + INTRA:         -17.817
REMARK INTER:                 -12.996
REMARK INTRA:                  -4.821
REMARK CONF_INDEPENDENT:        4.773
REMARK UNBOUND:                -4.821
REMARK  16 active torsions:
REMARK  status: ('A' for Active; 'I' for Inactive)
REMARK       I    between atoms: C_2  and  N_3 
REMARK    1  A    between atoms: C_2  and  O_32 
REMARK    2  A    between atoms: N_3  and  C_4 
REMARK    3  A    between atoms: C_4  and  C_5 
REMARK    4  A    between atoms: C_5  and  C_6 
REMARK    5  A    between atoms: C_6  and  C_7 
REMARK    6  A    between atoms: C_8  and  C_7 
REMARK    7  A    between atoms: C_8  and  C_20 
REMARK    8  A    between atoms: C_8  and  N_9 
REMARK       I    between atoms: N_9  and  C_10 
REMARK    9  A    between atoms: C_10  and  O_12 
REMARK   10  A    between atoms: O_12  and  C_13 
REMARK   11  A    between atoms: C_13  and  C_14 
REMARK   12  A    between atoms: C_20  and  O_22 
REMARK   13  A    between atoms: O_22  and  C_23 
REMARK   14  A    between atoms: C_26  and  N_27 
REMARK   15  A    between atoms: O_32  and  C_33 
REMARK   16  A    between atoms: C_33  and  C_34 
ROOT
ATOM      1  C   UNL d   1      29.375 -14.253   1.566  0.00  0.00     0.187 C 
ENDROOT
BRANCH   1   2
ATOM      2  C   UNL d   1      28.751 -14.127   2.982  0.00  0.00     0.287 C 
ATOM      3  O   UNL d   1      29.398 -14.316   4.007  0.00  0.00    -0.263 OA
BRANCH   2   4
ATOM      4  O   UNL d   1      27.400 -13.707   2.957  0.00  0.00    -0.277 OA
BRANCH   4   5
ATOM      5  C   UNL d   1      27.101 -12.312   2.901  0.00  0.00     0.079 A 
ATOM      6  C   UNL d   1      27.569 -11.469   3.918  0.00  0.00     0.040 A 
ATOM      7  C   UNL d   1      27.232 -10.100   3.912  0.00  0.00     0.039 A 
ATOM      8  C   UNL d   1      26.497  -9.568   2.842  0.00  0.00     0.103 A 
ATOM      9  C   UNL d   1      26.013 -10.412   1.839  0.00  0.00     0.039 A 
ATOM     10  C   UNL d   1      26.294 -11.783   1.888  0.00  0.00     0.040 A 
BRANCH   8  11
ATOM     11  N   UNL d   1      26.280  -8.115   2.736  0.00  0.00    -0.116 N 
ATOM     12  O   UNL d   1      25.586  -7.701   1.798  0.00  0.00    -0.532 OA
ATOM     13  O   UNL d   1      26.788  -7.390   3.606  0.00  0.00    -0.532 OA
ENDBRANCH   8  11
ENDBRANCH   4   5
ENDBRANCH   2   4
ENDBRANCH   1   2
BRANCH   1  14
ATOM     14  N   UNL d   1      28.848 -15.474   0.826  0.00  0.00    -0.323 N 
ATOM     15  C   UNL d   1      27.557 -15.673   0.391  0.00  0.00     0.361 C 
ATOM     16  O   UNL d   1      26.614 -14.932   0.658  0.00  0.00    -0.238 OA
ATOM     17  H   UNL d   1      29.352 -16.344   0.979  0.00  0.00     0.165 HD
BRANCH  15  18
ATOM     18  O   UNL d   1      27.373 -16.697  -0.476  0.00  0.00    -0.299 OA
BRANCH  18  19
ATOM     19  C   UNL d   1      26.575 -17.738   0.170  0.00  0.00     0.219 C 
BRANCH  19  20
ATOM     20  C   UNL d   1      25.159 -17.637  -0.282  0.00  0.00    -0.034 C 
ATOM     21  C   UNL d   1      24.620 -16.428  -0.745  0.00  0.00     0.009 C 
ATOM     22  C   UNL d   1      23.245 -16.325  -0.911  0.00  0.00     0.001 C 
ATOM     23  C   UNL d   1      22.440 -17.451  -0.733  0.00  0.00     0.000 C 
ATOM     24  C   UNL d   1      22.996 -18.674  -0.360  0.00  0.00     0.001 C 
ATOM     25  C   UNL d   1      24.357 -18.768  -0.144  0.00  0.00     0.009 C 
ENDBRANCH  19  20
ENDBRANCH  18  19
ENDBRANCH  15  18
ENDBRANCH   1  14
BRANCH   1  26
ATOM     26  C   UNL d   1      29.345 -12.876   0.823  0.00  0.00     0.035 C 
BRANCH  26  27
ATOM     27  C   UNL d   1      29.764 -12.931  -0.628  0.00  0.00     0.004 C 
BRANCH  27  28
ATOM     28  C   UNL d   1      28.807 -12.835  -1.767  0.00  0.00     0.020 C 
BRANCH  28  29
ATOM     29  C   UNL d   1      27.380 -12.856  -1.187  0.00  0.00     0.125 C 
BRANCH  29  30
ATOM     30  N   UNL d   1      26.635 -13.899  -1.841  0.00  0.00    -0.337 N 
ATOM     31  C   UNL d   1      25.806 -13.653  -2.902  0.00  0.00     0.360 C 
ATOM     32  O   UNL d   1      25.645 -12.533  -3.373  0.00  0.00    -0.239 OA
ATOM     33  H   UNL d   1      26.770 -14.829  -1.489  0.00  0.00     0.164 HD
BRANCH  31  34
ATOM     34  O   UNL d   1      25.156 -14.731  -3.419  0.00  0.00    -0.299 OA
BRANCH  34  35
ATOM     35  C   UNL d   1      25.696 -15.506  -4.498  0.00  0.00     0.219 C 
BRANCH  35  36
ATOM     36  C   UNL d   1      27.161 -15.200  -4.667  0.00  0.00    -0.034 A 
ATOM     37  C   UNL d   1      27.631 -14.465  -5.765  0.00  0.00     0.009 A 
ATOM     38  C   UNL d   1      29.005 -14.302  -5.970  0.00  0.00     0.001 A 
ATOM     39  C   UNL d   1      29.914 -14.784  -5.030  0.00  0.00     0.000 A 
ATOM     40  C   UNL d   1      29.455 -15.484  -3.917  0.00  0.00     0.001 A 
ATOM     41  C   UNL d   1      28.088 -15.698  -3.741  0.00  0.00     0.009 A 
ENDBRANCH  35  36
ENDBRANCH  34  35
ENDBRANCH  31  34
ENDBRANCH  29  30
ENDBRANCH  28  29
ENDBRANCH  27  28
ENDBRANCH  26  27
ENDBRANCH   1  26
TORSDOF 16
ENDMDL
MODEL 7
REMARK VINA RESULT:    -8.213      2.342      6.705
REMARK INTER + INTRA:         -17.973
REMARK INTER:                 -12.986
REMARK INTRA:                  -4.987
REMARK CONF_INDEPENDENT:        4.773
REMARK UNBOUND:                -4.987
REMARK  16 active torsions:
REMARK  status: ('A' for Active; 'I' for Inactive)
REMARK       I    between atoms: C_2  and  N_3 
REMARK    1  A    between atoms: C_2  and  O_32 
REMARK    2  A    between atoms: N_3  and  C_4 
REMARK    3  A    between atoms: C_4  and  C_5 
REMARK    4  A    between atoms: C_5  and  C_6 
REMARK    5  A    between atoms: C_6  and  C_7 
REMARK    6  A    between atoms: C_8  and  C_7 
REMARK    7  A    between atoms: C_8  and  C_20 
REMARK    8  A    between atoms: C_8  and  N_9 
REMARK       I    between atoms: N_9  and  C_10 
REMARK    9  A    between atoms: C_10  and  O_12 
REMARK   10  A    between atoms: O_12  and  C_13 
REMARK   11  A    between atoms: C_13  and  C_14 
REMARK   12  A    between atoms: C_20  and  O_22 
REMARK   13  A    between atoms: O_22  and  C_23 
REMARK   14  A    between atoms: C_26  and  N_27 
REMARK   15  A    between atoms: O_32  and  C_33 
REMARK   16  A    between atoms: C_33  and  C_34 
ROOT
ATOM      1  C   UNL d   1      27.001 -12.755  -3.540  0.00  0.00     0.187 C 
ENDROOT
BRANCH   1   2
ATOM      2  C   UNL d   1      28.173 -12.421  -2.577  0.00  0.00     0.287 C 
ATOM      3  O   UNL d   1      29.223 -11.921  -2.967  0.00  0.00    -0.263 OA
BRANCH   2   4
ATOM      4  O   UNL d   1      27.869 -12.683  -1.221  0.00  0.00    -0.277 OA
BRANCH   4   5
ATOM      5  C   UNL d   1      27.443 -11.611  -0.378  0.00  0.00     0.079 A 
ATOM      6  C   UNL d   1      27.411 -10.307  -0.891  0.00  0.00     0.040 A 
ATOM      7  C   UNL d   1      27.053  -9.229  -0.057  0.00  0.00     0.039 A 
ATOM      8  C   UNL d   1      26.650  -9.473   1.265  0.00  0.00     0.103 A 
ATOM      9  C   UNL d   1      26.704 -10.771   1.782  0.00  0.00     0.039 A 
ATOM     10  C   UNL d   1      27.126 -11.828   0.967  0.00  0.00     0.040 A 
BRANCH   8  11
ATOM     11  N   UNL d   1      26.116  -8.381   2.096  0.00  0.00    -0.116 N 
ATOM     12  O   UNL d   1      25.510  -7.464   1.524  0.00  0.00    -0.532 OA
ATOM     13  O   UNL d   1      26.284  -8.453   3.322  0.00  0.00    -0.532 OA
ENDBRANCH   8  11
ENDBRANCH   4   5
ENDBRANCH   2   4
ENDBRANCH   1   2
BRANCH   1  14
ATOM     14  N   UNL d   1      25.857 -13.446  -2.811  0.00  0.00    -0.323 N 
ATOM     15  C   UNL d   1      24.788 -14.092  -3.390  0.00  0.00     0.361 C 
ATOM     16  O   UNL d   1      24.547 -14.087  -4.596  0.00  0.00    -0.238 OA
ATOM     17  H   UNL d   1      25.653 -13.109  -1.873  0.00  0.00     0.165 HD
BRANCH  15  18
ATOM     18  O   UNL d   1      24.040 -14.864  -2.566  0.00  0.00    -0.299 OA
BRANCH  18  19
ATOM     19  C   UNL d   1      24.921 -15.574  -1.640  0.00  0.00     0.219 C 
BRANCH  19  20
ATOM     20  C   UNL d   1      24.172 -16.686  -0.989  0.00  0.00    -0.034 C 
ATOM     21  C   UNL d   1      24.822 -17.842  -0.536  0.00  0.00     0.009 C 
ATOM     22  C   UNL d   1      24.059 -18.944  -0.172  0.00  0.00     0.001 C 
ATOM     23  C   UNL d   1      22.667 -18.844  -0.149  0.00  0.00     0.000 C 
ATOM     24  C   UNL d   1      22.030 -17.659  -0.515  0.00  0.00     0.001 C 
ATOM     25  C   UNL d   1      22.784 -16.577  -0.925  0.00  0.00     0.009 C 
ENDBRANCH  19  20
ENDBRANCH  18  19
ENDBRANCH  15  18
ENDBRANCH   1  14
BRANCH   1  26
ATOM     26  C   UNL d   1      26.657 -11.525  -4.443  0.00  0.00     0.035 C 
BRANCH  26  27
ATOM     27  C   UNL d   1      27.561 -11.347  -5.640  0.00  0.00     0.004 C 
BRANCH  27  28
ATOM     28  C   UNL d   1      27.737 -12.379  -6.702  0.00  0.00     0.020 C 
BRANCH  28  29
ATOM     29  C   UNL d   1      29.098 -13.062  -6.476  0.00  0.00     0.125 C 
BRANCH  29  30
ATOM     30  N   UNL d   1      29.029 -13.832  -5.262  0.00  0.00    -0.337 N 
ATOM     31  C   UNL d   1      28.355 -15.021  -5.187  0.00  0.00     0.360 C 
ATOM     32  O   UNL d   1      27.770 -15.514  -6.145  0.00  0.00    -0.239 OA
ATOM     33  H   UNL d   1      29.521 -13.460  -4.471  0.00  0.00     0.164 HD
BRANCH  31  34
ATOM     34  O   UNL d   1      28.362 -15.640  -3.975  0.00  0.00    -0.299 OA
BRANCH  34  35
ATOM     35  C   UNL d   1      29.535 -15.694  -3.150  0.00  0.00     0.219 C 
BRANCH  35  36
ATOM     36  C   UNL d   1      29.143 -15.626  -1.697  0.00  0.00    -0.034 A 
ATOM     37  C   UNL d   1      27.974 -16.241  -1.226  0.00  0.00     0.009 A 
ATOM     38  C   UNL d   1      27.565 -16.057   0.099  0.00  0.00     0.001 A 
ATOM     39  C   UNL d   1      28.368 -15.344   0.986  0.00  0.00     0.000 A 
ATOM     40  C   UNL d   1      29.549 -14.760   0.538  0.00  0.00     0.001 A 
ATOM     41  C   UNL d   1      29.931 -14.892  -0.798  0.00  0.00     0.009 A 
ENDBRANCH  35  36
ENDBRANCH  34  35
ENDBRANCH  31  34
ENDBRANCH  29  30
ENDBRANCH  28  29
ENDBRANCH  27  28
ENDBRANCH  26  27
ENDBRANCH   1  26
TORSDOF 16
ENDMDL
MODEL 8
REMARK VINA RESULT:    -8.162      2.685      6.756
REMARK INTER + INTRA:         -18.354
REMARK INTER:                 -12.935
REMARK INTRA:                  -5.419
REMARK CONF_INDEPENDENT:        4.773
REMARK UNBOUND:                -5.419
REMARK  16 active torsions:
REMARK  status: ('A' for Active; 'I' for Inactive)
REMARK       I    between atoms: C_2  and  N_3 
REMARK    1  A    between atoms: C_2  and  O_32 
REMARK    2  A    between atoms: N_3  and  C_4 
REMARK    3  A    between atoms: C_4  and  C_5 
REMARK    4  A    between atoms: C_5  and  C_6 
REMARK    5  A    between atoms: C_6  and  C_7 
REMARK    6  A    between atoms: C_8  and  C_7 
REMARK    7  A    between atoms: C_8  and  C_20 
REMARK    8  A    between atoms: C_8  and  N_9 
REMARK       I    between atoms: N_9  and  C_10 
REMARK    9  A    between atoms: C_10  and  O_12 
REMARK   10  A    between atoms: O_12  and  C_13 
REMARK   11  A    between atoms: C_13  and  C_14 
REMARK   12  A    between atoms: C_20  and  O_22 
REMARK   13  A    between atoms: O_22  and  C_23 
REMARK   14  A    between atoms: C_26  and  N_27 
REMARK   15  A    between atoms: O_32  and  C_33 
REMARK   16  A    between atoms: C_33  and  C_34 
ROOT
ATOM      1  C   UNL d   1      29.846 -14.839  -1.196  0.00  0.00     0.187 C 
ENDROOT
BRANCH   1   2
ATOM      2  C   UNL d   1      28.865 -13.675  -1.507  0.00  0.00     0.287 C 
ATOM      3  O   UNL d   1      29.086 -12.842  -2.380  0.00  0.00    -0.263 OA
BRANCH   2   4
ATOM      4  O   UNL d   1      27.681 -13.728  -0.735  0.00  0.00    -0.277 OA
BRANCH   4   5
ATOM      5  C   UNL d   1      27.317 -12.605   0.069  0.00  0.00     0.079 A 
ATOM      6  C   UNL d   1      27.706 -11.319  -0.333  0.00  0.00     0.040 A 
ATOM      7  C   UNL d   1      27.409 -10.206   0.478  0.00  0.00     0.039 A 
ATOM      8  C   UNL d   1      26.651 -10.376   1.647  0.00  0.00     0.103 A 
ATOM      9  C   UNL d   1      26.282 -11.660   2.058  0.00  0.00     0.039 A 
ATOM     10  C   UNL d   1      26.640 -12.769   1.282  0.00  0.00     0.040 A 
BRANCH   8  11
ATOM     11  N   UNL d   1      26.192  -9.207   2.415  0.00  0.00    -0.116 N 
ATOM     12  O   UNL d   1      25.510  -8.358   1.823  0.00  0.00    -0.532 OA
ATOM     13  O   UNL d   1      26.495  -9.148   3.616  0.00  0.00    -0.532 OA
ENDBRANCH   8  11
ENDBRANCH   4   5
ENDBRANCH   2   4
ENDBRANCH   1   2
BRANCH   1  14
ATOM     14  N   UNL d   1      29.130 -16.020  -0.558  0.00  0.00    -0.323 N 
ATOM     15  C   UNL d   1      27.987 -16.631  -1.019  0.00  0.00     0.361 C 
ATOM     16  O   UNL d   1      27.308 -16.215  -1.956  0.00  0.00    -0.238 OA
ATOM     17  H   UNL d   1      29.266 -16.139   0.443  0.00  0.00     0.165 HD
BRANCH  15  18
ATOM     18  O   UNL d   1      27.679 -17.824  -0.455  0.00  0.00    -0.299 OA
BRANCH  18  19
ATOM     19  C   UNL d   1      26.653 -17.624   0.566  0.00  0.00     0.219 C 
BRANCH  19  20
ATOM     20  C   UNL d   1      25.309 -17.570  -0.078  0.00  0.00    -0.034 C 
ATOM     21  C   UNL d   1      24.755 -16.361  -0.520  0.00  0.00     0.009 C 
ATOM     22  C   UNL d   1      23.413 -16.327  -0.876  0.00  0.00     0.001 C 
ATOM     23  C   UNL d   1      22.674 -17.511  -0.903  0.00  0.00     0.000 C 
ATOM     24  C   UNL d   1      23.259 -18.726  -0.548  0.00  0.00     0.001 C 
ATOM     25  C   UNL d   1      24.579 -18.756  -0.145  0.00  0.00     0.009 C 
ENDBRANCH  19  20
ENDBRANCH  18  19
ENDBRANCH  15  18
ENDBRANCH   1  14
BRANCH   1  26
ATOM     26  C   UNL d   1      30.776 -15.121  -2.422  0.00  0.00     0.035 C 
BRANCH  26  27
ATOM     27  C   UNL d   1      30.411 -16.348  -3.224  0.00  0.00     0.004 C 
BRANCH  27  28
ATOM     28  C   UNL d   1      29.471 -16.327  -4.381  0.00  0.00     0.020 C 
BRANCH  28  29
ATOM     29  C   UNL d   1      28.998 -14.874  -4.579  0.00  0.00     0.125 C 
BRANCH  29  30
ATOM     30  N   UNL d   1      27.695 -14.731  -3.983  0.00  0.00    -0.337 N 
ATOM     31  C   UNL d   1      26.548 -15.092  -4.637  0.00  0.00     0.360 C 
ATOM     32  O   UNL d   1      26.548 -15.565  -5.767  0.00  0.00    -0.239 OA
ATOM     33  H   UNL d   1      27.672 -14.369  -3.048  0.00  0.00     0.164 HD
BRANCH  31  34
ATOM     34  O   UNL d   1      25.384 -14.894  -3.960  0.00  0.00    -0.299 OA
BRANCH  34  35
ATOM     35  C   UNL d   1      24.602 -13.701  -4.114  0.00  0.00     0.219 C 
BRANCH  35  36
ATOM     36  C   UNL d   1      25.510 -12.509  -4.275  0.00  0.00    -0.034 A 
ATOM     37  C   UNL d   1      25.972 -12.109  -5.537  0.00  0.00     0.009 A 
ATOM     38  C   UNL d   1      26.913 -11.081  -5.651  0.00  0.00     0.001 A 
ATOM     39  C   UNL d   1      27.323 -10.380  -4.518  0.00  0.00     0.000 A 
ATOM     40  C   UNL d   1      26.842 -10.746  -3.265  0.00  0.00     0.001 A 
ATOM     41  C   UNL d   1      25.947 -11.809  -3.142  0.00  0.00     0.009 A 
ENDBRANCH  35  36
ENDBRANCH  34  35
ENDBRANCH  31  34
ENDBRANCH  29  30
ENDBRANCH  28  29
ENDBRANCH  27  28
ENDBRANCH  26  27
ENDBRANCH   1  26
TORSDOF 16
ENDMDL
MODEL 9
REMARK VINA RESULT:    -8.122      2.452      6.543
REMARK INTER + INTRA:         -17.589
REMARK INTER:                 -12.894
REMARK INTRA:                  -4.694
REMARK CONF_INDEPENDENT:        4.773
REMARK UNBOUND:                -4.694
REMARK  16 active torsions:
REMARK  status: ('A' for Active; 'I' for Inactive)
REMARK       I    between atoms: C_2  and  N_3 
REMARK    1  A    between atoms: C_2  and  O_32 
REMARK    2  A    between atoms: N_3  and  C_4 
REMARK    3  A    between atoms: C_4  and  C_5 
REMARK    4  A    between atoms: C_5  and  C_6 
REMARK    5  A    between atoms: C_6  and  C_7 
REMARK    6  A    between atoms: C_8  and  C_7 
REMARK    7  A    between atoms: C_8  and  C_20 
REMARK    8  A    between atoms: C_8  and  N_9 
REMARK       I    between atoms: N_9  and  C_10 
REMARK    9  A    between atoms: C_10  and  O_12 
REMARK   10  A    between atoms: O_12  and  C_13 
REMARK   11  A    between atoms: C_13  and  C_14 
REMARK   12  A    between atoms: C_20  and  O_22 
REMARK   13  A    between atoms: O_22  and  C_23 
REMARK   14  A    between atoms: C_26  and  N_27 
REMARK   15  A    between atoms: O_32  and  C_33 
REMARK   16  A    between atoms: C_33  and  C_34 
ROOT
ATOM      1  C   UNL d   1      27.273 -12.881  -3.876  0.00  0.00     0.187 C 
ENDROOT
BRANCH   1   2
ATOM      2  C   UNL d   1      26.388 -11.657  -3.516  0.00  0.00     0.287 C 
ATOM      3  O   UNL d   1      25.162 -11.711  -3.503  0.00  0.00    -0.263 OA
BRANCH   2   4
ATOM      4  O   UNL d   1      27.141 -10.519  -3.141  0.00  0.00    -0.277 OA
BRANCH   4   5
ATOM      5  C   UNL d   1      26.848  -9.860  -1.909  0.00  0.00     0.079 A 
ATOM      6  C   UNL d   1      25.974  -8.764  -1.909  0.00  0.00     0.040 A 
ATOM      7  C   UNL d   1      25.721  -8.062  -0.713  0.00  0.00     0.039 A 
ATOM      8  C   UNL d   1      26.281  -8.513   0.492  0.00  0.00     0.103 A 
ATOM      9  C   UNL d   1      27.169  -9.593   0.488  0.00  0.00     0.039 A 
ATOM     10  C   UNL d   1      27.469 -10.242  -0.715  0.00  0.00     0.040 A 
BRANCH   8  11
ATOM     11  N   UNL d   1      25.895  -7.894   1.771  0.00  0.00    -0.116 N 
ATOM     12  O   UNL d   1      26.277  -8.440   2.816  0.00  0.00    -0.532 OA
ATOM     13  O   UNL d   1      25.227  -6.850   1.730  0.00  0.00    -0.532 OA
ENDBRANCH   8  11
ENDBRANCH   4   5
ENDBRANCH   2   4
ENDBRANCH   1   2
BRANCH   1  14
ATOM     14  N   UNL d   1      26.772 -14.152  -3.207  0.00  0.00    -0.323 N 
ATOM     15  C   UNL d   1      25.616 -14.835  -3.508  0.00  0.00     0.361 C 
ATOM     16  O   UNL d   1      24.756 -14.431  -4.288  0.00  0.00    -0.238 OA
ATOM     17  H   UNL d   1      27.088 -14.311  -2.253  0.00  0.00     0.165 HD
BRANCH  15  18
ATOM     18  O   UNL d   1      25.504 -16.078  -2.981  0.00  0.00    -0.299 OA
BRANCH  18  19
ATOM     19  C   UNL d   1      25.571 -15.991  -1.523  0.00  0.00     0.219 C 
BRANCH  19  20
ATOM     20  C   UNL d   1      24.506 -16.842  -0.921  0.00  0.00    -0.034 C 
ATOM     21  C   UNL d   1      24.768 -18.148  -0.486  0.00  0.00     0.009 C 
ATOM     22  C   UNL d   1      23.701 -18.979  -0.170  0.00  0.00     0.001 C 
ATOM     23  C   UNL d   1      22.402 -18.469  -0.176  0.00  0.00     0.000 C 
ATOM     24  C   UNL d   1      22.158 -17.141  -0.523  0.00  0.00     0.001 C 
ATOM     25  C   UNL d   1      23.212 -16.326  -0.886  0.00  0.00     0.009 C 
ENDBRANCH  19  20
ENDBRANCH  18  19
ENDBRANCH  15  18
ENDBRANCH   1  14
BRANCH   1  26
ATOM     26  C   UNL d   1      27.558 -12.926  -5.414  0.00  0.00     0.035 C 
BRANCH  26  27
ATOM     27  C   UNL d   1      28.238 -14.186  -5.895  0.00  0.00     0.004 C 
BRANCH  27  28
ATOM     28  C   UNL d   1      29.521 -14.697  -5.332  0.00  0.00     0.020 C 
BRANCH  28  29
ATOM     29  C   UNL d   1      29.279 -16.135  -4.836  0.00  0.00     0.125 C 
BRANCH  29  30
ATOM     30  N   UNL d   1      28.565 -16.075  -3.588  0.00  0.00    -0.337 N 
ATOM     31  C   UNL d   1      29.183 -15.777  -2.404  0.00  0.00     0.360 C 
ATOM     32  O   UNL d   1      30.382 -15.535  -2.324  0.00  0.00    -0.239 OA
ATOM     33  H   UNL d   1      27.577 -16.246  -3.633  0.00  0.00     0.164 HD
BRANCH  31  34
ATOM     34  O   UNL d   1      28.389 -15.764  -1.299  0.00  0.00    -0.299 OA
BRANCH  34  35
ATOM     35  C   UNL d   1      28.925 -15.685   0.029  0.00  0.00     0.219 C 
BRANCH  35  36
ATOM     36  C   UNL d   1      28.180 -14.644   0.823  0.00  0.00    -0.034 A 
ATOM     37  C   UNL d   1      28.432 -14.449   2.189  0.00  0.00     0.009 A 
ATOM     38  C   UNL d   1      27.641 -13.569   2.933  0.00  0.00     0.001 A 
ATOM     39  C   UNL d   1      26.661 -12.805   2.303  0.00  0.00     0.000 A 
ATOM     40  C   UNL d   1      26.427 -12.965   0.940  0.00  0.00     0.001 A 
ATOM     41  C   UNL d   1      27.176 -13.885   0.205  0.00  0.00     0.009 A 
ENDBRANCH  35  36
ENDBRANCH  34  35
ENDBRANCH  31  34
ENDBRANCH  29  30
ENDBRANCH  28  29
ENDBRANCH  27  28
ENDBRANCH  26  27
ENDBRANCH   1  26
TORSDOF 16
ENDMDL
