MODEL 1
REMARK VINA RESULT:    -7.878      0.000      0.000
REMARK INTER + INTRA:         -11.154
REMARK INTER:                 -10.563
REMARK INTRA:                  -0.591
REMARK CONF_INDEPENDENT:        2.685
REMARK UNBOUND:                -0.591
REMARK  9 active torsions:
REMARK  status: ('A' for Active; 'I' for Inactive)
REMARK    1  A    between atoms: C_2  and  C_3 
REMARK       I    between atoms: C_2  and  N_12 
REMARK    2  A    between atoms: C_3  and  C_4 
REMARK    3  A    between atoms: C_4  and  C_5 
REMARK    4  A    between atoms: C_5  and  N_6 
REMARK       I    between atoms: N_6  and  C_7 
REMARK    5  A    between atoms: C_7  and  C_9 
REMARK    6  A    between atoms: N_12  and  C_13 
REMARK    7  A    between atoms: C_13  and  C_14 
REMARK    8  A    between atoms: C_14  and  O_15 
REMARK    9  A    between atoms: C_14  and  C_16 
ROOT
ATOM      1  O   UNL d   1      25.588 -18.493  -0.195  0.00  0.00    -0.274 OA
ATOM      2  C   UNL d   1      25.241 -17.393  -0.614  0.00  0.00     0.217 C 
ATOM      3  N   UNL d   1      26.170 -16.573  -1.194  0.00  0.00    -0.359 N 
ATOM      4  H   UNL d   1      27.115 -16.937  -1.256  0.00  0.00     0.162 HD
ENDROOT
BRANCH   2   5
ATOM      5  C   UNL d   1      23.802 -16.882  -0.522  0.00  0.00     0.104 C 
BRANCH   5   6
ATOM      6  C   UNL d   1      22.818 -17.849  -1.189  0.00  0.00     0.029 C 
BRANCH   6   7
ATOM      7  C   UNL d   1      22.761 -19.201  -0.475  0.00  0.00     0.123 C 
BRANCH   7   8
ATOM      8  N   UNL d   1      21.491 -19.444   0.190  0.00  0.00    -0.361 N 
ATOM      9  C   UNL d   1      20.325 -19.664  -0.519  0.00  0.00     0.221 C 
ATOM     10  O   UNL d   1      20.247 -19.700  -1.743  0.00  0.00    -0.273 OA
ATOM     11  H   UNL d   1      21.447 -19.408   1.201  0.00  0.00     0.162 HD
BRANCH   9  12
ATOM     12  C   UNL d   1      19.119 -19.819   0.341  0.00  0.00     0.078 A 
ATOM     13  C   UNL d   1      18.412 -21.095   0.753  0.00  0.00     0.015 A 
ATOM     14  C   UNL d   1      19.367 -20.450   1.702  0.00  0.00     0.015 A 
ENDBRANCH   9  12
ENDBRANCH   7   8
ENDBRANCH   6   7
ENDBRANCH   5   6
ENDBRANCH   2   5
BRANCH   3  15
ATOM     15  C   UNL d   1      25.897 -15.262  -1.711  0.00  0.00     0.154 C 
BRANCH  15  16
ATOM     16  C   UNL d   1      25.656 -15.202  -3.228  0.00  0.00     0.140 C 
BRANCH  16  17
ATOM     17  O   UNL d   1      24.409 -14.550  -3.496  0.00  0.00    -0.394 OA
ATOM     18  H   UNL d   1      23.769 -14.832  -2.819  0.00  0.00     0.210 HD
ENDBRANCH  16  17
BRANCH  16  19
ATOM     19  C   UNL d   1      26.790 -14.449  -3.974  0.00  0.00     0.016 C 
ATOM     20  C   UNL d   1      27.258 -15.199  -5.235  0.00  0.00     0.007 C 
ATOM     21  C   UNL d   1      28.298 -14.450  -6.038  0.00  0.00     0.000 C 
ATOM     22  C   UNL d   1      27.780 -13.073  -6.415  0.00  0.00     0.000 C 
ATOM     23  C   UNL d   1      27.377 -12.288  -5.171  0.00  0.00     0.000 C 
ATOM     24  C   UNL d   1      26.324 -13.031  -4.351  0.00  0.00     0.007 C 
ENDBRANCH  16  19
ENDBRANCH  15  16
ENDBRANCH   3  15
TORSDOF 9
ENDMDL
MODEL 2
REMARK VINA RESULT:    -7.784      1.598      2.235
REMARK INTER + INTRA:         -11.220
REMARK INTER:                 -10.469
REMARK INTRA:                  -0.751
REMARK CONF_INDEPENDENT:        2.685
REMARK UNBOUND:                -0.751
REMARK  9 active torsions:
REMARK  status: ('A' for Active; 'I' for Inactive)
REMARK    1  A    between atoms: C_2  and  C_3 
REMARK       I    between atoms: C_2  and  N_12 
REMARK    2  A    between atoms: C_3  and  C_4 
REMARK    3  A    between atoms: C_4  and  C_5 
REMARK    4  A    between atoms: C_5  and  N_6 
REMARK       I    between atoms: N_6  and  C_7 
REMARK    5  A    between atoms: C_7  and  C_9 
REMARK    6  A    between atoms: N_12  and  C_13 
REMARK    7  A    between atoms: C_13  and  C_14 
REMARK    8  A    between atoms: C_14  and  O_15 
REMARK    9  A    between atoms: C_14  and  C_16 
ROOT
ATOM      1  O   UNL d   1      26.253 -18.566   1.519  0.00  0.00    -0.274 OA
ATOM      2  C   UNL d   1      26.367 -17.993   0.439  0.00  0.00     0.217 C 
ATOM      3  N   UNL d   1      27.609 -17.612   0.010  0.00  0.00    -0.359 N 
ATOM      4  H   UNL d   1      28.386 -17.843   0.620  0.00  0.00     0.162 HD
ENDROOT
BRANCH   2   5
ATOM      5  C   UNL d   1      25.175 -17.676  -0.466  0.00  0.00     0.104 C 
BRANCH   5   6
ATOM      6  C   UNL d   1      23.989 -18.602  -0.179  0.00  0.00     0.029 C 
BRANCH   6   7
ATOM      7  C   UNL d   1      22.702 -18.120  -0.851  0.00  0.00     0.123 C 
BRANCH   7   8
ATOM      8  N   UNL d   1      21.500 -18.527  -0.143  0.00  0.00    -0.361 N 
ATOM      9  C   UNL d   1      20.515 -19.283  -0.750  0.00  0.00     0.221 C 
ATOM     10  O   UNL d   1      20.562 -19.696  -1.904  0.00  0.00    -0.273 OA
ATOM     11  H   UNL d   1      21.356 -18.213   0.810  0.00  0.00     0.162 HD
BRANCH   9  12
ATOM     12  C   UNL d   1      19.330 -19.537   0.118  0.00  0.00     0.078 A 
ATOM     13  C   UNL d   1      18.764 -20.865   0.578  0.00  0.00     0.015 A 
ATOM     14  C   UNL d   1      19.643 -20.088   1.501  0.00  0.00     0.015 A 
ENDBRANCH   9  12
ENDBRANCH   7   8
ENDBRANCH   6   7
ENDBRANCH   5   6
ENDBRANCH   2   5
BRANCH   3  15
ATOM     15  C   UNL d   1      27.876 -16.926  -1.222  0.00  0.00     0.154 C 
BRANCH  15  16
ATOM     16  C   UNL d   1      27.347 -15.485  -1.291  0.00  0.00     0.140 C 
BRANCH  16  17
ATOM     17  O   UNL d   1      28.443 -14.563  -1.268  0.00  0.00    -0.394 OA
ATOM     18  H   UNL d   1      29.229 -15.037  -0.944  0.00  0.00     0.210 HD
ENDBRANCH  16  17
BRANCH  16  19
ATOM     19  C   UNL d   1      26.498 -15.231  -2.565  0.00  0.00     0.016 C 
ATOM     20  C   UNL d   1      25.815 -13.851  -2.546  0.00  0.00     0.007 C 
ATOM     21  C   UNL d   1      25.055 -13.530  -3.814  0.00  0.00     0.000 C 
ATOM     22  C   UNL d   1      25.973 -13.639  -5.019  0.00  0.00     0.000 C 
ATOM     23  C   UNL d   1      26.605 -15.025  -5.094  0.00  0.00     0.000 C 
ATOM     24  C   UNL d   1      27.379 -15.362  -3.820  0.00  0.00     0.007 C 
ENDBRANCH  16  19
ENDBRANCH  15  16
ENDBRANCH   3  15
TORSDOF 9
ENDMDL
MODEL 3
REMARK VINA RESULT:    -7.661      1.207      1.979
REMARK INTER + INTRA:         -11.014
REMARK INTER:                 -10.346
REMARK INTRA:                  -0.668
REMARK CONF_INDEPENDENT:        2.685
REMARK UNBOUND:                -0.668
REMARK  9 active torsions:
REMARK  status: ('A' for Active; 'I' for Inactive)
REMARK    1  A    between atoms: C_2  and  C_3 
REMARK       I    between atoms: C_2  and  N_12 
REMARK    2  A    between atoms: C_3  and  C_4 
REMARK    3  A    between atoms: C_4  and  C_5 
REMARK    4  A    between atoms: C_5  and  N_6 
REMARK       I    between atoms: N_6  and  C_7 
REMARK    5  A    between atoms: C_7  and  C_9 
REMARK    6  A    between atoms: N_12  and  C_13 
REMARK    7  A    between atoms: C_13  and  C_14 
REMARK    8  A    between atoms: C_14  and  O_15 
REMARK    9  A    between atoms: C_14  and  C_16 
ROOT
ATOM      1  O   UNL d   1      25.630 -18.032  -0.850  0.00  0.00    -0.274 OA
ATOM      2  C   UNL d   1      25.159 -16.942  -1.157  0.00  0.00     0.217 C 
ATOM      3  N   UNL d   1      25.741 -16.219  -2.163  0.00  0.00    -0.359 N 
ATOM      4  H   UNL d   1      26.542 -16.645  -2.617  0.00  0.00     0.162 HD
ENDROOT
BRANCH   2   5
ATOM      5  C   UNL d   1      23.936 -16.337  -0.465  0.00  0.00     0.104 C 
BRANCH   5   6
ATOM      6  C   UNL d   1      22.643 -17.039  -0.893  0.00  0.00     0.029 C 
BRANCH   6   7
ATOM      7  C   UNL d   1      22.812 -18.557  -0.985  0.00  0.00     0.123 C 
BRANCH   7   8
ATOM      8  N   UNL d   1      21.946 -19.285  -0.073  0.00  0.00    -0.361 N 
ATOM      9  C   UNL d   1      20.723 -19.790  -0.472  0.00  0.00     0.221 C 
ATOM     10  O   UNL d   1      20.266 -19.700  -1.608  0.00  0.00    -0.273 OA
ATOM     11  H   UNL d   1      22.224 -19.389   0.896  0.00  0.00     0.162 HD
BRANCH   9  12
ATOM     12  C   UNL d   1      19.953 -20.440   0.625  0.00  0.00     0.078 A 
ATOM     13  C   UNL d   1      18.780 -19.887   1.411  0.00  0.00     0.015 A 
ATOM     14  C   UNL d   1      18.523 -20.825   0.278  0.00  0.00     0.015 A 
ENDBRANCH   9  12
ENDBRANCH   7   8
ENDBRANCH   6   7
ENDBRANCH   5   6
ENDBRANCH   2   5
BRANCH   3  15
ATOM     15  C   UNL d   1      25.295 -14.929  -2.610  0.00  0.00     0.154 C 
BRANCH  15  16
ATOM     16  C   UNL d   1      25.839 -14.495  -3.980  0.00  0.00     0.140 C 
BRANCH  16  17
ATOM     17  O   UNL d   1      25.155 -15.203  -5.021  0.00  0.00    -0.394 OA
ATOM     18  H   UNL d   1      24.368 -14.687  -5.270  0.00  0.00     0.210 HD
ENDBRANCH  16  17
BRANCH  16  19
ATOM     19  C   UNL d   1      25.680 -12.969  -4.218  0.00  0.00     0.016 C 
ATOM     20  C   UNL d   1      25.929 -12.149  -2.938  0.00  0.00     0.007 C 
ATOM     21  C   UNL d   1      25.875 -10.654  -3.153  0.00  0.00     0.000 C 
ATOM     22  C   UNL d   1      26.860 -10.241  -4.233  0.00  0.00     0.000 C 
ATOM     23  C   UNL d   1      26.585 -10.993  -5.532  0.00  0.00     0.000 C 
ATOM     24  C   UNL d   1      26.639 -12.506  -5.330  0.00  0.00     0.007 C 
ENDBRANCH  16  19
ENDBRANCH  15  16
ENDBRANCH   3  15
TORSDOF 9
ENDMDL
MODEL 4
REMARK VINA RESULT:    -5.980      3.438      5.573
REMARK INTER + INTRA:         -10.599
REMARK INTER:                  -8.664
REMARK INTRA:                  -1.935
REMARK CONF_INDEPENDENT:        2.685
REMARK UNBOUND:                -1.935
REMARK  9 active torsions:
REMARK  status: ('A' for Active; 'I' for Inactive)
REMARK    1  A    between atoms: C_2  and  C_3 
REMARK       I    between atoms: C_2  and  N_12 
REMARK    2  A    between atoms: C_3  and  C_4 
REMARK    3  A    between atoms: C_4  and  C_5 
REMARK    4  A    between atoms: C_5  and  N_6 
REMARK       I    between atoms: N_6  and  C_7 
REMARK    5  A    between atoms: C_7  and  C_9 
REMARK    6  A    between atoms: N_12  and  C_13 
REMARK    7  A    between atoms: C_13  and  C_14 
REMARK    8  A    between atoms: C_14  and  O_15 
REMARK    9  A    between atoms: C_14  and  C_16 
ROOT
ATOM      1  O   UNL d   1      24.781 -14.681  -3.826  0.00  0.00    -0.274 OA
ATOM      2  C   UNL d   1      25.555 -13.739  -3.686  0.00  0.00     0.217 C 
ATOM      3  N   UNL d   1      25.381 -12.610  -4.440  0.00  0.00    -0.359 N 
ATOM      4  H   UNL d   1      24.593 -12.613  -5.079  0.00  0.00     0.162 HD
ENDROOT
BRANCH   2   5
ATOM      5  C   UNL d   1      26.723 -13.759  -2.697  0.00  0.00     0.104 C 
BRANCH   5   6
ATOM      6  C   UNL d   1      26.294 -14.310  -1.333  0.00  0.00     0.029 C 
BRANCH   6   7
ATOM      7  C   UNL d   1      26.355 -15.838  -1.281  0.00  0.00     0.123 C 
BRANCH   7   8
ATOM      8  N   UNL d   1      25.066 -16.469  -1.511  0.00  0.00    -0.361 N 
ATOM      9  C   UNL d   1      24.684 -17.616  -0.841  0.00  0.00     0.221 C 
ATOM     10  O   UNL d   1      25.360 -18.189   0.007  0.00  0.00    -0.273 OA
ATOM     11  H   UNL d   1      24.445 -16.085  -2.213  0.00  0.00     0.162 HD
BRANCH   9  12
ATOM     12  C   UNL d   1      23.359 -18.149  -1.268  0.00  0.00     0.078 A 
ATOM     13  C   UNL d   1      22.415 -19.055  -0.502  0.00  0.00     0.015 A 
ATOM     14  C   UNL d   1      22.160 -17.584  -0.522  0.00  0.00     0.015 A 
ENDBRANCH   9  12
ENDBRANCH   7   8
ENDBRANCH   6   7
ENDBRANCH   5   6
ENDBRANCH   2   5
BRANCH   3  15
ATOM     15  C   UNL d   1      26.221 -11.447  -4.380  0.00  0.00     0.154 C 
BRANCH  15  16
ATOM     16  C   UNL d   1      25.904 -10.365  -5.425  0.00  0.00     0.140 C 
BRANCH  16  17
ATOM     17  O   UNL d   1      25.187 -10.944  -6.521  0.00  0.00    -0.394 OA
ATOM     18  H   UNL d   1      24.305 -11.205  -6.201  0.00  0.00     0.210 HD
ENDBRANCH  16  17
BRANCH  16  19
ATOM     19  C   UNL d   1      25.067  -9.202  -4.830  0.00  0.00     0.016 C 
ATOM     20  C   UNL d   1      25.950  -8.106  -4.205  0.00  0.00     0.007 C 
ATOM     21  C   UNL d   1      25.173  -6.912  -3.699  0.00  0.00     0.000 C 
ATOM     22  C   UNL d   1      24.328  -6.323  -4.815  0.00  0.00     0.000 C 
ATOM     23  C   UNL d   1      23.395  -7.377  -5.401  0.00  0.00     0.000 C 
ATOM     24  C   UNL d   1      24.167  -8.590  -5.919  0.00  0.00     0.007 C 
ENDBRANCH  16  19
ENDBRANCH  15  16
ENDBRANCH   3  15
TORSDOF 9
ENDMDL
MODEL 5
REMARK VINA RESULT:    -5.892      3.175      7.434
REMARK INTER + INTRA:         -10.430
REMARK INTER:                  -8.576
REMARK INTRA:                  -1.854
REMARK CONF_INDEPENDENT:        2.685
REMARK UNBOUND:                -1.854
REMARK  9 active torsions:
REMARK  status: ('A' for Active; 'I' for Inactive)
REMARK    1  A    between atoms: C_2  and  C_3 
REMARK       I    between atoms: C_2  and  N_12 
REMARK    2  A    between atoms: C_3  and  C_4 
REMARK    3  A    between atoms: C_4  and  C_5 
REMARK    4  A    between atoms: C_5  and  N_6 
REMARK       I    between atoms: N_6  and  C_7 
REMARK    5  A    between atoms: C_7  and  C_9 
REMARK    6  A    between atoms: N_12  and  C_13 
REMARK    7  A    between atoms: C_13  and  C_14 
REMARK    8  A    between atoms: C_14  and  O_15 
REMARK    9  A    between atoms: C_14  and  C_16 
ROOT
ATOM      1  O   UNL d   1      30.347 -15.657  -0.323  0.00  0.00    -0.274 OA
ATOM      2  C   UNL d   1      29.354 -16.330  -0.583  0.00  0.00     0.217 C 
ATOM      3  N   UNL d   1      28.418 -16.549   0.390  0.00  0.00    -0.359 N 
ATOM      4  H   UNL d   1      28.597 -16.119   1.292  0.00  0.00     0.162 HD
ENDROOT
BRANCH   2   5
ATOM      5  C   UNL d   1      29.104 -16.948  -1.960  0.00  0.00     0.104 C 
BRANCH   5   6
ATOM      6  C   UNL d   1      29.946 -16.266  -3.044  0.00  0.00     0.029 C 
BRANCH   6   7
ATOM      7  C   UNL d   1      29.118 -15.906  -4.279  0.00  0.00     0.123 C 
BRANCH   7   8
ATOM      8  N   UNL d   1      27.764 -15.486  -3.957  0.00  0.00    -0.361 N 
ATOM      9  C   UNL d   1      26.850 -15.152  -4.938  0.00  0.00     0.221 C 
ATOM     10  O   UNL d   1      27.070 -15.197  -6.144  0.00  0.00    -0.273 OA
ATOM     11  H   UNL d   1      27.493 -15.393  -2.985  0.00  0.00     0.162 HD
BRANCH   9  12
ATOM     12  C   UNL d   1      25.542 -14.679  -4.404  0.00  0.00     0.078 A 
ATOM     13  C   UNL d   1      25.170 -14.350  -2.972  0.00  0.00     0.015 A 
ATOM     14  C   UNL d   1      25.524 -13.241  -3.908  0.00  0.00     0.015 A 
ENDBRANCH   9  12
ENDBRANCH   7   8
ENDBRANCH   6   7
ENDBRANCH   5   6
ENDBRANCH   2   5
BRANCH   3  15
ATOM     15  C   UNL d   1      27.223 -17.326   0.219  0.00  0.00     0.154 C 
BRANCH  15  16
ATOM     16  C   UNL d   1      26.103 -16.627  -0.568  0.00  0.00     0.140 C 
BRANCH  16  17
ATOM     17  O   UNL d   1      26.280 -16.854  -1.971  0.00  0.00    -0.394 OA
ATOM     18  H   UNL d   1      27.030 -17.465  -2.086  0.00  0.00     0.210 HD
ENDBRANCH  16  17
BRANCH  16  19
ATOM     19  C   UNL d   1      24.693 -17.123  -0.149  0.00  0.00     0.016 C 
ATOM     20  C   UNL d   1      23.566 -16.325  -0.831  0.00  0.00     0.007 C 
ATOM     21  C   UNL d   1      22.180 -16.842  -0.519  0.00  0.00     0.000 C 
ATOM     22  C   UNL d   1      22.070 -18.311  -0.886  0.00  0.00     0.000 C 
ATOM     23  C   UNL d   1      23.136 -19.129  -0.163  0.00  0.00     0.000 C 
ATOM     24  C   UNL d   1      24.544 -18.621  -0.472  0.00  0.00     0.007 C 
ENDBRANCH  16  19
ENDBRANCH  15  16
ENDBRANCH   3  15
TORSDOF 9
ENDMDL
MODEL 6
REMARK VINA RESULT:    -5.690      3.804      7.490
REMARK INTER + INTRA:         -11.101
REMARK INTER:                  -8.374
REMARK INTRA:                  -2.727
REMARK CONF_INDEPENDENT:        2.685
REMARK UNBOUND:                -2.727
REMARK  9 active torsions:
REMARK  status: ('A' for Active; 'I' for Inactive)
REMARK    1  A    between atoms: C_2  and  C_3 
REMARK       I    between atoms: C_2  and  N_12 
REMARK    2  A    between atoms: C_3  and  C_4 
REMARK    3  A    between atoms: C_4  and  C_5 
REMARK    4  A    between atoms: C_5  and  N_6 
REMARK       I    between atoms: N_6  and  C_7 
REMARK    5  A    between atoms: C_7  and  C_9 
REMARK    6  A    between atoms: N_12  and  C_13 
REMARK    7  A    between atoms: C_13  and  C_14 
REMARK    8  A    between atoms: C_14  and  O_15 
REMARK    9  A    between atoms: C_14  and  C_16 
ROOT
ATOM      1  O   UNL d   1      29.788 -14.353  -3.072  0.00  0.00    -0.274 OA
ATOM      2  C   UNL d   1      29.367 -15.480  -2.828  0.00  0.00     0.217 C 
ATOM      3  N   UNL d   1      28.920 -15.770  -1.568  0.00  0.00    -0.359 N 
ATOM      4  H   UNL d   1      28.951 -15.012  -0.894  0.00  0.00     0.162 HD
ENDROOT
BRANCH   2   5
ATOM      5  C   UNL d   1      29.315 -16.595  -3.874  0.00  0.00     0.104 C 
BRANCH   5   6
ATOM      6  C   UNL d   1      29.736 -16.088  -5.258  0.00  0.00     0.029 C 
BRANCH   6   7
ATOM      7  C   UNL d   1      28.666 -15.201  -5.899  0.00  0.00     0.123 C 
BRANCH   7   8
ATOM      8  N   UNL d   1      27.685 -14.709  -4.946  0.00  0.00    -0.361 N 
ATOM      9  C   UNL d   1      26.367 -15.121  -4.976  0.00  0.00     0.221 C 
ATOM     10  O   UNL d   1      25.907 -15.937  -5.769  0.00  0.00    -0.273 OA
ATOM     11  H   UNL d   1      27.963 -14.011  -4.266  0.00  0.00     0.162 HD
BRANCH   9  12
ATOM     12  C   UNL d   1      25.503 -14.449  -3.965  0.00  0.00     0.078 A 
ATOM     13  C   UNL d   1      25.878 -13.365  -2.975  0.00  0.00     0.015 A 
ATOM     14  C   UNL d   1      25.190 -12.987  -4.245  0.00  0.00     0.015 A 
ENDBRANCH   9  12
ENDBRANCH   7   8
ENDBRANCH   6   7
ENDBRANCH   5   6
ENDBRANCH   2   5
BRANCH   3  15
ATOM     15  C   UNL d   1      28.416 -17.048  -1.151  0.00  0.00     0.154 C 
BRANCH  15  16
ATOM     16  C   UNL d   1      27.733 -17.057   0.225  0.00  0.00     0.140 C 
BRANCH  16  17
ATOM     17  O   UNL d   1      28.139 -15.907   0.977  0.00  0.00    -0.394 OA
ATOM     18  H   UNL d   1      28.994 -16.107   1.397  0.00  0.00     0.210 HD
ENDBRANCH  16  17
BRANCH  16  19
ATOM     19  C   UNL d   1      26.185 -17.068   0.114  0.00  0.00     0.016 C 
ATOM     20  C   UNL d   1      25.683 -16.302  -1.125  0.00  0.00     0.007 C 
ATOM     21  C   UNL d   1      24.185 -16.370  -1.317  0.00  0.00     0.000 C 
ATOM     22  C   UNL d   1      23.728 -17.817  -1.382  0.00  0.00     0.000 C 
ATOM     23  C   UNL d   1      24.156 -18.575  -0.129  0.00  0.00     0.000 C 
ATOM     24  C   UNL d   1      25.669 -18.518   0.077  0.00  0.00     0.007 C 
ENDBRANCH  16  19
ENDBRANCH  15  16
ENDBRANCH   3  15
TORSDOF 9
ENDMDL
MODEL 7
REMARK VINA RESULT:    -5.674      7.610      9.795
REMARK INTER + INTRA:         -10.315
REMARK INTER:                  -8.359
REMARK INTRA:                  -1.957
REMARK CONF_INDEPENDENT:        2.685
REMARK UNBOUND:                -1.957
REMARK  9 active torsions:
REMARK  status: ('A' for Active; 'I' for Inactive)
REMARK    1  A    between atoms: C_2  and  C_3 
REMARK       I    between atoms: C_2  and  N_12 
REMARK    2  A    between atoms: C_3  and  C_4 
REMARK    3  A    between atoms: C_4  and  C_5 
REMARK    4  A    between atoms: C_5  and  N_6 
REMARK       I    between atoms: N_6  and  C_7 
REMARK    5  A    between atoms: C_7  and  C_9 
REMARK    6  A    between atoms: N_12  and  C_13 
REMARK    7  A    between atoms: C_13  and  C_14 
REMARK    8  A    between atoms: C_14  and  O_15 
REMARK    9  A    between atoms: C_14  and  C_16 
ROOT
ATOM      1  O   UNL d   1      29.332 -15.272   5.477  0.00  0.00    -0.274 OA
ATOM      2  C   UNL d   1      28.542 -14.666   4.758  0.00  0.00     0.217 C 
ATOM      3  N   UNL d   1      28.692 -14.724   3.399  0.00  0.00    -0.359 N 
ATOM      4  H   UNL d   1      29.461 -15.290   3.055  0.00  0.00     0.162 HD
ENDROOT
BRANCH   2   5
ATOM      5  C   UNL d   1      27.380 -13.838   5.309  0.00  0.00     0.104 C 
BRANCH   5   6
ATOM      6  C   UNL d   1      27.880 -12.621   6.095  0.00  0.00     0.029 C 
BRANCH   6   7
ATOM      7  C   UNL d   1      29.235 -12.877   6.757  0.00  0.00     0.123 C 
BRANCH   7   8
ATOM      8  N   UNL d   1      29.185 -13.904   7.785  0.00  0.00    -0.361 N 
ATOM      9  C   UNL d   1      28.696 -13.648   9.051  0.00  0.00     0.221 C 
ATOM     10  O   UNL d   1      28.247 -12.568   9.422  0.00  0.00    -0.273 OA
ATOM     11  H   UNL d   1      29.558 -14.825   7.583  0.00  0.00     0.162 HD
BRANCH   9  12
ATOM     12  C   UNL d   1      28.795 -14.808   9.981  0.00  0.00     0.078 A 
ATOM     13  C   UNL d   1      30.022 -15.616  10.354  0.00  0.00     0.015 A 
ATOM     14  C   UNL d   1      29.547 -14.542  11.276  0.00  0.00     0.015 A 
ENDBRANCH   9  12
ENDBRANCH   7   8
ENDBRANCH   6   7
ENDBRANCH   5   6
ENDBRANCH   2   5
BRANCH   3  15
ATOM     15  C   UNL d   1      27.847 -14.054   2.452  0.00  0.00     0.154 C 
BRANCH  15  16
ATOM     16  C   UNL d   1      28.005 -14.523   0.997  0.00  0.00     0.140 C 
BRANCH  16  17
ATOM     17  O   UNL d   1      29.151 -15.376   0.883  0.00  0.00    -0.394 OA
ATOM     18  H   UNL d   1      29.170 -15.961   1.661  0.00  0.00     0.210 HD
ENDBRANCH  16  17
BRANCH  16  19
ATOM     19  C   UNL d   1      26.754 -15.287   0.486  0.00  0.00     0.016 C 
ATOM     20  C   UNL d   1      26.310 -14.813  -0.911  0.00  0.00     0.007 C 
ATOM     21  C   UNL d   1      25.152 -15.599  -1.481  0.00  0.00     0.000 C 
ATOM     22  C   UNL d   1      25.487 -17.079  -1.517  0.00  0.00     0.000 C 
ATOM     23  C   UNL d   1      25.861 -17.584  -0.127  0.00  0.00     0.000 C 
ATOM     24  C   UNL d   1      27.034 -16.800   0.461  0.00  0.00     0.007 C 
ENDBRANCH  16  19
ENDBRANCH  15  16
ENDBRANCH   3  15
TORSDOF 9
ENDMDL
MODEL 8
REMARK VINA RESULT:    -5.539      3.769      7.506
REMARK INTER + INTRA:         -10.944
REMARK INTER:                  -8.224
REMARK INTRA:                  -2.720
REMARK CONF_INDEPENDENT:        2.685
REMARK UNBOUND:                -2.720
REMARK  9 active torsions:
REMARK  status: ('A' for Active; 'I' for Inactive)
REMARK    1  A    between atoms: C_2  and  C_3 
REMARK       I    between atoms: C_2  and  N_12 
REMARK    2  A    between atoms: C_3  and  C_4 
REMARK    3  A    between atoms: C_4  and  C_5 
REMARK    4  A    between atoms: C_5  and  N_6 
REMARK       I    between atoms: N_6  and  C_7 
REMARK    5  A    between atoms: C_7  and  C_9 
REMARK    6  A    between atoms: N_12  and  C_13 
REMARK    7  A    between atoms: C_13  and  C_14 
REMARK    8  A    between atoms: C_14  and  O_15 
REMARK    9  A    between atoms: C_14  and  C_16 
ROOT
ATOM      1  O   UNL d   1      29.758 -14.187  -2.857  0.00  0.00    -0.274 OA
ATOM      2  C   UNL d   1      29.543 -15.387  -2.709  0.00  0.00     0.217 C 
ATOM      3  N   UNL d   1      29.073 -15.839  -1.506  0.00  0.00    -0.359 N 
ATOM      4  H   UNL d   1      28.913 -15.137  -0.792  0.00  0.00     0.162 HD
ENDROOT
BRANCH   2   5
ATOM      5  C   UNL d   1      29.775 -16.418  -3.814  0.00  0.00     0.104 C 
BRANCH   5   6
ATOM      6  C   UNL d   1      30.017 -15.745  -5.169  0.00  0.00     0.029 C 
BRANCH   6   7
ATOM      7  C   UNL d   1      28.715 -15.289  -5.830  0.00  0.00     0.123 C 
BRANCH   7   8
ATOM      8  N   UNL d   1      27.732 -14.799  -4.878  0.00  0.00    -0.361 N 
ATOM      9  C   UNL d   1      26.403 -15.172  -4.944  0.00  0.00     0.221 C 
ATOM     10  O   UNL d   1      25.933 -15.948  -5.770  0.00  0.00    -0.273 OA
ATOM     11  H   UNL d   1      28.017 -14.132  -4.172  0.00  0.00     0.162 HD
BRANCH   9  12
ATOM     12  C   UNL d   1      25.541 -14.507  -3.926  0.00  0.00     0.078 A 
ATOM     13  C   UNL d   1      25.944 -13.518  -2.849  0.00  0.00     0.015 A 
ATOM     14  C   UNL d   1      25.342 -13.011  -4.118  0.00  0.00     0.015 A 
ENDBRANCH   9  12
ENDBRANCH   7   8
ENDBRANCH   6   7
ENDBRANCH   5   6
ENDBRANCH   2   5
BRANCH   3  15
ATOM     15  C   UNL d   1      28.792 -17.214  -1.200  0.00  0.00     0.154 C 
BRANCH  15  16
ATOM     16  C   UNL d   1      27.808 -17.432  -0.040  0.00  0.00     0.140 C 
BRANCH  16  17
ATOM     17  O   UNL d   1      27.779 -16.270   0.797  0.00  0.00    -0.394 OA
ATOM     18  H   UNL d   1      28.544 -16.312   1.398  0.00  0.00     0.210 HD
ENDBRANCH  16  17
BRANCH  16  19
ATOM     19  C   UNL d   1      26.369 -17.732  -0.539  0.00  0.00     0.016 C 
ATOM     20  C   UNL d   1      25.442 -18.200   0.598  0.00  0.00     0.007 C 
ATOM     21  C   UNL d   1      24.009 -18.411   0.167  0.00  0.00     0.000 C 
ATOM     22  C   UNL d   1      23.457 -17.146  -0.465  0.00  0.00     0.000 C 
ATOM     23  C   UNL d   1      24.324 -16.706  -1.641  0.00  0.00     0.000 C 
ATOM     24  C   UNL d   1      25.776 -16.485  -1.219  0.00  0.00     0.007 C 
ENDBRANCH  16  19
ENDBRANCH  15  16
ENDBRANCH   3  15
TORSDOF 9
ENDMDL
MODEL 9
REMARK VINA RESULT:    -5.395      3.615      9.449
REMARK INTER + INTRA:         -10.348
REMARK INTER:                  -8.080
REMARK INTRA:                  -2.268
REMARK CONF_INDEPENDENT:        2.685
REMARK UNBOUND:                -2.268
REMARK  9 active torsions:
REMARK  status: ('A' for Active; 'I' for Inactive)
REMARK    1  A    between atoms: C_2  and  C_3 
REMARK       I    between atoms: C_2  and  N_12 
REMARK    2  A    between atoms: C_3  and  C_4 
REMARK    3  A    between atoms: C_4  and  C_5 
REMARK    4  A    between atoms: C_5  and  N_6 
REMARK       I    between atoms: N_6  and  C_7 
REMARK    5  A    between atoms: C_7  and  C_9 
REMARK    6  A    between atoms: N_12  and  C_13 
REMARK    7  A    between atoms: C_13  and  C_14 
REMARK    8  A    between atoms: C_14  and  O_15 
REMARK    9  A    between atoms: C_14  and  C_16 
ROOT
ATOM      1  O   UNL d   1      27.703 -15.083  -6.534  0.00  0.00    -0.274 OA
ATOM      2  C   UNL d   1      27.856 -15.202  -5.322  0.00  0.00     0.217 C 
ATOM      3  N   UNL d   1      26.773 -15.079  -4.494  0.00  0.00    -0.359 N 
ATOM      4  H   UNL d   1      25.881 -14.903  -4.944  0.00  0.00     0.162 HD
ENDROOT
BRANCH   2   5
ATOM      5  C   UNL d   1      29.214 -15.487  -4.676  0.00  0.00     0.104 C 
BRANCH   5   6
ATOM      6  C   UNL d   1      29.864 -16.743  -5.267  0.00  0.00     0.029 C 
BRANCH   6   7
ATOM      7  C   UNL d   1      30.697 -16.432  -6.512  0.00  0.00     0.123 C 
BRANCH   7   8
ATOM      8  N   UNL d   1      30.246 -15.245  -7.220  0.00  0.00    -0.361 N 
ATOM      9  C   UNL d   1      30.879 -14.025  -7.078  0.00  0.00     0.221 C 
ATOM     10  O   UNL d   1      31.870 -13.827  -6.380  0.00  0.00    -0.273 OA
ATOM     11  H   UNL d   1      29.418 -15.301  -7.801  0.00  0.00     0.162 HD
BRANCH   9  12
ATOM     12  C   UNL d   1      30.224 -12.917  -7.828  0.00  0.00     0.078 A 
ATOM     13  C   UNL d   1      28.786 -12.815  -8.296  0.00  0.00     0.015 A 
ATOM     14  C   UNL d   1      29.196 -12.117  -7.042  0.00  0.00     0.015 A 
ENDBRANCH   9  12
ENDBRANCH   7   8
ENDBRANCH   6   7
ENDBRANCH   5   6
ENDBRANCH   2   5
BRANCH   3  15
ATOM     15  C   UNL d   1      26.819 -15.184  -3.063  0.00  0.00     0.154 C 
BRANCH  15  16
ATOM     16  C   UNL d   1      25.450 -15.145  -2.366  0.00  0.00     0.140 C 
BRANCH  16  17
ATOM     17  O   UNL d   1      24.447 -14.706  -3.291  0.00  0.00    -0.394 OA
ATOM     18  H   UNL d   1      24.365 -13.740  -3.212  0.00  0.00     0.210 HD
ENDBRANCH  16  17
BRANCH  16  19
ATOM     19  C   UNL d   1      25.041 -16.529  -1.795  0.00  0.00     0.016 C 
ATOM     20  C   UNL d   1      26.027 -17.035  -0.727  0.00  0.00     0.007 C 
ATOM     21  C   UNL d   1      25.611 -18.337  -0.081  0.00  0.00     0.000 C 
ATOM     22  C   UNL d   1      24.221 -18.207   0.517  0.00  0.00     0.000 C 
ATOM     23  C   UNL d   1      23.214 -17.774  -0.545  0.00  0.00     0.000 C 
ATOM     24  C   UNL d   1      23.621 -16.457  -1.204  0.00  0.00     0.007 C 
ENDBRANCH  16  19
ENDBRANCH  15  16
ENDBRANCH   3  15
TORSDOF 9
ENDMDL
