MODEL 1
REMARK VINA RESULT:   -12.019      0.000      0.000
REMARK INTER + INTRA:         -16.940
REMARK INTER:                 -15.002
REMARK INTRA:                  -1.938
REMARK CONF_INDEPENDENT:        2.983
REMARK UNBOUND:                -1.938
REMARK  10 active torsions:
REMARK  status: ('A' for Active; 'I' for Inactive)
REMARK    1  A    between atoms: C_2  and  C_3 
REMARK       I    between atoms: C_2  and  N_19 
REMARK    2  A    between atoms: C_3  and  O_4 
REMARK    3  A    between atoms: O_4  and  C_5 
REMARK    4  A    between atoms: C_5  and  C_7 
REMARK    5  A    between atoms: C_7  and  C_8 
REMARK    6  A    between atoms: C_8  and  C_9 
REMARK    7  A    between atoms: C_9  and  C_10 
REMARK    8  A    between atoms: N_19  and  C_20 
REMARK    9  A    between atoms: C_25  and  C_26 
REMARK       I    between atoms: C_26  and  N_28 
REMARK   10  A    between atoms: N_28  and  C_29 
ROOT
ATOM      1  O   UNL d   1      24.635 -14.367  -3.876  0.00  0.00    -0.271 OA
ATOM      2  C   UNL d   1      25.320 -15.055  -3.117  0.00  0.00     0.246 C 
ATOM      3  N   UNL d   1      24.791 -15.384  -1.881  0.00  0.00    -0.324 N 
ATOM      4  H   UNL d   1      23.864 -15.004  -1.706  0.00  0.00     0.169 HD
ENDROOT
BRANCH   3   5
ATOM      5  C   UNL d   1      25.329 -16.288  -0.939  0.00  0.00     0.050 C 
ATOM      6  C   UNL d   1      26.677 -16.138  -0.596  0.00  0.00     0.030 C 
ATOM      7  C   UNL d   1      27.349 -17.097   0.151  0.00  0.00     0.002 C 
ATOM      8  C   UNL d   1      26.635 -18.140   0.713  0.00  0.00     0.001 C 
ATOM      9  C   UNL d   1      25.251 -18.207   0.533  0.00  0.00     0.019 C 
ATOM     10  C   UNL d   1      24.579 -17.310  -0.324  0.00  0.00     0.059 C 
BRANCH  10  11
ATOM     11  C   UNL d   1      23.117 -17.604  -0.541  0.00  0.00     0.258 C 
ATOM     12  O   UNL d   1      22.373 -16.722  -0.914  0.00  0.00    -0.267 OA
ATOM     13  N   UNL d   1      22.700 -18.882  -0.204  0.00  0.00    -0.323 N 
ATOM     14  H   UNL d   1      23.205 -19.298   0.566  0.00  0.00     0.169 HD
BRANCH  13  15
ATOM     15  C   UNL d   1      21.349 -19.233  -0.215  0.00  0.00     0.037 C 
ATOM     16  C   UNL d   1      20.439 -19.059  -1.267  0.00  0.00     0.032 C 
ATOM     17  C   UNL d   1      19.160 -19.650  -1.143  0.00  0.00     0.042 C 
ATOM     18  C   UNL d   1      18.810 -20.072   0.130  0.00  0.00     0.105 C 
ATOM     19  C   UNL d   1      19.575 -19.646   1.164  0.00  0.00     0.107 C 
ATOM     20  O   UNL d   1      17.915 -20.974   0.660  0.00  0.00    -0.323 OA
ATOM     21  C   UNL d   1      20.904 -19.723   0.981  0.00  0.00     0.069 C 
ATOM     22  O   UNL d   1      18.998 -19.778   2.380  0.00  0.00    -0.323 OA
ATOM     23  C   UNL d   1      18.397 -21.018   2.057  0.00  0.00     0.352 C 
ENDBRANCH  13  15
ENDBRANCH  10  11
ENDBRANCH   3   5
BRANCH   2  24
ATOM     24  C   UNL d   1      26.694 -15.612  -3.537  0.00  0.00     0.281 C 
BRANCH  24  25
ATOM     25  O   UNL d   1      27.602 -14.608  -4.000  0.00  0.00    -0.312 OA
BRANCH  25  26
ATOM     26  C   UNL d   1      27.743 -14.619  -5.360  0.00  0.00     0.259 C 
ATOM     27  O   UNL d   1      27.031 -15.212  -6.132  0.00  0.00    -0.265 OA
BRANCH  26  28
ATOM     28  C   UNL d   1      28.941 -13.779  -5.765  0.00  0.00     0.111 C 
BRANCH  28  29
ATOM     29  C   UNL d   1      30.084 -14.690  -6.205  0.00  0.00     0.014 C 
BRANCH  29  30
ATOM     30  C   UNL d   1      30.749 -15.383  -5.022  0.00  0.00     0.037 C 
BRANCH  30  31
ATOM     31  C   UNL d   1      30.620 -16.863  -5.156  0.00  0.00    -0.050 A 
ATOM     32  C   UNL d   1      30.874 -17.584  -6.251  0.00  0.00    -0.006 A 
ATOM     33  C   UNL d   1      31.326 -17.252  -7.559  0.00  0.00     0.014 A 
ATOM     34  C   UNL d   1      30.619 -18.981  -5.855  0.00  0.00     0.038 A 
ATOM     35  C   UNL d   1      31.502 -18.244  -8.444  0.00  0.00     0.001 A 
ATOM     36  C   UNL d   1      31.244 -19.633  -8.091  0.00  0.00     0.002 A 
ATOM     37  C   UNL d   1      30.826 -20.030  -6.872  0.00  0.00     0.030 A 
ATOM     38  N   UNL d   1      30.243 -19.075  -4.638  0.00  0.00    -0.385 N 
ATOM     39  C   UNL d   1      30.195 -17.736  -4.013  0.00  0.00     0.155 A 
ATOM     40  H   UNL d   1      30.016 -19.959  -4.185  0.00  0.00     0.160 HD
ENDBRANCH  30  31
ENDBRANCH  29  30
ENDBRANCH  28  29
ENDBRANCH  26  28
ENDBRANCH  25  26
ENDBRANCH  24  25
ENDBRANCH   2  24
TORSDOF 10
ENDMDL
MODEL 2
REMARK VINA RESULT:   -11.975      0.811      1.359
REMARK INTER + INTRA:         -16.881
REMARK INTER:                 -14.958
REMARK INTRA:                  -1.923
REMARK CONF_INDEPENDENT:        2.983
REMARK UNBOUND:                -1.923
REMARK  10 active torsions:
REMARK  status: ('A' for Active; 'I' for Inactive)
REMARK    1  A    between atoms: C_2  and  C_3 
REMARK       I    between atoms: C_2  and  N_19 
REMARK    2  A    between atoms: C_3  and  O_4 
REMARK    3  A    between atoms: O_4  and  C_5 
REMARK    4  A    between atoms: C_5  and  C_7 
REMARK    5  A    between atoms: C_7  and  C_8 
REMARK    6  A    between atoms: C_8  and  C_9 
REMARK    7  A    between atoms: C_9  and  C_10 
REMARK    8  A    between atoms: N_19  and  C_20 
REMARK    9  A    between atoms: C_25  and  C_26 
REMARK       I    between atoms: C_26  and  N_28 
REMARK   10  A    between atoms: N_28  and  C_29 
ROOT
ATOM      1  O   UNL d   1      24.648 -14.376  -3.911  0.00  0.00    -0.271 OA
ATOM      2  C   UNL d   1      25.333 -15.048  -3.138  0.00  0.00     0.246 C 
ATOM      3  N   UNL d   1      24.780 -15.401  -1.919  0.00  0.00    -0.324 N 
ATOM      4  H   UNL d   1      23.838 -15.050  -1.767  0.00  0.00     0.169 HD
ENDROOT
BRANCH   3   5
ATOM      5  C   UNL d   1      25.319 -16.295  -0.969  0.00  0.00     0.050 C 
ATOM      6  C   UNL d   1      26.667 -16.140  -0.625  0.00  0.00     0.030 C 
ATOM      7  C   UNL d   1      27.340 -17.090   0.131  0.00  0.00     0.002 C 
ATOM      8  C   UNL d   1      26.628 -18.130   0.701  0.00  0.00     0.001 C 
ATOM      9  C   UNL d   1      25.244 -18.202   0.521  0.00  0.00     0.019 C 
ATOM     10  C   UNL d   1      24.571 -17.314  -0.345  0.00  0.00     0.059 C 
BRANCH  10  11
ATOM     11  C   UNL d   1      23.109 -17.613  -0.562  0.00  0.00     0.258 C 
ATOM     12  O   UNL d   1      22.365 -16.737  -0.946  0.00  0.00    -0.267 OA
ATOM     13  N   UNL d   1      22.694 -18.888  -0.209  0.00  0.00    -0.323 N 
ATOM     14  H   UNL d   1      23.199 -19.293   0.567  0.00  0.00     0.169 HD
BRANCH  13  15
ATOM     15  C   UNL d   1      21.344 -19.241  -0.219  0.00  0.00     0.037 C 
ATOM     16  C   UNL d   1      20.433 -19.070  -1.270  0.00  0.00     0.032 C 
ATOM     17  C   UNL d   1      19.155 -19.664  -1.143  0.00  0.00     0.042 C 
ATOM     18  C   UNL d   1      18.807 -20.084   0.130  0.00  0.00     0.105 C 
ATOM     19  C   UNL d   1      19.572 -19.654   1.164  0.00  0.00     0.107 C 
ATOM     20  O   UNL d   1      17.914 -20.986   0.663  0.00  0.00    -0.323 OA
ATOM     21  C   UNL d   1      20.901 -19.729   0.980  0.00  0.00     0.069 C 
ATOM     22  O   UNL d   1      18.997 -19.786   2.380  0.00  0.00    -0.323 OA
ATOM     23  C   UNL d   1      18.397 -21.027   2.060  0.00  0.00     0.352 C 
ENDBRANCH  13  15
ENDBRANCH  10  11
ENDBRANCH   3   5
BRANCH   2  24
ATOM     24  C   UNL d   1      26.733 -15.560  -3.524  0.00  0.00     0.281 C 
BRANCH  24  25
ATOM     25  O   UNL d   1      27.646 -14.519  -3.886  0.00  0.00    -0.312 OA
BRANCH  25  26
ATOM     26  C   UNL d   1      27.894 -14.487  -5.230  0.00  0.00     0.259 C 
ATOM     27  O   UNL d   1      27.375 -15.200  -6.054  0.00  0.00    -0.265 OA
BRANCH  26  28
ATOM     28  C   UNL d   1      28.932 -13.425  -5.542  0.00  0.00     0.111 C 
BRANCH  28  29
ATOM     29  C   UNL d   1      30.271 -14.089  -5.856  0.00  0.00     0.014 C 
BRANCH  29  30
ATOM     30  C   UNL d   1      30.439 -15.411  -5.116  0.00  0.00     0.037 C 
BRANCH  30  31
ATOM     31  C   UNL d   1      30.770 -16.499  -6.081  0.00  0.00    -0.050 A 
ATOM     32  C   UNL d   1      30.738 -17.811  -5.837  0.00  0.00    -0.006 A 
ATOM     33  C   UNL d   1      30.403 -18.586  -4.692  0.00  0.00     0.014 A 
ATOM     34  C   UNL d   1      31.121 -18.445  -7.111  0.00  0.00     0.038 A 
ATOM     35  C   UNL d   1      30.459 -19.923  -4.787  0.00  0.00     0.001 A 
ATOM     36  C   UNL d   1      30.849 -20.581  -6.026  0.00  0.00     0.002 A 
ATOM     37  C   UNL d   1      31.169 -19.920  -7.156  0.00  0.00     0.030 A 
ATOM     38  N   UNL d   1      31.362 -17.585  -8.024  0.00  0.00    -0.385 N 
ATOM     39  C   UNL d   1      31.166 -16.216  -7.500  0.00  0.00     0.155 A 
ATOM     40  H   UNL d   1      31.645 -17.832  -8.970  0.00  0.00     0.160 HD
ENDBRANCH  30  31
ENDBRANCH  29  30
ENDBRANCH  28  29
ENDBRANCH  26  28
ENDBRANCH  25  26
ENDBRANCH  24  25
ENDBRANCH   2  24
TORSDOF 10
ENDMDL
MODEL 3
REMARK VINA RESULT:   -11.659      3.168      5.745
REMARK INTER + INTRA:         -16.404
REMARK INTER:                 -14.642
REMARK INTRA:                  -1.762
REMARK CONF_INDEPENDENT:        2.983
REMARK UNBOUND:                -1.762
REMARK  10 active torsions:
REMARK  status: ('A' for Active; 'I' for Inactive)
REMARK    1  A    between atoms: C_2  and  C_3 
REMARK       I    between atoms: C_2  and  N_19 
REMARK    2  A    between atoms: C_3  and  O_4 
REMARK    3  A    between atoms: O_4  and  C_5 
REMARK    4  A    between atoms: C_5  and  C_7 
REMARK    5  A    between atoms: C_7  and  C_8 
REMARK    6  A    between atoms: C_8  and  C_9 
REMARK    7  A    between atoms: C_9  and  C_10 
REMARK    8  A    between atoms: N_19  and  C_20 
REMARK    9  A    between atoms: C_25  and  C_26 
REMARK       I    between atoms: C_26  and  N_28 
REMARK   10  A    between atoms: N_28  and  C_29 
ROOT
ATOM      1  O   UNL d   1      24.767 -14.293  -3.745  0.00  0.00    -0.271 OA
ATOM      2  C   UNL d   1      25.430 -14.990  -2.975  0.00  0.00     0.246 C 
ATOM      3  N   UNL d   1      24.843 -15.383  -1.785  0.00  0.00    -0.324 N 
ATOM      4  H   UNL d   1      23.896 -15.037  -1.648  0.00  0.00     0.169 HD
ENDROOT
BRANCH   3   5
ATOM      5  C   UNL d   1      25.356 -16.308  -0.849  0.00  0.00     0.050 C 
ATOM      6  C   UNL d   1      26.698 -16.172  -0.473  0.00  0.00     0.030 C 
ATOM      7  C   UNL d   1      27.348 -17.148   0.270  0.00  0.00     0.002 C 
ATOM      8  C   UNL d   1      26.617 -18.198   0.796  0.00  0.00     0.001 C 
ATOM      9  C   UNL d   1      25.237 -18.254   0.585  0.00  0.00     0.019 C 
ATOM     10  C   UNL d   1      24.588 -17.337  -0.269  0.00  0.00     0.059 C 
BRANCH  10  11
ATOM     11  C   UNL d   1      23.129 -17.619  -0.524  0.00  0.00     0.258 C 
ATOM     12  O   UNL d   1      22.403 -16.733  -0.920  0.00  0.00    -0.267 OA
ATOM     13  N   UNL d   1      22.692 -18.892  -0.192  0.00  0.00    -0.323 N 
ATOM     14  H   UNL d   1      23.172 -19.308   0.593  0.00  0.00     0.169 HD
BRANCH  13  15
ATOM     15  C   UNL d   1      21.338 -19.230  -0.238  0.00  0.00     0.037 C 
ATOM     16  C   UNL d   1      20.432 -18.953  -1.270  0.00  0.00     0.032 C 
ATOM     17  C   UNL d   1      19.148 -19.544  -1.203  0.00  0.00     0.042 C 
ATOM     18  C   UNL d   1      18.793 -20.079   0.025  0.00  0.00     0.105 C 
ATOM     19  C   UNL d   1      19.559 -19.757   1.096  0.00  0.00     0.107 C 
ATOM     20  O   UNL d   1      17.891 -21.021   0.468  0.00  0.00    -0.323 OA
ATOM     21  C   UNL d   1      20.888 -19.826   0.908  0.00  0.00     0.069 C 
ATOM     22  O   UNL d   1      18.979 -19.998   2.293  0.00  0.00    -0.323 OA
ATOM     23  C   UNL d   1      18.369 -21.197   1.855  0.00  0.00     0.352 C 
ENDBRANCH  13  15
ENDBRANCH  10  11
ENDBRANCH   3   5
BRANCH   2  24
ATOM     24  C   UNL d   1      26.842 -15.490  -3.337  0.00  0.00     0.281 C 
BRANCH  24  25
ATOM     25  O   UNL d   1      27.610 -14.544  -4.087  0.00  0.00    -0.312 OA
BRANCH  25  26
ATOM     26  C   UNL d   1      27.331 -14.589  -5.425  0.00  0.00     0.259 C 
ATOM     27  O   UNL d   1      26.974 -15.568  -6.032  0.00  0.00    -0.265 OA
BRANCH  26  28
ATOM     28  C   UNL d   1      27.547 -13.221  -6.047  0.00  0.00     0.111 C 
BRANCH  28  29
ATOM     29  C   UNL d   1      27.066 -12.136  -5.086  0.00  0.00     0.014 C 
BRANCH  29  30
ATOM     30  C   UNL d   1      26.793 -10.819  -5.803  0.00  0.00     0.037 C 
BRANCH  30  31
ATOM     31  C   UNL d   1      26.154  -9.849  -4.867  0.00  0.00    -0.050 A 
ATOM     32  C   UNL d   1      26.512  -9.616  -3.602  0.00  0.00    -0.006 A 
ATOM     33  C   UNL d   1      27.533 -10.140  -2.761  0.00  0.00     0.014 A 
ATOM     34  C   UNL d   1      25.592  -8.564  -3.134  0.00  0.00     0.038 A 
ATOM     35  C   UNL d   1      27.636  -9.666  -1.511  0.00  0.00     0.001 A 
ATOM     36  C   UNL d   1      26.734  -8.637  -1.011  0.00  0.00     0.002 A 
ATOM     37  C   UNL d   1      25.750  -8.084  -1.747  0.00  0.00     0.030 A 
ATOM     38  N   UNL d   1      24.764  -8.211  -4.038  0.00  0.00    -0.385 N 
ATOM     39  C   UNL d   1      25.007  -8.977  -5.281  0.00  0.00     0.155 A 
ATOM     40  H   UNL d   1      24.048  -7.500  -3.901  0.00  0.00     0.160 HD
ENDBRANCH  30  31
ENDBRANCH  29  30
ENDBRANCH  28  29
ENDBRANCH  26  28
ENDBRANCH  25  26
ENDBRANCH  24  25
ENDBRANCH   2  24
TORSDOF 10
ENDMDL
MODEL 4
REMARK VINA RESULT:   -11.452      3.592      6.706
REMARK INTER + INTRA:         -16.246
REMARK INTER:                 -14.435
REMARK INTRA:                  -1.811
REMARK CONF_INDEPENDENT:        2.983
REMARK UNBOUND:                -1.811
REMARK  10 active torsions:
REMARK  status: ('A' for Active; 'I' for Inactive)
REMARK    1  A    between atoms: C_2  and  C_3 
REMARK       I    between atoms: C_2  and  N_19 
REMARK    2  A    between atoms: C_3  and  O_4 
REMARK    3  A    between atoms: O_4  and  C_5 
REMARK    4  A    between atoms: C_5  and  C_7 
REMARK    5  A    between atoms: C_7  and  C_8 
REMARK    6  A    between atoms: C_8  and  C_9 
REMARK    7  A    between atoms: C_9  and  C_10 
REMARK    8  A    between atoms: N_19  and  C_20 
REMARK    9  A    between atoms: C_25  and  C_26 
REMARK       I    between atoms: C_26  and  N_28 
REMARK   10  A    between atoms: N_28  and  C_29 
ROOT
ATOM      1  O   UNL d   1      24.680 -14.177  -3.605  0.00  0.00    -0.271 OA
ATOM      2  C   UNL d   1      25.333 -14.843  -2.800  0.00  0.00     0.246 C 
ATOM      3  N   UNL d   1      24.650 -15.486  -1.783  0.00  0.00    -0.324 N 
ATOM      4  H   UNL d   1      23.644 -15.332  -1.789  0.00  0.00     0.169 HD
ENDROOT
BRANCH   3   5
ATOM      5  C   UNL d   1      25.174 -16.422  -0.866  0.00  0.00     0.050 C 
ATOM      6  C   UNL d   1      26.505 -16.258  -0.463  0.00  0.00     0.030 C 
ATOM      7  C   UNL d   1      27.172 -17.236   0.262  0.00  0.00     0.002 C 
ATOM      8  C   UNL d   1      26.465 -18.322   0.745  0.00  0.00     0.001 C 
ATOM      9  C   UNL d   1      25.091 -18.413   0.509  0.00  0.00     0.019 C 
ATOM     10  C   UNL d   1      24.428 -17.491  -0.329  0.00  0.00     0.059 C 
BRANCH  10  11
ATOM     11  C   UNL d   1      22.983 -17.808  -0.618  0.00  0.00     0.258 C 
ATOM     12  O   UNL d   1      22.273 -16.971  -1.132  0.00  0.00    -0.267 OA
ATOM     13  N   UNL d   1      22.536 -19.044  -0.178  0.00  0.00    -0.323 N 
ATOM     14  H   UNL d   1      22.983 -19.376   0.665  0.00  0.00     0.169 HD
BRANCH  13  15
ATOM     15  C   UNL d   1      21.187 -19.396  -0.248  0.00  0.00     0.037 C 
ATOM     16  C   UNL d   1      20.282 -19.076  -1.269  0.00  0.00     0.032 C 
ATOM     17  C   UNL d   1      19.005 -19.686  -1.239  0.00  0.00     0.042 C 
ATOM     18  C   UNL d   1      18.651 -20.289  -0.043  0.00  0.00     0.105 C 
ATOM     19  C   UNL d   1      19.409 -20.013   1.047  0.00  0.00     0.107 C 
ATOM     20  O   UNL d   1      17.759 -21.262   0.346  0.00  0.00    -0.323 OA
ATOM     21  C   UNL d   1      20.739 -20.057   0.863  0.00  0.00     0.069 C 
ATOM     22  O   UNL d   1      18.827 -20.323   2.228  0.00  0.00    -0.323 OA
ATOM     23  C   UNL d   1      18.234 -21.506   1.725  0.00  0.00     0.352 C 
ENDBRANCH  13  15
ENDBRANCH  10  11
ENDBRANCH   3   5
BRANCH   2  24
ATOM     24  C   UNL d   1      26.854 -15.036  -2.945  0.00  0.00     0.281 C 
BRANCH  24  25
ATOM     25  O   UNL d   1      27.614 -13.866  -2.625  0.00  0.00    -0.312 OA
BRANCH  25  26
ATOM     26  C   UNL d   1      26.862 -12.908  -2.004  0.00  0.00     0.259 C 
ATOM     27  O   UNL d   1      26.463 -11.891  -2.516  0.00  0.00    -0.265 OA
BRANCH  26  28
ATOM     28  C   UNL d   1      26.604 -13.303  -0.562  0.00  0.00     0.111 C 
BRANCH  28  29
ATOM     29  C   UNL d   1      27.676 -12.693   0.339  0.00  0.00     0.014 C 
BRANCH  29  30
ATOM     30  C   UNL d   1      27.105 -12.232   1.674  0.00  0.00     0.037 C 
BRANCH  30  31
ATOM     31  C   UNL d   1      27.586 -13.120   2.772  0.00  0.00    -0.050 A 
ATOM     32  C   UNL d   1      27.877 -12.749   4.021  0.00  0.00    -0.006 A 
ATOM     33  C   UNL d   1      27.832 -11.504   4.708  0.00  0.00     0.014 A 
ATOM     34  C   UNL d   1      28.277 -13.992   4.704  0.00  0.00     0.038 A 
ATOM     35  C   UNL d   1      28.183 -11.476   6.002  0.00  0.00     0.001 A 
ATOM     36  C   UNL d   1      28.598 -12.683   6.704  0.00  0.00     0.002 A 
ATOM     37  C   UNL d   1      28.655 -13.900   6.128  0.00  0.00     0.030 A 
ATOM     38  N   UNL d   1      28.231 -15.005   3.928  0.00  0.00    -0.385 N 
ATOM     39  C   UNL d   1      27.777 -14.595   2.581  0.00  0.00     0.155 A 
ATOM     40  H   UNL d   1      28.476 -15.950   4.218  0.00  0.00     0.160 HD
ENDBRANCH  30  31
ENDBRANCH  29  30
ENDBRANCH  28  29
ENDBRANCH  26  28
ENDBRANCH  25  26
ENDBRANCH  24  25
ENDBRANCH   2  24
TORSDOF 10
ENDMDL
MODEL 5
REMARK VINA RESULT:   -11.312      1.034      2.164
REMARK INTER + INTRA:         -16.530
REMARK INTER:                 -14.295
REMARK INTRA:                  -2.236
REMARK CONF_INDEPENDENT:        2.983
REMARK UNBOUND:                -2.236
REMARK  10 active torsions:
REMARK  status: ('A' for Active; 'I' for Inactive)
REMARK    1  A    between atoms: C_2  and  C_3 
REMARK       I    between atoms: C_2  and  N_19 
REMARK    2  A    between atoms: C_3  and  O_4 
REMARK    3  A    between atoms: O_4  and  C_5 
REMARK    4  A    between atoms: C_5  and  C_7 
REMARK    5  A    between atoms: C_7  and  C_8 
REMARK    6  A    between atoms: C_8  and  C_9 
REMARK    7  A    between atoms: C_9  and  C_10 
REMARK    8  A    between atoms: N_19  and  C_20 
REMARK    9  A    between atoms: C_25  and  C_26 
REMARK       I    between atoms: C_26  and  N_28 
REMARK   10  A    between atoms: N_28  and  C_29 
ROOT
ATOM      1  O   UNL d   1      24.657 -14.311  -3.966  0.00  0.00    -0.271 OA
ATOM      2  C   UNL d   1      25.352 -15.003  -3.220  0.00  0.00     0.246 C 
ATOM      3  N   UNL d   1      24.826 -15.366  -1.992  0.00  0.00    -0.324 N 
ATOM      4  H   UNL d   1      23.893 -15.004  -1.811  0.00  0.00     0.169 HD
ENDROOT
BRANCH   3   5
ATOM      5  C   UNL d   1      25.377 -16.280  -1.068  0.00  0.00     0.050 C 
ATOM      6  C   UNL d   1      26.738 -16.153  -0.765  0.00  0.00     0.030 C 
ATOM      7  C   UNL d   1      27.416 -17.124  -0.040  0.00  0.00     0.002 C 
ATOM      8  C   UNL d   1      26.702 -18.156   0.542  0.00  0.00     0.001 C 
ATOM      9  C   UNL d   1      25.312 -18.200   0.404  0.00  0.00     0.019 C 
ATOM     10  C   UNL d   1      24.629 -17.291  -0.431  0.00  0.00     0.059 C 
BRANCH  10  11
ATOM     11  C   UNL d   1      23.156 -17.560  -0.605  0.00  0.00     0.258 C 
ATOM     12  O   UNL d   1      22.414 -16.662  -0.937  0.00  0.00    -0.267 OA
ATOM     13  N   UNL d   1      22.733 -18.838  -0.277  0.00  0.00    -0.323 N 
ATOM     14  H   UNL d   1      23.257 -19.275   0.469  0.00  0.00     0.169 HD
BRANCH  13  15
ATOM     15  C   UNL d   1      21.377 -19.170  -0.249  0.00  0.00     0.037 C 
ATOM     16  C   UNL d   1      20.437 -18.971  -1.270  0.00  0.00     0.032 C 
ATOM     17  C   UNL d   1      19.154 -19.546  -1.112  0.00  0.00     0.042 C 
ATOM     18  C   UNL d   1      18.838 -19.977   0.167  0.00  0.00     0.105 C 
ATOM     19  C   UNL d   1      19.641 -19.573   1.181  0.00  0.00     0.107 C 
ATOM     20  O   UNL d   1      17.948 -20.872   0.715  0.00  0.00    -0.323 OA
ATOM     21  C   UNL d   1      20.963 -19.667   0.956  0.00  0.00     0.069 C 
ATOM     22  O   UNL d   1      19.101 -19.711   2.413  0.00  0.00    -0.323 OA
ATOM     23  C   UNL d   1      18.472 -20.938   2.096  0.00  0.00     0.352 C 
ENDBRANCH  13  15
ENDBRANCH  10  11
ENDBRANCH   3   5
BRANCH   2  24
ATOM     24  C   UNL d   1      26.735 -15.529  -3.649  0.00  0.00     0.281 C 
BRANCH  24  25
ATOM     25  O   UNL d   1      26.916 -15.576  -5.067  0.00  0.00    -0.312 OA
BRANCH  25  26
ATOM     26  C   UNL d   1      27.851 -14.679  -5.504  0.00  0.00     0.259 C 
ATOM     27  O   UNL d   1      27.759 -13.999  -6.496  0.00  0.00    -0.265 OA
BRANCH  26  28
ATOM     28  C   UNL d   1      29.040 -14.666  -4.560  0.00  0.00     0.111 C 
BRANCH  28  29
ATOM     29  C   UNL d   1      30.265 -15.244  -5.266  0.00  0.00     0.014 C 
BRANCH  29  30
ATOM     30  C   UNL d   1      29.951 -16.562  -5.965  0.00  0.00     0.037 C 
BRANCH  30  31
ATOM     31  C   UNL d   1      30.573 -17.696  -5.221  0.00  0.00    -0.050 A 
ATOM     32  C   UNL d   1      30.595 -17.857  -3.896  0.00  0.00    -0.006 A 
ATOM     33  C   UNL d   1      30.082 -17.096  -2.809  0.00  0.00     0.014 A 
ATOM     34  C   UNL d   1      31.297 -19.135  -3.679  0.00  0.00     0.038 A 
ATOM     35  C   UNL d   1      30.266 -17.559  -1.563  0.00  0.00     0.001 A 
ATOM     36  C   UNL d   1      30.968 -18.809  -1.312  0.00  0.00     0.002 A 
ATOM     37  C   UNL d   1      31.474 -19.592  -2.287  0.00  0.00     0.030 A 
ATOM     38  N   UNL d   1      31.661 -19.676  -4.776  0.00  0.00    -0.385 N 
ATOM     39  C   UNL d   1      31.245 -18.839  -5.922  0.00  0.00     0.155 A 
ATOM     40  H   UNL d   1      32.164 -20.561  -4.829  0.00  0.00     0.160 HD
ENDBRANCH  30  31
ENDBRANCH  29  30
ENDBRANCH  28  29
ENDBRANCH  26  28
ENDBRANCH  25  26
ENDBRANCH  24  25
ENDBRANCH   2  24
TORSDOF 10
ENDMDL
MODEL 6
REMARK VINA RESULT:   -11.058      2.203      3.433
REMARK INTER + INTRA:         -16.190
REMARK INTER:                 -14.041
REMARK INTRA:                  -2.148
REMARK CONF_INDEPENDENT:        2.983
REMARK UNBOUND:                -2.148
REMARK  10 active torsions:
REMARK  status: ('A' for Active; 'I' for Inactive)
REMARK    1  A    between atoms: C_2  and  C_3 
REMARK       I    between atoms: C_2  and  N_19 
REMARK    2  A    between atoms: C_3  and  O_4 
REMARK    3  A    between atoms: O_4  and  C_5 
REMARK    4  A    between atoms: C_5  and  C_7 
REMARK    5  A    between atoms: C_7  and  C_8 
REMARK    6  A    between atoms: C_8  and  C_9 
REMARK    7  A    between atoms: C_9  and  C_10 
REMARK    8  A    between atoms: N_19  and  C_20 
REMARK    9  A    between atoms: C_25  and  C_26 
REMARK       I    between atoms: C_26  and  N_28 
REMARK   10  A    between atoms: N_28  and  C_29 
ROOT
ATOM      1  O   UNL d   1      24.589 -14.325  -3.874  0.00  0.00    -0.271 OA
ATOM      2  C   UNL d   1      25.283 -15.017  -3.125  0.00  0.00     0.246 C 
ATOM      3  N   UNL d   1      24.763 -15.360  -1.890  0.00  0.00    -0.324 N 
ATOM      4  H   UNL d   1      23.835 -14.987  -1.706  0.00  0.00     0.169 HD
ENDROOT
BRANCH   3   5
ATOM      5  C   UNL d   1      25.311 -16.270  -0.961  0.00  0.00     0.050 C 
ATOM      6  C   UNL d   1      26.663 -16.122  -0.630  0.00  0.00     0.030 C 
ATOM      7  C   UNL d   1      27.343 -17.085   0.103  0.00  0.00     0.002 C 
ATOM      8  C   UNL d   1      26.636 -18.133   0.665  0.00  0.00     0.001 C 
ATOM      9  C   UNL d   1      25.251 -18.200   0.499  0.00  0.00     0.019 C 
ATOM     10  C   UNL d   1      24.569 -17.298  -0.344  0.00  0.00     0.059 C 
BRANCH  10  11
ATOM     11  C   UNL d   1      23.104 -17.592  -0.549  0.00  0.00     0.258 C 
ATOM     12  O   UNL d   1      22.355 -16.707  -0.905  0.00  0.00    -0.267 OA
ATOM     13  N   UNL d   1      22.693 -18.874  -0.220  0.00  0.00    -0.323 N 
ATOM     14  H   UNL d   1      23.207 -19.296   0.540  0.00  0.00     0.169 HD
BRANCH  13  15
ATOM     15  C   UNL d   1      21.342 -19.226  -0.221  0.00  0.00     0.037 C 
ATOM     16  C   UNL d   1      20.428 -19.066  -1.270  0.00  0.00     0.032 C 
ATOM     17  C   UNL d   1      19.150 -19.658  -1.132  0.00  0.00     0.042 C 
ATOM     18  C   UNL d   1      18.807 -20.064   0.147  0.00  0.00     0.105 C 
ATOM     19  C   UNL d   1      19.576 -19.624   1.173  0.00  0.00     0.107 C 
ATOM     20  O   UNL d   1      17.916 -20.961   0.693  0.00  0.00    -0.323 OA
ATOM     21  C   UNL d   1      20.904 -19.702   0.984  0.00  0.00     0.069 C 
ATOM     22  O   UNL d   1      19.006 -19.743   2.393  0.00  0.00    -0.323 OA
ATOM     23  C   UNL d   1      18.404 -20.987   2.088  0.00  0.00     0.352 C 
ENDBRANCH  13  15
ENDBRANCH  10  11
ENDBRANCH   3   5
BRANCH   2  24
ATOM     24  C   UNL d   1      26.657 -15.561  -3.559  0.00  0.00     0.281 C 
BRANCH  24  25
ATOM     25  O   UNL d   1      26.790 -15.722  -4.975  0.00  0.00    -0.312 OA
BRANCH  25  26
ATOM     26  C   UNL d   1      27.961 -15.202  -5.451  0.00  0.00     0.259 C 
ATOM     27  O   UNL d   1      28.150 -14.826  -6.582  0.00  0.00    -0.265 OA
BRANCH  26  28
ATOM     28  C   UNL d   1      29.004 -15.173  -4.349  0.00  0.00     0.111 C 
BRANCH  28  29
ATOM     29  C   UNL d   1      29.926 -16.384  -4.479  0.00  0.00     0.014 C 
BRANCH  29  30
ATOM     30  C   UNL d   1      31.260 -16.163  -3.776  0.00  0.00     0.037 C 
BRANCH  30  31
ATOM     31  C   UNL d   1      31.143 -16.522  -2.333  0.00  0.00    -0.050 A 
ATOM     32  C   UNL d   1      31.875 -16.027  -1.332  0.00  0.00    -0.006 A 
ATOM     33  C   UNL d   1      32.923 -15.067  -1.267  0.00  0.00     0.014 A 
ATOM     34  C   UNL d   1      31.352 -16.680  -0.118  0.00  0.00     0.038 A 
ATOM     35  C   UNL d   1      33.448 -14.775  -0.068  0.00  0.00     0.001 A 
ATOM     36  C   UNL d   1      32.965 -15.413   1.149  0.00  0.00     0.002 A 
ATOM     37  C   UNL d   1      31.970 -16.322   1.173  0.00  0.00     0.030 A 
ATOM     38  N   UNL d   1      30.400 -17.490  -0.380  0.00  0.00    -0.385 N 
ATOM     39  C   UNL d   1      30.124 -17.502  -1.832  0.00  0.00     0.155 A 
ATOM     40  H   UNL d   1      29.915 -18.037   0.329  0.00  0.00     0.160 HD
ENDBRANCH  30  31
ENDBRANCH  29  30
ENDBRANCH  28  29
ENDBRANCH  26  28
ENDBRANCH  25  26
ENDBRANCH  24  25
ENDBRANCH   2  24
TORSDOF 10
ENDMDL
MODEL 7
REMARK VINA RESULT:   -10.950      2.546      4.605
REMARK INTER + INTRA:         -15.976
REMARK INTER:                 -13.933
REMARK INTRA:                  -2.043
REMARK CONF_INDEPENDENT:        2.983
REMARK UNBOUND:                -2.043
REMARK  10 active torsions:
REMARK  status: ('A' for Active; 'I' for Inactive)
REMARK    1  A    between atoms: C_2  and  C_3 
REMARK       I    between atoms: C_2  and  N_19 
REMARK    2  A    between atoms: C_3  and  O_4 
REMARK    3  A    between atoms: O_4  and  C_5 
REMARK    4  A    between atoms: C_5  and  C_7 
REMARK    5  A    between atoms: C_7  and  C_8 
REMARK    6  A    between atoms: C_8  and  C_9 
REMARK    7  A    between atoms: C_9  and  C_10 
REMARK    8  A    between atoms: N_19  and  C_20 
REMARK    9  A    between atoms: C_25  and  C_26 
REMARK       I    between atoms: C_26  and  N_28 
REMARK   10  A    between atoms: N_28  and  C_29 
ROOT
ATOM      1  O   UNL d   1      24.576 -14.394  -3.991  0.00  0.00    -0.271 OA
ATOM      2  C   UNL d   1      25.278 -15.084  -3.249  0.00  0.00     0.246 C 
ATOM      3  N   UNL d   1      24.803 -15.367  -1.981  0.00  0.00    -0.324 N 
ATOM      4  H   UNL d   1      23.897 -14.956  -1.770  0.00  0.00     0.169 HD
ENDROOT
BRANCH   3   5
ATOM      5  C   UNL d   1      25.360 -16.264  -1.045  0.00  0.00     0.050 C 
ATOM      6  C   UNL d   1      26.716 -16.112  -0.731  0.00  0.00     0.030 C 
ATOM      7  C   UNL d   1      27.404 -17.065   0.008  0.00  0.00     0.002 C 
ATOM      8  C   UNL d   1      26.703 -18.105   0.592  0.00  0.00     0.001 C 
ATOM      9  C   UNL d   1      25.315 -18.174   0.442  0.00  0.00     0.019 C 
ATOM     10  C   UNL d   1      24.625 -17.283  -0.407  0.00  0.00     0.059 C 
BRANCH  10  11
ATOM     11  C   UNL d   1      23.158 -17.579  -0.592  0.00  0.00     0.258 C 
ATOM     12  O   UNL d   1      22.403 -16.697  -0.939  0.00  0.00    -0.267 OA
ATOM     13  N   UNL d   1      22.753 -18.861  -0.256  0.00  0.00    -0.323 N 
ATOM     14  H   UNL d   1      23.278 -19.282   0.498  0.00  0.00     0.169 HD
BRANCH  13  15
ATOM     15  C   UNL d   1      21.403 -19.216  -0.238  0.00  0.00     0.037 C 
ATOM     16  C   UNL d   1      20.477 -19.069  -1.280  0.00  0.00     0.032 C 
ATOM     17  C   UNL d   1      19.202 -19.661  -1.121  0.00  0.00     0.042 C 
ATOM     18  C   UNL d   1      18.873 -20.053   0.166  0.00  0.00     0.105 C 
ATOM     19  C   UNL d   1      19.652 -19.601   1.178  0.00  0.00     0.107 C 
ATOM     20  O   UNL d   1      17.989 -20.945   0.731  0.00  0.00    -0.323 OA
ATOM     21  C   UNL d   1      20.978 -19.679   0.977  0.00  0.00     0.069 C 
ATOM     22  O   UNL d   1      19.095 -19.706   2.406  0.00  0.00    -0.323 OA
ATOM     23  C   UNL d   1      18.492 -20.954   2.122  0.00  0.00     0.352 C 
ENDBRANCH  13  15
ENDBRANCH  10  11
ENDBRANCH   3   5
BRANCH   2  24
ATOM     24  C   UNL d   1      26.613 -15.691  -3.723  0.00  0.00     0.281 C 
BRANCH  24  25
ATOM     25  O   UNL d   1      26.864 -15.507  -5.119  0.00  0.00    -0.312 OA
BRANCH  25  26
ATOM     26  C   UNL d   1      28.170 -15.197  -5.379  0.00  0.00     0.259 C 
ATOM     27  O   UNL d   1      29.065 -15.994  -5.510  0.00  0.00    -0.265 OA
BRANCH  26  28
ATOM     28  C   UNL d   1      28.339 -13.691  -5.469  0.00  0.00     0.111 C 
BRANCH  28  29
ATOM     29  C   UNL d   1      29.478 -13.244  -4.555  0.00  0.00     0.014 C 
BRANCH  29  30
ATOM     30  C   UNL d   1      29.228 -11.860  -3.968  0.00  0.00     0.037 C 
BRANCH  30  31
ATOM     31  C   UNL d   1      27.872 -11.376  -4.358  0.00  0.00    -0.050 A 
ATOM     32  C   UNL d   1      27.574 -10.623  -5.420  0.00  0.00    -0.006 A 
ATOM     33  C   UNL d   1      28.352 -10.066  -6.473  0.00  0.00     0.014 A 
ATOM     34  C   UNL d   1      26.112 -10.449  -5.366  0.00  0.00     0.038 A 
ATOM     35  C   UNL d   1      27.725  -9.353  -7.420  0.00  0.00     0.001 A 
ATOM     36  C   UNL d   1      26.283  -9.148  -7.389  0.00  0.00     0.002 A 
ATOM     37  C   UNL d   1      25.477  -9.652  -6.433  0.00  0.00     0.030 A 
ATOM     38  N   UNL d   1      25.593 -11.041  -4.360  0.00  0.00    -0.385 N 
ATOM     39  C   UNL d   1      26.642 -11.725  -3.574  0.00  0.00     0.155 A 
ATOM     40  H   UNL d   1      24.596 -11.030  -4.152  0.00  0.00     0.160 HD
ENDBRANCH  30  31
ENDBRANCH  29  30
ENDBRANCH  28  29
ENDBRANCH  26  28
ENDBRANCH  25  26
ENDBRANCH  24  25
ENDBRANCH   2  24
TORSDOF 10
ENDMDL
MODEL 8
REMARK VINA RESULT:   -10.888      2.771      4.397
REMARK INTER + INTRA:         -16.897
REMARK INTER:                 -13.871
REMARK INTRA:                  -3.026
REMARK CONF_INDEPENDENT:        2.983
REMARK UNBOUND:                -3.026
REMARK  10 active torsions:
REMARK  status: ('A' for Active; 'I' for Inactive)
REMARK    1  A    between atoms: C_2  and  C_3 
REMARK       I    between atoms: C_2  and  N_19 
REMARK    2  A    between atoms: C_3  and  O_4 
REMARK    3  A    between atoms: O_4  and  C_5 
REMARK    4  A    between atoms: C_5  and  C_7 
REMARK    5  A    between atoms: C_7  and  C_8 
REMARK    6  A    between atoms: C_8  and  C_9 
REMARK    7  A    between atoms: C_9  and  C_10 
REMARK    8  A    between atoms: N_19  and  C_20 
REMARK    9  A    between atoms: C_25  and  C_26 
REMARK       I    between atoms: C_26  and  N_28 
REMARK   10  A    between atoms: N_28  and  C_29 
ROOT
ATOM      1  O   UNL d   1      24.526 -14.172  -3.819  0.00  0.00    -0.271 OA
ATOM      2  C   UNL d   1      25.230 -14.923  -3.141  0.00  0.00     0.246 C 
ATOM      3  N   UNL d   1      24.782 -15.270  -1.879  0.00  0.00    -0.324 N 
ATOM      4  H   UNL d   1      23.894 -14.849  -1.617  0.00  0.00     0.169 HD
ENDROOT
BRANCH   3   5
ATOM      5  C   UNL d   1      25.341 -16.236  -1.015  0.00  0.00     0.050 C 
ATOM      6  C   UNL d   1      26.697 -16.107  -0.690  0.00  0.00     0.030 C 
ATOM      7  C   UNL d   1      27.386 -17.114  -0.027  0.00  0.00     0.002 C 
ATOM      8  C   UNL d   1      26.686 -18.196   0.475  0.00  0.00     0.001 C 
ATOM      9  C   UNL d   1      25.298 -18.254   0.321  0.00  0.00     0.019 C 
ATOM     10  C   UNL d   1      24.606 -17.301  -0.456  0.00  0.00     0.059 C 
BRANCH  10  11
ATOM     11  C   UNL d   1      23.140 -17.583  -0.663  0.00  0.00     0.258 C 
ATOM     12  O   UNL d   1      22.406 -16.704  -1.060  0.00  0.00    -0.267 OA
ATOM     13  N   UNL d   1      22.708 -18.845  -0.286  0.00  0.00    -0.323 N 
ATOM     14  H   UNL d   1      23.209 -19.244   0.496  0.00  0.00     0.169 HD
BRANCH  13  15
ATOM     15  C   UNL d   1      21.353 -19.180  -0.285  0.00  0.00     0.037 C 
ATOM     16  C   UNL d   1      20.405 -18.871  -1.270  0.00  0.00     0.032 C 
ATOM     17  C   UNL d   1      19.124 -19.461  -1.166  0.00  0.00     0.042 C 
ATOM     18  C   UNL d   1      18.818 -20.030   0.060  0.00  0.00     0.105 C 
ATOM     19  C   UNL d   1      19.629 -19.740   1.106  0.00  0.00     0.107 C 
ATOM     20  O   UNL d   1      17.932 -20.982   0.513  0.00  0.00    -0.323 OA
ATOM     21  C   UNL d   1      20.948 -19.807   0.861  0.00  0.00     0.069 C 
ATOM     22  O   UNL d   1      19.098 -20.014   2.320  0.00  0.00    -0.323 OA
ATOM     23  C   UNL d   1      18.467 -21.199   1.874  0.00  0.00     0.352 C 
ENDBRANCH  13  15
ENDBRANCH  10  11
ENDBRANCH   3   5
BRANCH   2  24
ATOM     24  C   UNL d   1      26.533 -15.534  -3.689  0.00  0.00     0.281 C 
BRANCH  24  25
ATOM     25  O   UNL d   1      26.562 -15.641  -5.116  0.00  0.00    -0.312 OA
BRANCH  25  26
ATOM     26  C   UNL d   1      27.506 -14.828  -5.680  0.00  0.00     0.259 C 
ATOM     27  O   UNL d   1      28.402 -15.193  -6.401  0.00  0.00    -0.265 OA
BRANCH  26  28
ATOM     28  C   UNL d   1      27.272 -13.389  -5.260  0.00  0.00     0.111 C 
BRANCH  28  29
ATOM     29  C   UNL d   1      28.516 -12.848  -4.558  0.00  0.00     0.014 C 
BRANCH  29  30
ATOM     30  C   UNL d   1      28.175 -12.163  -3.240  0.00  0.00     0.037 C 
BRANCH  30  31
ATOM     31  C   UNL d   1      28.737 -12.942  -2.098  0.00  0.00    -0.050 A 
ATOM     32  C   UNL d   1      28.175 -13.108  -0.899  0.00  0.00    -0.006 A 
ATOM     33  C   UNL d   1      26.954 -12.662  -0.321  0.00  0.00     0.014 A 
ATOM     34  C   UNL d   1      29.110 -13.970  -0.155  0.00  0.00     0.038 A 
ATOM     35  C   UNL d   1      26.672 -13.030   0.938  0.00  0.00     0.001 A 
ATOM     36  C   UNL d   1      27.581 -13.868   1.707  0.00  0.00     0.002 A 
ATOM     37  C   UNL d   1      28.749 -14.340   1.227  0.00  0.00     0.030 A 
ATOM     38  N   UNL d   1      30.134 -14.281  -0.851  0.00  0.00    -0.385 N 
ATOM     39  C   UNL d   1      30.042 -13.675  -2.197  0.00  0.00     0.155 A 
ATOM     40  H   UNL d   1      30.893 -14.867  -0.506  0.00  0.00     0.160 HD
ENDBRANCH  30  31
ENDBRANCH  29  30
ENDBRANCH  28  29
ENDBRANCH  26  28
ENDBRANCH  25  26
ENDBRANCH  24  25
ENDBRANCH   2  24
TORSDOF 10
ENDMDL
MODEL 9
REMARK VINA RESULT:   -10.742      2.329      4.248
REMARK INTER + INTRA:         -16.501
REMARK INTER:                 -13.725
REMARK INTRA:                  -2.777
REMARK CONF_INDEPENDENT:        2.983
REMARK UNBOUND:                -2.777
REMARK  10 active torsions:
REMARK  status: ('A' for Active; 'I' for Inactive)
REMARK    1  A    between atoms: C_2  and  C_3 
REMARK       I    between atoms: C_2  and  N_19 
REMARK    2  A    between atoms: C_3  and  O_4 
REMARK    3  A    between atoms: O_4  and  C_5 
REMARK    4  A    between atoms: C_5  and  C_7 
REMARK    5  A    between atoms: C_7  and  C_8 
REMARK    6  A    between atoms: C_8  and  C_9 
REMARK    7  A    between atoms: C_9  and  C_10 
REMARK    8  A    between atoms: N_19  and  C_20 
REMARK    9  A    between atoms: C_25  and  C_26 
REMARK       I    between atoms: C_26  and  N_28 
REMARK   10  A    between atoms: N_28  and  C_29 
ROOT
ATOM      1  O   UNL d   1      24.792 -14.334  -3.850  0.00  0.00    -0.271 OA
ATOM      2  C   UNL d   1      25.459 -15.016  -3.069  0.00  0.00     0.246 C 
ATOM      3  N   UNL d   1      24.885 -15.368  -1.860  0.00  0.00    -0.324 N 
ATOM      4  H   UNL d   1      23.944 -15.008  -1.720  0.00  0.00     0.169 HD
ENDROOT
BRANCH   3   5
ATOM      5  C   UNL d   1      25.401 -16.271  -0.905  0.00  0.00     0.050 C 
ATOM      6  C   UNL d   1      26.749 -16.138  -0.551  0.00  0.00     0.030 C 
ATOM      7  C   UNL d   1      27.399 -17.100   0.211  0.00  0.00     0.002 C 
ATOM      8  C   UNL d   1      26.665 -18.127   0.776  0.00  0.00     0.001 C 
ATOM      9  C   UNL d   1      25.282 -18.175   0.585  0.00  0.00     0.019 C 
ATOM     10  C   UNL d   1      24.630 -17.276  -0.286  0.00  0.00     0.059 C 
BRANCH  10  11
ATOM     11  C   UNL d   1      23.166 -17.550  -0.514  0.00  0.00     0.258 C 
ATOM     12  O   UNL d   1      22.430 -16.651  -0.858  0.00  0.00    -0.267 OA
ATOM     13  N   UNL d   1      22.738 -18.835  -0.218  0.00  0.00    -0.323 N 
ATOM     14  H   UNL d   1      23.238 -19.279   0.538  0.00  0.00     0.169 HD
BRANCH  13  15
ATOM     15  C   UNL d   1      21.384 -19.173  -0.242  0.00  0.00     0.037 C 
ATOM     16  C   UNL d   1      20.470 -18.931  -1.276  0.00  0.00     0.032 C 
ATOM     17  C   UNL d   1      19.186 -19.518  -1.179  0.00  0.00     0.042 C 
ATOM     18  C   UNL d   1      18.840 -20.010   0.069  0.00  0.00     0.105 C 
ATOM     19  C   UNL d   1      19.614 -19.651   1.122  0.00  0.00     0.107 C 
ATOM     20  O   UNL d   1      17.941 -20.934   0.551  0.00  0.00    -0.323 OA
ATOM     21  C   UNL d   1      20.941 -19.728   0.927  0.00  0.00     0.069 C 
ATOM     22  O   UNL d   1      19.043 -19.850   2.332  0.00  0.00    -0.323 OA
ATOM     23  C   UNL d   1      18.429 -21.063   1.941  0.00  0.00     0.352 C 
ENDBRANCH  13  15
ENDBRANCH  10  11
ENDBRANCH   3   5
BRANCH   2  24
ATOM     24  C   UNL d   1      26.860 -15.542  -3.436  0.00  0.00     0.281 C 
BRANCH  24  25
ATOM     25  O   UNL d   1      27.388 -14.975  -4.639  0.00  0.00    -0.312 OA
BRANCH  25  26
ATOM     26  C   UNL d   1      28.564 -15.559  -5.018  0.00  0.00     0.259 C 
ATOM     27  O   UNL d   1      28.968 -16.630  -4.637  0.00  0.00    -0.265 OA
BRANCH  26  28
ATOM     28  C   UNL d   1      29.304 -14.657  -5.989  0.00  0.00     0.111 C 
BRANCH  28  29
ATOM     29  C   UNL d   1      28.304 -13.955  -6.905  0.00  0.00     0.014 C 
BRANCH  29  30
ATOM     30  C   UNL d   1      28.304 -12.445  -6.697  0.00  0.00     0.037 C 
BRANCH  30  31
ATOM     31  C   UNL d   1      27.449 -12.090  -5.526  0.00  0.00    -0.050 A 
ATOM     32  C   UNL d   1      27.798 -12.164  -4.239  0.00  0.00    -0.006 A 
ATOM     33  C   UNL d   1      28.990 -12.558  -3.570  0.00  0.00     0.014 A 
ATOM     34  C   UNL d   1      26.621 -11.680  -3.497  0.00  0.00     0.038 A 
ATOM     35  C   UNL d   1      29.019 -12.497  -2.230  0.00  0.00     0.001 A 
ATOM     36  C   UNL d   1      27.868 -12.039  -1.464  0.00  0.00     0.002 A 
ATOM     37  C   UNL d   1      26.709 -11.639  -2.024  0.00  0.00     0.030 A 
ATOM     38  N   UNL d   1      25.662 -11.355  -4.274  0.00  0.00    -0.385 N 
ATOM     39  C   UNL d   1      26.054 -11.562  -5.685  0.00  0.00     0.155 A 
ATOM     40  H   UNL d   1      24.764 -11.003  -3.946  0.00  0.00     0.160 HD
ENDBRANCH  30  31
ENDBRANCH  29  30
ENDBRANCH  28  29
ENDBRANCH  26  28
ENDBRANCH  25  26
ENDBRANCH  24  25
ENDBRANCH   2  24
TORSDOF 10
ENDMDL
