MODEL 1
REMARK VINA RESULT:    -8.835      0.000      0.000
REMARK INTER + INTRA:         -11.003
REMARK INTER:                 -10.326
REMARK INTRA:                  -0.677
REMARK CONF_INDEPENDENT:        1.492
REMARK UNBOUND:                -0.677
REMARK  5 active torsions:
REMARK  status: ('A' for Active; 'I' for Inactive)
REMARK    1  A    between atoms: C_2  and  C_4 
REMARK    2  A    between atoms: C_8  and  N_9 
REMARK    3  A    between atoms: N_9  and  C_10 
REMARK    4  A    between atoms: C_10  and  C_12 
REMARK       I    between atoms: C_12  and  N_14 
REMARK       I    between atoms: N_14  and  C_15 
REMARK       I    between atoms: C_15  and  N_17 
REMARK    5  A    between atoms: N_17  and  C_18 
ROOT
ATOM      1  C   UNL d   1      25.085 -17.234  -0.913  0.00  0.00     0.247 C 
ATOM      2  O   UNL d   1      25.671 -18.091  -0.241  0.00  0.00    -0.271 OA
ATOM      3  N   UNL d   1      23.695 -17.199  -1.099  0.00  0.00    -0.277 N 
ATOM      4  C   UNL d   1      22.865 -18.169  -0.554  0.00  0.00     0.327 C 
ATOM      5  O   UNL d   1      23.305 -19.108   0.118  0.00  0.00    -0.247 OA
ATOM      6  N   UNL d   1      21.503 -18.051  -0.829  0.00  0.00    -0.309 N 
ATOM      7  H   UNL d   1      23.282 -16.451  -1.634  0.00  0.00     0.173 HD
ATOM      8  H   UNL d   1      21.170 -17.449  -1.569  0.00  0.00     0.170 HD
ENDROOT
BRANCH   1   9
ATOM      9  C   UNL d   1      25.946 -16.118  -1.588  0.00  0.00     0.170 C 
ATOM     10  C   UNL d   1      26.544 -15.213  -0.508  0.00  0.00     0.042 C 
BRANCH   9  11
ATOM     11  N   UNL d   1      25.101 -15.327  -2.526  0.00  0.00    -0.377 N 
ATOM     12  H   UNL d   1      24.093 -15.407  -2.366  0.00  0.00     0.160 HD
BRANCH  11  13
ATOM     13  C   UNL d   1      25.568 -14.425  -3.465  0.00  0.00     0.029 A 
ATOM     14  C   UNL d   1      25.235 -13.065  -3.412  0.00  0.00     0.029 A 
ATOM     15  C   UNL d   1      25.801 -12.142  -4.310  0.00  0.00     0.003 A 
ATOM     16  C   UNL d   1      26.706 -12.567  -5.284  0.00  0.00     0.015 A 
ATOM     17  C   UNL d   1      27.048 -13.912  -5.346  0.00  0.00     0.011 A 
ATOM     18  C   UNL d   1      26.434 -14.823  -4.487  0.00  0.00     0.044 A 
BRANCH  17  19
ATOM     19  C   UNL d   1      28.155 -14.377  -6.221  0.00  0.00     0.155 C 
ATOM     20  C   UNL d   1      28.894 -13.356  -7.048  0.00  0.00     0.096 C 
ATOM     21  O   UNL d   1      28.424 -15.575  -6.271  0.00  0.00    -0.293 OA
ENDBRANCH  17  19
ENDBRANCH  11  13
ENDBRANCH   9  11
ENDBRANCH   1   9
BRANCH   6  22
ATOM     22  C   UNL d   1      20.533 -18.950  -0.266  0.00  0.00     0.036 A 
ATOM     23  C   UNL d   1      20.656 -19.420   1.049  0.00  0.00     0.030 A 
ATOM     24  C   UNL d   1      19.753 -20.376   1.562  0.00  0.00     0.009 A 
ATOM     25  C   UNL d   1      18.685 -20.846   0.790  0.00  0.00    -0.062 A 
ATOM     26  C   UNL d   1      17.654 -21.783   1.356  0.00  0.00     0.048 C 
ATOM     27  C   UNL d   1      18.563 -20.381  -0.520  0.00  0.00     0.009 A 
ATOM     28  C   UNL d   1      19.468 -19.440  -1.033  0.00  0.00     0.030 A 
ENDBRANCH   6  22
TORSDOF 5
ENDMDL
MODEL 2
REMARK VINA RESULT:    -8.469      4.636      9.238
REMARK INTER + INTRA:         -10.482
REMARK INTER:                  -9.960
REMARK INTRA:                  -0.521
REMARK CONF_INDEPENDENT:        1.492
REMARK UNBOUND:                -0.521
REMARK  5 active torsions:
REMARK  status: ('A' for Active; 'I' for Inactive)
REMARK    1  A    between atoms: C_2  and  C_4 
REMARK    2  A    between atoms: C_8  and  N_9 
REMARK    3  A    between atoms: N_9  and  C_10 
REMARK    4  A    between atoms: C_10  and  C_12 
REMARK       I    between atoms: C_12  and  N_14 
REMARK       I    between atoms: N_14  and  C_15 
REMARK       I    between atoms: C_15  and  N_17 
REMARK    5  A    between atoms: N_17  and  C_18 
ROOT
ATOM      1  C   UNL d   1      26.977 -15.812   0.375  0.00  0.00     0.247 C 
ATOM      2  O   UNL d   1      26.280 -14.856   0.013  0.00  0.00    -0.271 OA
ATOM      3  N   UNL d   1      27.750 -15.820   1.546  0.00  0.00    -0.277 N 
ATOM      4  C   UNL d   1      27.814 -14.714   2.381  0.00  0.00     0.327 C 
ATOM      5  O   UNL d   1      27.196 -13.672   2.139  0.00  0.00    -0.247 OA
ATOM      6  N   UNL d   1      28.637 -14.825   3.502  0.00  0.00    -0.309 N 
ATOM      7  H   UNL d   1      28.269 -16.648   1.795  0.00  0.00     0.173 HD
ATOM      8  H   UNL d   1      29.326 -15.560   3.572  0.00  0.00     0.170 HD
ENDROOT
BRANCH   1   9
ATOM      9  C   UNL d   1      26.988 -17.091  -0.523  0.00  0.00     0.170 C 
ATOM     10  C   UNL d   1      26.965 -16.678  -1.997  0.00  0.00     0.042 C 
BRANCH   9  11
ATOM     11  N   UNL d   1      25.812 -17.945  -0.200  0.00  0.00    -0.377 N 
ATOM     12  H   UNL d   1      26.037 -18.824   0.275  0.00  0.00     0.160 HD
BRANCH  11  13
ATOM     13  C   UNL d   1      24.486 -17.586  -0.364  0.00  0.00     0.029 A 
ATOM     14  C   UNL d   1      24.112 -16.280  -0.706  0.00  0.00     0.029 A 
ATOM     15  C   UNL d   1      22.770 -15.954  -0.974  0.00  0.00     0.003 A 
ATOM     16  C   UNL d   1      21.776 -16.931  -0.895  0.00  0.00     0.015 A 
ATOM     17  C   UNL d   1      22.133 -18.231  -0.560  0.00  0.00     0.011 A 
ATOM     18  C   UNL d   1      23.458 -18.525  -0.242  0.00  0.00     0.044 A 
BRANCH  17  19
ATOM     19  C   UNL d   1      21.152 -19.341  -0.667  0.00  0.00     0.155 C 
ATOM     20  C   UNL d   1      20.722 -20.044   0.596  0.00  0.00     0.096 C 
ATOM     21  O   UNL d   1      20.737 -19.678  -1.774  0.00  0.00    -0.293 OA
ENDBRANCH  17  19
ENDBRANCH  11  13
ENDBRANCH   9  11
ENDBRANCH   1   9
BRANCH   6  22
ATOM     22  C   UNL d   1      28.733 -13.777   4.481  0.00  0.00     0.036 A 
ATOM     23  C   UNL d   1      28.545 -14.038   5.845  0.00  0.00     0.030 A 
ATOM     24  C   UNL d   1      28.547 -12.987   6.788  0.00  0.00     0.009 A 
ATOM     25  C   UNL d   1      28.783 -11.665   6.394  0.00  0.00    -0.062 A 
ATOM     26  C   UNL d   1      28.894 -10.551   7.398  0.00  0.00     0.048 C 
ATOM     27  C   UNL d   1      28.969 -11.404   5.037  0.00  0.00     0.009 A 
ATOM     28  C   UNL d   1      28.955 -12.447   4.098  0.00  0.00     0.030 A 
ENDBRANCH   6  22
TORSDOF 5
ENDMDL
MODEL 3
REMARK VINA RESULT:    -8.386      4.521      8.875
REMARK INTER + INTRA:         -10.589
REMARK INTER:                  -9.877
REMARK INTRA:                  -0.712
REMARK CONF_INDEPENDENT:        1.492
REMARK UNBOUND:                -0.712
REMARK  5 active torsions:
REMARK  status: ('A' for Active; 'I' for Inactive)
REMARK    1  A    between atoms: C_2  and  C_4 
REMARK    2  A    between atoms: C_8  and  N_9 
REMARK    3  A    between atoms: N_9  and  C_10 
REMARK    4  A    between atoms: C_10  and  C_12 
REMARK       I    between atoms: C_12  and  N_14 
REMARK       I    between atoms: N_14  and  C_15 
REMARK       I    between atoms: C_15  and  N_17 
REMARK    5  A    between atoms: N_17  and  C_18 
ROOT
ATOM      1  C   UNL d   1      26.886 -13.930  -0.486  0.00  0.00     0.247 C 
ATOM      2  O   UNL d   1      26.685 -12.710  -0.505  0.00  0.00    -0.271 OA
ATOM      3  N   UNL d   1      27.322 -14.636   0.646  0.00  0.00    -0.277 N 
ATOM      4  C   UNL d   1      27.597 -13.990   1.842  0.00  0.00     0.327 C 
ATOM      5  O   UNL d   1      27.473 -12.767   1.973  0.00  0.00    -0.247 OA
ATOM      6  N   UNL d   1      28.052 -14.788   2.892  0.00  0.00    -0.309 N 
ATOM      7  H   UNL d   1      27.434 -15.637   0.596  0.00  0.00     0.173 HD
ATOM      8  H   UNL d   1      28.392 -15.724   2.726  0.00  0.00     0.170 HD
ENDROOT
BRANCH   1   9
ATOM      9  C   UNL d   1      26.629 -14.735  -1.801  0.00  0.00     0.170 C 
ATOM     10  C   UNL d   1      26.874 -13.827  -3.009  0.00  0.00     0.042 C 
BRANCH   9  11
ATOM     11  N   UNL d   1      25.234 -15.254  -1.811  0.00  0.00    -0.377 N 
ATOM     12  H   UNL d   1      24.589 -14.742  -2.419  0.00  0.00     0.160 HD
BRANCH  11  13
ATOM     13  C   UNL d   1      24.801 -16.412  -1.189  0.00  0.00     0.029 A 
ATOM     14  C   UNL d   1      25.626 -17.136  -0.319  0.00  0.00     0.029 A 
ATOM     15  C   UNL d   1      25.140 -18.251   0.387  0.00  0.00     0.003 A 
ATOM     16  C   UNL d   1      23.817 -18.667   0.226  0.00  0.00     0.015 A 
ATOM     17  C   UNL d   1      22.986 -17.957  -0.631  0.00  0.00     0.011 A 
ATOM     18  C   UNL d   1      23.500 -16.890  -1.367  0.00  0.00     0.044 A 
BRANCH  17  19
ATOM     19  C   UNL d   1      21.527 -18.230  -0.677  0.00  0.00     0.155 C 
ATOM     20  C   UNL d   1      21.009 -19.482  -0.016  0.00  0.00     0.096 C 
ATOM     21  O   UNL d   1      20.783 -17.451  -1.270  0.00  0.00    -0.293 OA
ENDBRANCH  17  19
ENDBRANCH  11  13
ENDBRANCH   9  11
ENDBRANCH   1   9
BRANCH   6  22
ATOM     22  C   UNL d   1      28.304 -14.250   4.201  0.00  0.00     0.036 A 
ATOM     23  C   UNL d   1      29.210 -14.865   5.076  0.00  0.00     0.030 A 
ATOM     24  C   UNL d   1      29.380 -14.386   6.393  0.00  0.00     0.009 A 
ATOM     25  C   UNL d   1      28.686 -13.259   6.846  0.00  0.00    -0.062 A 
ATOM     26  C   UNL d   1      28.935 -12.673   8.208  0.00  0.00     0.048 C 
ATOM     27  C   UNL d   1      27.783 -12.647   5.976  0.00  0.00     0.009 A 
ATOM     28  C   UNL d   1      27.605 -13.131   4.671  0.00  0.00     0.030 A 
ENDBRANCH   6  22
TORSDOF 5
ENDMDL
MODEL 4
REMARK VINA RESULT:    -8.085      1.283      2.250
REMARK INTER + INTRA:         -10.287
REMARK INTER:                  -9.576
REMARK INTRA:                  -0.710
REMARK CONF_INDEPENDENT:        1.492
REMARK UNBOUND:                -0.710
REMARK  5 active torsions:
REMARK  status: ('A' for Active; 'I' for Inactive)
REMARK    1  A    between atoms: C_2  and  C_4 
REMARK    2  A    between atoms: C_8  and  N_9 
REMARK    3  A    between atoms: N_9  and  C_10 
REMARK    4  A    between atoms: C_10  and  C_12 
REMARK       I    between atoms: C_12  and  N_14 
REMARK       I    between atoms: N_14  and  C_15 
REMARK       I    between atoms: C_15  and  N_17 
REMARK    5  A    between atoms: N_17  and  C_18 
ROOT
ATOM      1  C   UNL d   1      25.461 -17.200  -0.663  0.00  0.00     0.247 C 
ATOM      2  O   UNL d   1      26.031 -18.154  -0.121  0.00  0.00    -0.271 OA
ATOM      3  N   UNL d   1      24.070 -17.101  -0.817  0.00  0.00    -0.277 N 
ATOM      4  C   UNL d   1      23.220 -18.112  -0.392  0.00  0.00     0.327 C 
ATOM      5  O   UNL d   1      23.640 -19.143   0.143  0.00  0.00    -0.247 OA
ATOM      6  N   UNL d   1      21.858 -17.919  -0.623  0.00  0.00    -0.309 N 
ATOM      7  H   UNL d   1      23.673 -16.277  -1.241  0.00  0.00     0.173 HD
ATOM      8  H   UNL d   1      21.533 -17.216  -1.271  0.00  0.00     0.170 HD
ENDROOT
BRANCH   1   9
ATOM      9  C   UNL d   1      26.346 -16.028  -1.200  0.00  0.00     0.170 C 
ATOM     10  C   UNL d   1      26.768 -15.133  -0.032  0.00  0.00     0.042 C 
BRANCH   9  11
ATOM     11  N   UNL d   1      25.585 -15.245  -2.212  0.00  0.00    -0.377 N 
ATOM     12  H   UNL d   1      24.603 -15.076  -1.975  0.00  0.00     0.160 HD
BRANCH  11  13
ATOM     13  C   UNL d   1      26.124 -14.639  -3.333  0.00  0.00     0.029 A 
ATOM     14  C   UNL d   1      26.816 -15.370  -4.307  0.00  0.00     0.029 A 
ATOM     15  C   UNL d   1      27.267 -14.760  -5.492  0.00  0.00     0.003 A 
ATOM     16  C   UNL d   1      27.039 -13.401  -5.719  0.00  0.00     0.015 A 
ATOM     17  C   UNL d   1      26.351 -12.664  -4.763  0.00  0.00     0.011 A 
ATOM     18  C   UNL d   1      25.962 -13.271  -3.569  0.00  0.00     0.044 A 
BRANCH  17  19
ATOM     19  C   UNL d   1      25.904 -11.277  -5.048  0.00  0.00     0.155 C 
ATOM     20  C   UNL d   1      25.589 -10.371  -3.885  0.00  0.00     0.096 C 
ATOM     21  O   UNL d   1      25.776 -10.910  -6.214  0.00  0.00    -0.293 OA
ENDBRANCH  17  19
ENDBRANCH  11  13
ENDBRANCH   9  11
ENDBRANCH   1   9
BRANCH   6  22
ATOM     22  C   UNL d   1      20.869 -18.858  -0.167  0.00  0.00     0.036 A 
ATOM     23  C   UNL d   1      19.834 -19.289  -1.008  0.00  0.00     0.030 A 
ATOM     24  C   UNL d   1      18.815 -20.136  -0.522  0.00  0.00     0.009 A 
ATOM     25  C   UNL d   1      18.834 -20.607   0.796  0.00  0.00    -0.062 A 
ATOM     26  C   UNL d   1      17.817 -21.593   1.296  0.00  0.00     0.048 C 
ATOM     27  C   UNL d   1      19.864 -20.177   1.634  0.00  0.00     0.009 A 
ATOM     28  C   UNL d   1      20.870 -19.325   1.154  0.00  0.00     0.030 A 
ENDBRANCH   6  22
TORSDOF 5
ENDMDL
MODEL 5
REMARK VINA RESULT:    -8.060      2.746      9.948
REMARK INTER + INTRA:         -10.397
REMARK INTER:                  -9.552
REMARK INTRA:                  -0.845
REMARK CONF_INDEPENDENT:        1.492
REMARK UNBOUND:                -0.845
REMARK  5 active torsions:
REMARK  status: ('A' for Active; 'I' for Inactive)
REMARK    1  A    between atoms: C_2  and  C_4 
REMARK    2  A    between atoms: C_8  and  N_9 
REMARK    3  A    between atoms: N_9  and  C_10 
REMARK    4  A    between atoms: C_10  and  C_12 
REMARK       I    between atoms: C_12  and  N_14 
REMARK       I    between atoms: N_14  and  C_15 
REMARK       I    between atoms: C_15  and  N_17 
REMARK    5  A    between atoms: N_17  and  C_18 
ROOT
ATOM      1  C   UNL d   1      26.023 -14.582  -4.065  0.00  0.00     0.247 C 
ATOM      2  O   UNL d   1      25.333 -14.991  -5.006  0.00  0.00    -0.271 OA
ATOM      3  N   UNL d   1      27.426 -14.589  -4.060  0.00  0.00    -0.277 N 
ATOM      4  C   UNL d   1      28.153 -15.102  -5.125  0.00  0.00     0.327 C 
ATOM      5  O   UNL d   1      27.606 -15.575  -6.127  0.00  0.00    -0.247 OA
ATOM      6  N   UNL d   1      29.542 -15.084  -4.998  0.00  0.00    -0.309 N 
ATOM      7  H   UNL d   1      27.924 -14.208  -3.270  0.00  0.00     0.173 HD
ATOM      8  H   UNL d   1      29.982 -14.938  -4.101  0.00  0.00     0.170 HD
ENDROOT
BRANCH   1   9
ATOM      9  C   UNL d   1      25.286 -14.013  -2.809  0.00  0.00     0.170 C 
ATOM     10  C   UNL d   1      25.532 -12.505  -2.714  0.00  0.00     0.042 C 
BRANCH   9  11
ATOM     11  N   UNL d   1      25.774 -14.703  -1.583  0.00  0.00    -0.377 N 
ATOM     12  H   UNL d   1      26.351 -14.124  -0.966  0.00  0.00     0.160 HD
BRANCH  11  13
ATOM     13  C   UNL d   1      25.402 -15.970  -1.169  0.00  0.00     0.029 A 
ATOM     14  C   UNL d   1      26.324 -16.863  -0.610  0.00  0.00     0.029 A 
ATOM     15  C   UNL d   1      25.913 -18.108  -0.097  0.00  0.00     0.003 A 
ATOM     16  C   UNL d   1      24.569 -18.483  -0.145  0.00  0.00     0.015 A 
ATOM     17  C   UNL d   1      23.643 -17.605  -0.694  0.00  0.00     0.011 A 
ATOM     18  C   UNL d   1      24.076 -16.400  -1.250  0.00  0.00     0.044 A 
BRANCH  17  19
ATOM     19  C   UNL d   1      22.186 -17.865  -0.579  0.00  0.00     0.155 C 
ATOM     20  C   UNL d   1      21.734 -19.223  -0.105  0.00  0.00     0.096 C 
ATOM     21  O   UNL d   1      21.387 -16.986  -0.895  0.00  0.00    -0.293 OA
ENDBRANCH  17  19
ENDBRANCH  11  13
ENDBRANCH   9  11
ENDBRANCH   1   9
BRANCH   6  22
ATOM     22  C   UNL d   1      30.407 -15.521  -6.060  0.00  0.00     0.036 A 
ATOM     23  C   UNL d   1      30.466 -16.869  -6.440  0.00  0.00     0.030 A 
ATOM     24  C   UNL d   1      31.387 -17.303  -7.418  0.00  0.00     0.009 A 
ATOM     25  C   UNL d   1      32.233 -16.396  -8.067  0.00  0.00    -0.062 A 
ATOM     26  C   UNL d   1      33.142 -16.826  -9.184  0.00  0.00     0.048 C 
ATOM     27  C   UNL d   1      32.176 -15.055  -7.688  0.00  0.00     0.009 A 
ATOM     28  C   UNL d   1      31.269 -14.625  -6.707  0.00  0.00     0.030 A 
ENDBRANCH   6  22
TORSDOF 5
ENDMDL
MODEL 6
REMARK VINA RESULT:    -8.026      2.704      5.218
REMARK INTER + INTRA:         -10.210
REMARK INTER:                  -9.518
REMARK INTRA:                  -0.693
REMARK CONF_INDEPENDENT:        1.492
REMARK UNBOUND:                -0.693
REMARK  5 active torsions:
REMARK  status: ('A' for Active; 'I' for Inactive)
REMARK    1  A    between atoms: C_2  and  C_4 
REMARK    2  A    between atoms: C_8  and  N_9 
REMARK    3  A    between atoms: N_9  and  C_10 
REMARK    4  A    between atoms: C_10  and  C_12 
REMARK       I    between atoms: C_12  and  N_14 
REMARK       I    between atoms: N_14  and  C_15 
REMARK       I    between atoms: C_15  and  N_17 
REMARK    5  A    between atoms: N_17  and  C_18 
ROOT
ATOM      1  C   UNL d   1      25.068 -16.637  -0.473  0.00  0.00     0.247 C 
ATOM      2  O   UNL d   1      25.644 -17.354   0.354  0.00  0.00    -0.271 OA
ATOM      3  N   UNL d   1      23.726 -16.795  -0.848  0.00  0.00    -0.277 N 
ATOM      4  C   UNL d   1      22.942 -17.815  -0.327  0.00  0.00     0.327 C 
ATOM      5  O   UNL d   1      23.382 -18.631   0.488  0.00  0.00    -0.247 OA
ATOM      6  N   UNL d   1      21.630 -17.893  -0.794  0.00  0.00    -0.309 N 
ATOM      7  H   UNL d   1      23.313 -16.151  -1.506  0.00  0.00     0.173 HD
ATOM      8  H   UNL d   1      21.343 -17.401  -1.628  0.00  0.00     0.170 HD
ENDROOT
BRANCH   1   9
ATOM      9  C   UNL d   1      25.886 -15.480  -1.133  0.00  0.00     0.170 C 
ATOM     10  C   UNL d   1      26.179 -15.832  -2.593  0.00  0.00     0.042 C 
BRANCH   9  11
ATOM     11  N   UNL d   1      27.153 -15.265  -0.381  0.00  0.00    -0.377 N 
ATOM     12  H   UNL d   1      27.970 -15.743  -0.771  0.00  0.00     0.160 HD
BRANCH  11  13
ATOM     13  C   UNL d   1      27.323 -14.392   0.679  0.00  0.00     0.029 A 
ATOM     14  C   UNL d   1      26.905 -13.057   0.611  0.00  0.00     0.029 A 
ATOM     15  C   UNL d   1      26.987 -12.210   1.731  0.00  0.00     0.003 A 
ATOM     16  C   UNL d   1      27.498 -12.684   2.940  0.00  0.00     0.015 A 
ATOM     17  C   UNL d   1      27.914 -14.008   3.024  0.00  0.00     0.011 A 
ATOM     18  C   UNL d   1      27.880 -14.817   1.889  0.00  0.00     0.044 A 
BRANCH  17  19
ATOM     19  C   UNL d   1      28.267 -14.613   4.333  0.00  0.00     0.155 C 
ATOM     20  C   UNL d   1      29.688 -14.492   4.821  0.00  0.00     0.096 C 
ATOM     21  O   UNL d   1      27.408 -15.218   4.971  0.00  0.00    -0.293 OA
ENDBRANCH  17  19
ENDBRANCH  11  13
ENDBRANCH   9  11
ENDBRANCH   1   9
BRANCH   6  22
ATOM     22  C   UNL d   1      20.697 -18.860  -0.281  0.00  0.00     0.036 A 
ATOM     23  C   UNL d   1      19.640 -19.336  -1.068  0.00  0.00     0.030 A 
ATOM     24  C   UNL d   1      18.674 -20.212  -0.525  0.00  0.00     0.009 A 
ATOM     25  C   UNL d   1      18.771 -20.664   0.796  0.00  0.00    -0.062 A 
ATOM     26  C   UNL d   1      17.813 -21.678   1.355  0.00  0.00     0.048 C 
ATOM     27  C   UNL d   1      19.823 -20.189   1.580  0.00  0.00     0.009 A 
ATOM     28  C   UNL d   1      20.776 -19.308   1.044  0.00  0.00     0.030 A 
ENDBRANCH   6  22
TORSDOF 5
ENDMDL
MODEL 7
REMARK VINA RESULT:    -7.933      6.661     10.043
REMARK INTER + INTRA:          -9.976
REMARK INTER:                  -9.424
REMARK INTRA:                  -0.552
REMARK CONF_INDEPENDENT:        1.492
REMARK UNBOUND:                -0.552
REMARK  5 active torsions:
REMARK  status: ('A' for Active; 'I' for Inactive)
REMARK    1  A    between atoms: C_2  and  C_4 
REMARK    2  A    between atoms: C_8  and  N_9 
REMARK    3  A    between atoms: N_9  and  C_10 
REMARK    4  A    between atoms: C_10  and  C_12 
REMARK       I    between atoms: C_12  and  N_14 
REMARK       I    between atoms: N_14  and  C_15 
REMARK       I    between atoms: C_15  and  N_17 
REMARK    5  A    between atoms: N_17  and  C_18 
ROOT
ATOM      1  C   UNL d   1      28.061 -14.305   2.781  0.00  0.00     0.247 C 
ATOM      2  O   UNL d   1      27.051 -13.599   2.871  0.00  0.00    -0.271 OA
ATOM      3  N   UNL d   1      28.924 -14.581   3.851  0.00  0.00    -0.277 N 
ATOM      4  C   UNL d   1      28.715 -14.037   5.111  0.00  0.00     0.327 C 
ATOM      5  O   UNL d   1      27.764 -13.287   5.352  0.00  0.00    -0.247 OA
ATOM      6  N   UNL d   1      29.654 -14.357   6.092  0.00  0.00    -0.309 N 
ATOM      7  H   UNL d   1      29.713 -15.194   3.711  0.00  0.00     0.173 HD
ATOM      8  H   UNL d   1      30.550 -14.752   5.847  0.00  0.00     0.170 HD
ENDROOT
BRANCH   1   9
ATOM      9  C   UNL d   1      28.391 -14.936   1.389  0.00  0.00     0.170 C 
ATOM     10  C   UNL d   1      29.473 -14.104   0.696  0.00  0.00     0.042 C 
BRANCH   9  11
ATOM     11  N   UNL d   1      27.158 -14.991   0.555  0.00  0.00    -0.377 N 
ATOM     12  H   UNL d   1      26.889 -14.101   0.126  0.00  0.00     0.160 HD
BRANCH  11  13
ATOM     13  C   UNL d   1      26.460 -16.140   0.223  0.00  0.00     0.029 A 
ATOM     14  C   UNL d   1      27.033 -17.412   0.346  0.00  0.00     0.029 A 
ATOM     15  C   UNL d   1      26.278 -18.575   0.106  0.00  0.00     0.003 A 
ATOM     16  C   UNL d   1      24.937 -18.484  -0.270  0.00  0.00     0.015 A 
ATOM     17  C   UNL d   1      24.356 -17.228  -0.392  0.00  0.00     0.011 A 
ATOM     18  C   UNL d   1      25.132 -16.084  -0.207  0.00  0.00     0.044 A 
BRANCH  17  19
ATOM     19  C   UNL d   1      22.890 -17.083  -0.583  0.00  0.00     0.155 C 
ATOM     20  C   UNL d   1      22.020 -18.303  -0.418  0.00  0.00     0.096 C 
ATOM     21  O   UNL d   1      22.426 -15.988  -0.895  0.00  0.00    -0.293 OA
ENDBRANCH  17  19
ENDBRANCH  11  13
ENDBRANCH   9  11
ENDBRANCH   1   9
BRANCH   6  22
ATOM     22  C   UNL d   1      29.511 -13.914   7.453  0.00  0.00     0.036 A 
ATOM     23  C   UNL d   1      30.303 -14.450   8.477  0.00  0.00     0.030 A 
ATOM     24  C   UNL d   1      30.091 -14.079   9.822  0.00  0.00     0.009 A 
ATOM     25  C   UNL d   1      29.118 -13.134  10.166  0.00  0.00    -0.062 A 
ATOM     26  C   UNL d   1      28.952 -12.650  11.579  0.00  0.00     0.048 C 
ATOM     27  C   UNL d   1      28.327 -12.602   9.147  0.00  0.00     0.009 A 
ATOM     28  C   UNL d   1      28.530 -12.980   7.811  0.00  0.00     0.030 A 
ENDBRANCH   6  22
TORSDOF 5
ENDMDL
MODEL 8
REMARK VINA RESULT:    -7.855      6.807      9.362
REMARK INTER + INTRA:         -10.418
REMARK INTER:                  -9.347
REMARK INTRA:                  -1.071
REMARK CONF_INDEPENDENT:        1.492
REMARK UNBOUND:                -1.071
REMARK  5 active torsions:
REMARK  status: ('A' for Active; 'I' for Inactive)
REMARK    1  A    between atoms: C_2  and  C_4 
REMARK    2  A    between atoms: C_8  and  N_9 
REMARK    3  A    between atoms: N_9  and  C_10 
REMARK    4  A    between atoms: C_10  and  C_12 
REMARK       I    between atoms: C_12  and  N_14 
REMARK       I    between atoms: N_14  and  C_15 
REMARK       I    between atoms: C_15  and  N_17 
REMARK    5  A    between atoms: N_17  and  C_18 
ROOT
ATOM      1  C   UNL d   1      27.706 -14.186   3.121  0.00  0.00     0.247 C 
ATOM      2  O   UNL d   1      26.993 -13.177   3.100  0.00  0.00    -0.271 OA
ATOM      3  N   UNL d   1      28.353 -14.665   4.270  0.00  0.00    -0.277 N 
ATOM      4  C   UNL d   1      28.261 -14.001   5.485  0.00  0.00     0.327 C 
ATOM      5  O   UNL d   1      27.608 -12.960   5.617  0.00  0.00    -0.247 OA
ATOM      6  N   UNL d   1      28.970 -14.552   6.553  0.00  0.00    -0.309 N 
ATOM      7  H   UNL d   1      28.894 -15.515   4.220  0.00  0.00     0.173 HD
ATOM      8  H   UNL d   1      29.692 -15.241   6.399  0.00  0.00     0.170 HD
ENDROOT
BRANCH   1   9
ATOM      9  C   UNL d   1      27.890 -14.981   1.788  0.00  0.00     0.170 C 
ATOM     10  C   UNL d   1      29.318 -14.786   1.271  0.00  0.00     0.042 C 
BRANCH   9  11
ATOM     11  N   UNL d   1      26.899 -14.512   0.780  0.00  0.00    -0.377 N 
ATOM     12  H   UNL d   1      26.677 -13.514   0.828  0.00  0.00     0.160 HD
BRANCH  11  13
ATOM     13  C   UNL d   1      26.386 -15.270  -0.258  0.00  0.00     0.029 A 
ATOM     14  C   UNL d   1      25.786 -16.515  -0.037  0.00  0.00     0.029 A 
ATOM     15  C   UNL d   1      25.174 -17.226  -1.086  0.00  0.00     0.003 A 
ATOM     16  C   UNL d   1      25.161 -16.703  -2.380  0.00  0.00     0.015 A 
ATOM     17  C   UNL d   1      25.750 -15.467  -2.614  0.00  0.00     0.011 A 
ATOM     18  C   UNL d   1      26.402 -14.803  -1.575  0.00  0.00     0.044 A 
BRANCH  17  19
ATOM     19  C   UNL d   1      25.581 -14.777  -3.918  0.00  0.00     0.155 C 
ATOM     20  C   UNL d   1      26.764 -14.699  -4.849  0.00  0.00     0.096 C 
ATOM     21  O   UNL d   1      24.498 -14.266  -4.197  0.00  0.00    -0.293 OA
ENDBRANCH  17  19
ENDBRANCH  11  13
ENDBRANCH   9  11
ENDBRANCH   1   9
BRANCH   6  22
ATOM     22  C   UNL d   1      28.899 -13.999   7.878  0.00  0.00     0.036 A 
ATOM     23  C   UNL d   1      28.900 -14.825   9.010  0.00  0.00     0.030 A 
ATOM     24  C   UNL d   1      28.734 -14.280  10.302  0.00  0.00     0.009 A 
ATOM     25  C   UNL d   1      28.611 -12.898  10.491  0.00  0.00    -0.062 A 
ATOM     26  C   UNL d   1      28.541 -12.294  11.866  0.00  0.00     0.048 C 
ATOM     27  C   UNL d   1      28.608 -12.076   9.364  0.00  0.00     0.009 A 
ATOM     28  C   UNL d   1      28.760 -12.619   8.080  0.00  0.00     0.030 A 
ENDBRANCH   6  22
TORSDOF 5
ENDMDL
MODEL 9
REMARK VINA RESULT:    -7.569      3.479      5.954
REMARK INTER + INTRA:          -9.972
REMARK INTER:                  -9.060
REMARK INTRA:                  -0.912
REMARK CONF_INDEPENDENT:        1.492
REMARK UNBOUND:                -0.912
REMARK  5 active torsions:
REMARK  status: ('A' for Active; 'I' for Inactive)
REMARK    1  A    between atoms: C_2  and  C_4 
REMARK    2  A    between atoms: C_8  and  N_9 
REMARK    3  A    between atoms: N_9  and  C_10 
REMARK    4  A    between atoms: C_10  and  C_12 
REMARK       I    between atoms: C_12  and  N_14 
REMARK       I    between atoms: N_14  and  C_15 
REMARK       I    between atoms: C_15  and  N_17 
REMARK    5  A    between atoms: N_17  and  C_18 
ROOT
ATOM      1  C   UNL d   1      27.770 -14.775  -5.258  0.00  0.00     0.247 C 
ATOM      2  O   UNL d   1      26.961 -15.107  -6.132  0.00  0.00    -0.271 OA
ATOM      3  N   UNL d   1      27.591 -15.021  -3.888  0.00  0.00    -0.277 N 
ATOM      4  C   UNL d   1      26.446 -15.638  -3.406  0.00  0.00     0.327 C 
ATOM      5  O   UNL d   1      25.531 -16.002  -4.153  0.00  0.00    -0.247 OA
ATOM      6  N   UNL d   1      26.362 -15.805  -2.024  0.00  0.00    -0.309 N 
ATOM      7  H   UNL d   1      28.310 -14.750  -3.235  0.00  0.00     0.173 HD
ATOM      8  H   UNL d   1      26.971 -15.296  -1.399  0.00  0.00     0.170 HD
ENDROOT
BRANCH   1   9
ATOM      9  C   UNL d   1      29.078 -14.046  -5.710  0.00  0.00     0.170 C 
ATOM     10  C   UNL d   1      28.720 -12.907  -6.668  0.00  0.00     0.042 C 
BRANCH   9  11
ATOM     11  N   UNL d   1      29.995 -15.017  -6.368  0.00  0.00    -0.377 N 
ATOM     12  H   UNL d   1      30.509 -14.645  -7.171  0.00  0.00     0.160 HD
BRANCH  11  13
ATOM     13  C   UNL d   1      30.289 -16.288  -5.907  0.00  0.00     0.029 A 
ATOM     14  C   UNL d   1      30.226 -16.612  -4.545  0.00  0.00     0.029 A 
ATOM     15  C   UNL d   1      30.424 -17.932  -4.101  0.00  0.00     0.003 A 
ATOM     16  C   UNL d   1      30.699 -18.951  -5.014  0.00  0.00     0.015 A 
ATOM     17  C   UNL d   1      30.762 -18.645  -6.368  0.00  0.00     0.011 A 
ATOM     18  C   UNL d   1      30.620 -17.322  -6.786  0.00  0.00     0.044 A 
BRANCH  17  19
ATOM     19  C   UNL d   1      30.843 -19.721  -7.389  0.00  0.00     0.155 C 
ATOM     20  C   UNL d   1      30.968 -19.327  -8.839  0.00  0.00     0.096 C 
ATOM     21  O   UNL d   1      30.780 -20.896  -7.036  0.00  0.00    -0.293 OA
ENDBRANCH  17  19
ENDBRANCH  11  13
ENDBRANCH   9  11
ENDBRANCH   1   9
BRANCH   6  22
ATOM     22  C   UNL d   1      25.260 -16.492  -1.407  0.00  0.00     0.036 A 
ATOM     23  C   UNL d   1      25.428 -17.757  -0.827  0.00  0.00     0.030 A 
ATOM     24  C   UNL d   1      24.322 -18.466  -0.309  0.00  0.00     0.009 A 
ATOM     25  C   UNL d   1      23.039 -17.907  -0.317  0.00  0.00    -0.062 A 
ATOM     26  C   UNL d   1      21.871 -18.602   0.326  0.00  0.00     0.048 C 
ATOM     27  C   UNL d   1      22.871 -16.648  -0.895  0.00  0.00     0.009 A 
ATOM     28  C   UNL d   1      23.969 -15.950  -1.421  0.00  0.00     0.030 A 
ENDBRANCH   6  22
TORSDOF 5
ENDMDL
