MODEL 1
REMARK VINA RESULT:    -9.779      0.000      0.000
REMARK INTER + INTRA:         -14.915
REMARK INTER:                 -12.464
REMARK INTRA:                  -2.451
REMARK CONF_INDEPENDENT:        2.685
REMARK UNBOUND:                -2.451
REMARK  9 active torsions:
REMARK  status: ('A' for Active; 'I' for Inactive)
REMARK    1  A    between atoms: O_2  and  C_3 
REMARK    2  A    between atoms: C_6  and  C_7 
REMARK    3  A    between atoms: C_10  and  C_11 
REMARK    4  A    between atoms: C_11  and  O_12 
REMARK    5  A    between atoms: C_15  and  N_16 
REMARK    6  A    between atoms: N_16  and  C_17 
REMARK    7  A    between atoms: C_17  and  N_19 
REMARK       I    between atoms: N_19  and  C_20 
REMARK    8  A    between atoms: C_20  and  C_22 
REMARK    9  A    between atoms: C_28  and  O_29 
ROOT
ATOM      1  N   UNL d   1      24.900 -15.048  -1.886  0.00  0.00    -0.331 N 
ATOM      2  H   UNL d   1      24.251 -14.865  -2.642  0.00  0.00     0.168 HD
ENDROOT
BRANCH   1   3
ATOM      3  C   UNL d   1      24.679 -16.316  -1.193  0.00  0.00     0.069 C 
ATOM      4  C   UNL d   1      23.345 -16.824  -1.022  0.00  0.00     0.046 C 
ATOM      5  C   UNL d   1      23.070 -18.117  -0.464  0.00  0.00     0.000 C 
ATOM      6  C   UNL d   1      24.156 -18.915  -0.117  0.00  0.00     0.017 C 
ATOM      7  C   UNL d   1      25.449 -18.389  -0.169  0.00  0.00     0.040 C 
ATOM      8  C   UNL d   1      25.718 -17.094  -0.654  0.00  0.00     0.095 C 
BRANCH   5   9
ATOM      9  C   UNL d   1      21.710 -18.678  -0.340  0.00  0.00     0.086 A 
ATOM     10  C   UNL d   1      20.729 -18.959  -1.270  0.00  0.00     0.040 A 
ATOM     11  C   UNL d   1      19.645 -19.543  -0.579  0.00  0.00     0.038 A 
ATOM     12  C   UNL d   1      19.991 -19.590   0.756  0.00  0.00     0.077 A 
ATOM     13  O   UNL d   1      21.266 -19.080   0.910  0.00  0.00    -0.312 OA
BRANCH  12  14
ATOM     14  C   UNL d   1      19.237 -20.076   1.951  0.00  0.00     0.229 C 
BRANCH  14  15
ATOM     15  O   UNL d   1      20.187 -20.454   2.957  0.00  0.00    -0.394 OA
ATOM     16  H   UNL d   1      20.928 -19.827   2.900  0.00  0.00     0.209 HD
ENDBRANCH  14  15
ENDBRANCH  12  14
ENDBRANCH   5   9
BRANCH   8  17
ATOM     17  O   UNL d   1      27.052 -16.806  -0.584  0.00  0.00    -0.354 OA
ATOM     18  C   UNL d   1      27.972 -17.794  -0.146  0.00  0.00     0.210 C 
ENDBRANCH   8  17
ENDBRANCH   1   3
BRANCH   1  19
ATOM     19  C   UNL d   1      26.033 -14.184  -1.745  0.00  0.00     0.179 C 
ATOM     20  S   UNL d   1      26.657 -13.591  -0.307  0.00  0.00    -0.040 SA
BRANCH  19  21
ATOM     21  N   UNL d   1      26.654 -13.856  -2.974  0.00  0.00    -0.299 N 
ATOM     22  C   UNL d   1      26.093 -13.862  -4.281  0.00  0.00     0.260 C 
ATOM     23  O   UNL d   1      25.080 -14.453  -4.612  0.00  0.00    -0.267 OA
ATOM     24  H   UNL d   1      27.502 -13.322  -2.880  0.00  0.00     0.171 HD
BRANCH  22  25
ATOM     25  C   UNL d   1      26.884 -13.232  -5.389  0.00  0.00     0.067 A 
ATOM     26  C   UNL d   1      26.509 -11.900  -5.705  0.00  0.00     0.043 A 
ATOM     27  C   UNL d   1      27.074 -11.231  -6.796  0.00  0.00     0.035 A 
ATOM     28 CL   UNL d   1      26.490  -9.681  -7.270  0.00  0.00    -0.084 Cl
ATOM     29  C   UNL d   1      28.073 -11.836  -7.542  0.00  0.00     0.026 A 
ATOM     30  C   UNL d   1      28.424 -13.159  -7.261  0.00  0.00     0.039 A 
ATOM     31  C   UNL d   1      27.812 -13.890  -6.218  0.00  0.00     0.084 A 
BRANCH  31  32
ATOM     32  O   UNL d   1      28.217 -15.200  -6.236  0.00  0.00    -0.355 OA
ATOM     33  C   UNL d   1      29.103 -15.676  -5.242  0.00  0.00     0.210 C 
ENDBRANCH  31  32
ENDBRANCH  22  25
ENDBRANCH  19  21
ENDBRANCH   1  19
TORSDOF 9
ENDMDL
MODEL 2
REMARK VINA RESULT:    -9.268      2.558      3.421
REMARK INTER + INTRA:         -15.322
REMARK INTER:                 -11.953
REMARK INTRA:                  -3.369
REMARK CONF_INDEPENDENT:        2.685
REMARK UNBOUND:                -3.369
REMARK  9 active torsions:
REMARK  status: ('A' for Active; 'I' for Inactive)
REMARK    1  A    between atoms: O_2  and  C_3 
REMARK    2  A    between atoms: C_6  and  C_7 
REMARK    3  A    between atoms: C_10  and  C_11 
REMARK    4  A    between atoms: C_11  and  O_12 
REMARK    5  A    between atoms: C_15  and  N_16 
REMARK    6  A    between atoms: N_16  and  C_17 
REMARK    7  A    between atoms: C_17  and  N_19 
REMARK       I    between atoms: N_19  and  C_20 
REMARK    8  A    between atoms: C_20  and  C_22 
REMARK    9  A    between atoms: C_28  and  O_29 
ROOT
ATOM      1  N   UNL d   1      24.893 -15.254  -2.449  0.00  0.00    -0.331 N 
ATOM      2  H   UNL d   1      24.164 -15.182  -3.150  0.00  0.00     0.168 HD
ENDROOT
BRANCH   1   3
ATOM      3  C   UNL d   1      24.665 -16.291  -1.444  0.00  0.00     0.069 C 
ATOM      4  C   UNL d   1      23.358 -16.869  -1.286  0.00  0.00     0.046 C 
ATOM      5  C   UNL d   1      23.097 -17.973  -0.407  0.00  0.00     0.000 C 
ATOM      6  C   UNL d   1      24.175 -18.519   0.282  0.00  0.00     0.017 C 
ATOM      7  C   UNL d   1      25.423 -17.895   0.226  0.00  0.00     0.040 C 
ATOM      8  C   UNL d   1      25.668 -16.769  -0.584  0.00  0.00     0.095 C 
BRANCH   5   9
ATOM      9  C   UNL d   1      21.775 -18.618  -0.281  0.00  0.00     0.086 A 
ATOM     10  C   UNL d   1      20.803 -18.941  -1.206  0.00  0.00     0.040 A 
ATOM     11  C   UNL d   1      19.764 -19.602  -0.515  0.00  0.00     0.038 A 
ATOM     12  C   UNL d   1      20.127 -19.653   0.815  0.00  0.00     0.077 A 
ATOM     13  O   UNL d   1      21.370 -19.069   0.966  0.00  0.00    -0.312 OA
BRANCH  12  14
ATOM     14  C   UNL d   1      19.416 -20.207   2.007  0.00  0.00     0.229 C 
BRANCH  14  15
ATOM     15  O   UNL d   1      20.283 -20.081   3.144  0.00  0.00    -0.394 OA
ATOM     16  H   UNL d   1      21.196 -20.137   2.815  0.00  0.00     0.209 HD
ENDBRANCH  14  15
ENDBRANCH  12  14
ENDBRANCH   5   9
BRANCH   8  17
ATOM     17  O   UNL d   1      26.956 -16.331  -0.449  0.00  0.00    -0.354 OA
ATOM     18  C   UNL d   1      27.769 -16.825   0.604  0.00  0.00     0.210 C 
ENDBRANCH   8  17
ENDBRANCH   1   3
BRANCH   1  19
ATOM     19  C   UNL d   1      26.102 -14.515  -2.654  0.00  0.00     0.179 C 
ATOM     20  S   UNL d   1      26.302 -12.864  -2.454  0.00  0.00    -0.040 SA
BRANCH  19  21
ATOM     21  N   UNL d   1      27.202 -15.319  -3.038  0.00  0.00    -0.299 N 
ATOM     22  C   UNL d   1      27.774 -15.481  -4.331  0.00  0.00     0.260 C 
ATOM     23  O   UNL d   1      27.225 -15.210  -5.384  0.00  0.00    -0.267 OA
ATOM     24  H   UNL d   1      27.793 -15.604  -2.276  0.00  0.00     0.171 HD
BRANCH  22  25
ATOM     25  C   UNL d   1      29.091 -16.193  -4.434  0.00  0.00     0.067 A 
ATOM     26  C   UNL d   1      29.604 -16.306  -5.752  0.00  0.00     0.043 A 
ATOM     27  C   UNL d   1      30.759 -17.050  -6.015  0.00  0.00     0.035 A 
ATOM     28 CL   UNL d   1      31.276 -17.320  -7.635  0.00  0.00    -0.084 Cl
ATOM     29  C   UNL d   1      31.468 -17.626  -4.972  0.00  0.00     0.026 A 
ATOM     30  C   UNL d   1      30.952 -17.550  -3.676  0.00  0.00     0.039 A 
ATOM     31  C   UNL d   1      29.743 -16.876  -3.390  0.00  0.00     0.084 A 
BRANCH  31  32
ATOM     32  O   UNL d   1      29.375 -17.065  -2.083  0.00  0.00    -0.355 OA
ATOM     33  C   UNL d   1      30.204 -17.816  -1.219  0.00  0.00     0.210 C 
ENDBRANCH  31  32
ENDBRANCH  22  25
ENDBRANCH  19  21
ENDBRANCH   1  19
TORSDOF 9
ENDMDL
MODEL 3
REMARK VINA RESULT:    -9.175      2.841      3.592
REMARK INTER + INTRA:         -14.668
REMARK INTER:                 -11.860
REMARK INTRA:                  -2.808
REMARK CONF_INDEPENDENT:        2.685
REMARK UNBOUND:                -2.808
REMARK  9 active torsions:
REMARK  status: ('A' for Active; 'I' for Inactive)
REMARK    1  A    between atoms: O_2  and  C_3 
REMARK    2  A    between atoms: C_6  and  C_7 
REMARK    3  A    between atoms: C_10  and  C_11 
REMARK    4  A    between atoms: C_11  and  O_12 
REMARK    5  A    between atoms: C_15  and  N_16 
REMARK    6  A    between atoms: N_16  and  C_17 
REMARK    7  A    between atoms: C_17  and  N_19 
REMARK       I    between atoms: N_19  and  C_20 
REMARK    8  A    between atoms: C_20  and  C_22 
REMARK    9  A    between atoms: C_28  and  O_29 
ROOT
ATOM      1  N   UNL d   1      25.011 -14.896  -2.040  0.00  0.00    -0.331 N 
ATOM      2  H   UNL d   1      24.514 -14.106  -1.645  0.00  0.00     0.168 HD
ENDROOT
BRANCH   1   3
ATOM      3  C   UNL d   1      24.835 -16.148  -1.306  0.00  0.00     0.069 C 
ATOM      4  C   UNL d   1      23.518 -16.692  -1.109  0.00  0.00     0.046 C 
ATOM      5  C   UNL d   1      23.287 -17.974  -0.509  0.00  0.00     0.000 C 
ATOM      6  C   UNL d   1      24.400 -18.727  -0.145  0.00  0.00     0.017 C 
ATOM      7  C   UNL d   1      25.675 -18.163  -0.223  0.00  0.00     0.040 C 
ATOM      8  C   UNL d   1      25.900 -16.876  -0.751  0.00  0.00     0.095 C 
BRANCH   5   9
ATOM      9  C   UNL d   1      21.946 -18.573  -0.357  0.00  0.00     0.086 A 
ATOM     10  C   UNL d   1      20.969 -18.914  -1.270  0.00  0.00     0.040 A 
ATOM     11  C   UNL d   1      19.908 -19.509  -0.552  0.00  0.00     0.038 A 
ATOM     12  C   UNL d   1      20.265 -19.504   0.780  0.00  0.00     0.077 A 
ATOM     13  O   UNL d   1      21.524 -18.950   0.909  0.00  0.00    -0.312 OA
BRANCH  12  14
ATOM     14  C   UNL d   1      19.534 -19.977   1.995  0.00  0.00     0.229 C 
BRANCH  14  15
ATOM     15  O   UNL d   1      20.459 -20.003   3.092  0.00  0.00    -0.394 OA
ATOM     16  H   UNL d   1      21.350 -20.082   2.712  0.00  0.00     0.209 HD
ENDBRANCH  14  15
ENDBRANCH  12  14
ENDBRANCH   5   9
BRANCH   8  17
ATOM     17  O   UNL d   1      27.225 -16.544  -0.699  0.00  0.00    -0.354 OA
ATOM     18  C   UNL d   1      27.664 -15.497   0.152  0.00  0.00     0.210 C 
ENDBRANCH   8  17
ENDBRANCH   1   3
BRANCH   1  19
ATOM     19  C   UNL d   1      25.613 -14.740  -3.329  0.00  0.00     0.179 C 
ATOM     20  S   UNL d   1      25.077 -13.738  -4.561  0.00  0.00    -0.040 SA
BRANCH  19  21
ATOM     21  N   UNL d   1      26.784 -15.515  -3.507  0.00  0.00    -0.299 N 
ATOM     22  C   UNL d   1      27.644 -15.575  -4.638  0.00  0.00     0.260 C 
ATOM     23  O   UNL d   1      27.354 -15.217  -5.766  0.00  0.00    -0.267 OA
ATOM     24  H   UNL d   1      27.184 -15.864  -2.652  0.00  0.00     0.171 HD
BRANCH  22  25
ATOM     25  C   UNL d   1      28.959 -16.282  -4.486  0.00  0.00     0.067 A 
ATOM     26  C   UNL d   1      29.265 -16.692  -3.162  0.00  0.00     0.043 A 
ATOM     27  C   UNL d   1      30.508 -17.251  -2.850  0.00  0.00     0.035 A 
ATOM     28 CL   UNL d   1      30.930 -17.589  -1.214  0.00  0.00    -0.084 Cl
ATOM     29  C   UNL d   1      31.437 -17.488  -3.851  0.00  0.00     0.026 A 
ATOM     30  C   UNL d   1      31.159 -17.055  -5.150  0.00  0.00     0.039 A 
ATOM     31  C   UNL d   1      29.946 -16.411  -5.482  0.00  0.00     0.084 A 
BRANCH  31  32
ATOM     32  O   UNL d   1      29.971 -15.955  -6.775  0.00  0.00    -0.355 OA
ATOM     33  C   UNL d   1      30.958 -15.025  -7.174  0.00  0.00     0.210 C 
ENDBRANCH  31  32
ENDBRANCH  22  25
ENDBRANCH  19  21
ENDBRANCH   1  19
TORSDOF 9
ENDMDL
MODEL 4
REMARK VINA RESULT:    -9.169      1.885      2.409
REMARK INTER + INTRA:         -14.323
REMARK INTER:                 -11.853
REMARK INTRA:                  -2.469
REMARK CONF_INDEPENDENT:        2.685
REMARK UNBOUND:                -2.469
REMARK  9 active torsions:
REMARK  status: ('A' for Active; 'I' for Inactive)
REMARK    1  A    between atoms: O_2  and  C_3 
REMARK    2  A    between atoms: C_6  and  C_7 
REMARK    3  A    between atoms: C_10  and  C_11 
REMARK    4  A    between atoms: C_11  and  O_12 
REMARK    5  A    between atoms: C_15  and  N_16 
REMARK    6  A    between atoms: N_16  and  C_17 
REMARK    7  A    between atoms: C_17  and  N_19 
REMARK       I    between atoms: N_19  and  C_20 
REMARK    8  A    between atoms: C_20  and  C_22 
REMARK    9  A    between atoms: C_28  and  O_29 
ROOT
ATOM      1  N   UNL d   1      25.405 -15.664  -2.672  0.00  0.00    -0.331 N 
ATOM      2  H   UNL d   1      25.111 -15.980  -3.589  0.00  0.00     0.168 HD
ENDROOT
BRANCH   1   3
ATOM      3  C   UNL d   1      25.060 -16.575  -1.581  0.00  0.00     0.069 C 
ATOM      4  C   UNL d   1      23.709 -17.045  -1.431  0.00  0.00     0.046 C 
ATOM      5  C   UNL d   1      23.333 -18.032  -0.461  0.00  0.00     0.000 C 
ATOM      6  C   UNL d   1      24.339 -18.576   0.332  0.00  0.00     0.017 C 
ATOM      7  C   UNL d   1      25.630 -18.046   0.276  0.00  0.00     0.040 C 
ATOM      8  C   UNL d   1      25.989 -17.028  -0.629  0.00  0.00     0.095 C 
BRANCH   5   9
ATOM      9  C   UNL d   1      21.963 -18.570  -0.336  0.00  0.00     0.086 A 
ATOM     10  C   UNL d   1      21.015 -18.932  -1.272  0.00  0.00     0.040 A 
ATOM     11  C   UNL d   1      19.901 -19.441  -0.570  0.00  0.00     0.038 A 
ATOM     12  C   UNL d   1      20.196 -19.364   0.775  0.00  0.00     0.077 A 
ATOM     13  O   UNL d   1      21.469 -18.850   0.929  0.00  0.00    -0.312 OA
BRANCH  12  14
ATOM     14  C   UNL d   1      19.393 -19.732   1.980  0.00  0.00     0.229 C 
BRANCH  14  15
ATOM     15  O   UNL d   1      20.289 -20.248   2.975  0.00  0.00    -0.394 OA
ATOM     16  H   UNL d   1      21.192 -20.142   2.629  0.00  0.00     0.209 HD
ENDBRANCH  14  15
ENDBRANCH  12  14
ENDBRANCH   5   9
BRANCH   8  17
ATOM     17  O   UNL d   1      27.298 -16.666  -0.474  0.00  0.00    -0.354 OA
ATOM     18  C   UNL d   1      27.711 -15.971   0.691  0.00  0.00     0.210 C 
ENDBRANCH   8  17
ENDBRANCH   1   3
BRANCH   1  19
ATOM     19  C   UNL d   1      26.274 -14.530  -2.594  0.00  0.00     0.179 C 
ATOM     20  S   UNL d   1      26.280 -13.363  -1.391  0.00  0.00    -0.040 SA
BRANCH  19  21
ATOM     21  N   UNL d   1      27.210 -14.457  -3.654  0.00  0.00    -0.299 N 
ATOM     22  C   UNL d   1      27.046 -14.850  -5.011  0.00  0.00     0.260 C 
ATOM     23  O   UNL d   1      26.188 -15.610  -5.427  0.00  0.00    -0.267 OA
ATOM     24  H   UNL d   1      27.979 -13.831  -3.486  0.00  0.00     0.171 HD
BRANCH  22  25
ATOM     25  C   UNL d   1      28.100 -14.439  -5.996  0.00  0.00     0.067 A 
ATOM     26  C   UNL d   1      29.190 -15.340  -6.113  0.00  0.00     0.043 A 
ATOM     27  C   UNL d   1      30.303 -15.027  -6.899  0.00  0.00     0.035 A 
ATOM     28 CL   UNL d   1      31.690 -16.049  -6.899  0.00  0.00    -0.084 Cl
ATOM     29  C   UNL d   1      30.324 -13.859  -7.645  0.00  0.00     0.026 A 
ATOM     30  C   UNL d   1      29.272 -12.949  -7.509  0.00  0.00     0.039 A 
ATOM     31  C   UNL d   1      28.171 -13.198  -6.658  0.00  0.00     0.084 A 
BRANCH  31  32
ATOM     32  O   UNL d   1      27.351 -12.102  -6.585  0.00  0.00    -0.355 OA
ATOM     33  C   UNL d   1      26.889 -11.651  -5.327  0.00  0.00     0.210 C 
ENDBRANCH  31  32
ENDBRANCH  22  25
ENDBRANCH  19  21
ENDBRANCH   1  19
TORSDOF 9
ENDMDL
MODEL 5
REMARK VINA RESULT:    -9.023      1.348      2.254
REMARK INTER + INTRA:         -14.071
REMARK INTER:                 -11.707
REMARK INTRA:                  -2.364
REMARK CONF_INDEPENDENT:        2.685
REMARK UNBOUND:                -2.364
REMARK  9 active torsions:
REMARK  status: ('A' for Active; 'I' for Inactive)
REMARK    1  A    between atoms: O_2  and  C_3 
REMARK    2  A    between atoms: C_6  and  C_7 
REMARK    3  A    between atoms: C_10  and  C_11 
REMARK    4  A    between atoms: C_11  and  O_12 
REMARK    5  A    between atoms: C_15  and  N_16 
REMARK    6  A    between atoms: N_16  and  C_17 
REMARK    7  A    between atoms: C_17  and  N_19 
REMARK       I    between atoms: N_19  and  C_20 
REMARK    8  A    between atoms: C_20  and  C_22 
REMARK    9  A    between atoms: C_28  and  O_29 
ROOT
ATOM      1  N   UNL d   1      25.190 -15.308  -2.141  0.00  0.00    -0.331 N 
ATOM      2  H   UNL d   1      24.887 -15.445  -3.098  0.00  0.00     0.168 HD
ENDROOT
BRANCH   1   3
ATOM      3  C   UNL d   1      24.860 -16.409  -1.238  0.00  0.00     0.069 C 
ATOM      4  C   UNL d   1      23.506 -16.883  -1.140  0.00  0.00     0.046 C 
ATOM      5  C   UNL d   1      23.139 -18.037  -0.371  0.00  0.00     0.000 C 
ATOM      6  C   UNL d   1      24.157 -18.738   0.269  0.00  0.00     0.017 C 
ATOM      7  C   UNL d   1      25.455 -18.222   0.277  0.00  0.00     0.040 C 
ATOM      8  C   UNL d   1      25.807 -17.051  -0.423  0.00  0.00     0.095 C 
BRANCH   5   9
ATOM      9  C   UNL d   1      21.764 -18.572  -0.311  0.00  0.00     0.086 A 
ATOM     10  C   UNL d   1      20.785 -18.735  -1.270  0.00  0.00     0.040 A 
ATOM     11  C   UNL d   1      19.681 -19.356  -0.646  0.00  0.00     0.038 A 
ATOM     12  C   UNL d   1      20.015 -19.545   0.679  0.00  0.00     0.077 A 
ATOM     13  O   UNL d   1      21.300 -19.085   0.890  0.00  0.00    -0.312 OA
BRANCH  12  14
ATOM     14  C   UNL d   1      19.238 -20.128   1.815  0.00  0.00     0.229 C 
BRANCH  14  15
ATOM     15  O   UNL d   1      20.123 -20.272   2.935  0.00  0.00    -0.394 OA
ATOM     16  H   UNL d   1      21.031 -20.232   2.589  0.00  0.00     0.209 HD
ENDBRANCH  14  15
ENDBRANCH  12  14
ENDBRANCH   5   9
BRANCH   8  17
ATOM     17  O   UNL d   1      27.126 -16.743  -0.241  0.00  0.00    -0.354 OA
ATOM     18  C   UNL d   1      28.097 -17.777  -0.178  0.00  0.00     0.210 C 
ENDBRANCH   8  17
ENDBRANCH   1   3
BRANCH   1  19
ATOM     19  C   UNL d   1      26.057 -14.204  -1.859  0.00  0.00     0.179 C 
ATOM     20  S   UNL d   1      26.653 -13.768  -0.355  0.00  0.00    -0.040 SA
BRANCH  19  21
ATOM     21  N   UNL d   1      26.427 -13.464  -3.008  0.00  0.00    -0.299 N 
ATOM     22  C   UNL d   1      25.727 -13.327  -4.238  0.00  0.00     0.260 C 
ATOM     23  O   UNL d   1      24.850 -14.074  -4.638  0.00  0.00    -0.267 OA
ATOM     24  H   UNL d   1      27.128 -12.762  -2.841  0.00  0.00     0.171 HD
BRANCH  22  25
ATOM     25  C   UNL d   1      26.202 -12.286  -5.208  0.00  0.00     0.067 A 
ATOM     26  C   UNL d   1      27.166 -12.740  -6.145  0.00  0.00     0.043 A 
ATOM     27  C   UNL d   1      27.789 -11.853  -7.027  0.00  0.00     0.035 A 
ATOM     28 CL   UNL d   1      29.076 -12.384  -8.042  0.00  0.00    -0.084 Cl
ATOM     29  C   UNL d   1      27.414 -10.518  -7.054  0.00  0.00     0.026 A 
ATOM     30  C   UNL d   1      26.492 -10.054  -6.112  0.00  0.00     0.039 A 
ATOM     31  C   UNL d   1      25.907 -10.911  -5.151  0.00  0.00     0.084 A 
BRANCH  31  32
ATOM     32  O   UNL d   1      25.154 -10.198  -4.254  0.00  0.00    -0.355 OA
ATOM     33  C   UNL d   1      25.284  -8.792  -4.186  0.00  0.00     0.210 C 
ENDBRANCH  31  32
ENDBRANCH  22  25
ENDBRANCH  19  21
ENDBRANCH   1  19
TORSDOF 9
ENDMDL
MODEL 6
REMARK VINA RESULT:    -8.664      2.389      2.912
REMARK INTER + INTRA:         -13.684
REMARK INTER:                 -11.349
REMARK INTRA:                  -2.335
REMARK CONF_INDEPENDENT:        2.685
REMARK UNBOUND:                -2.335
REMARK  9 active torsions:
REMARK  status: ('A' for Active; 'I' for Inactive)
REMARK    1  A    between atoms: O_2  and  C_3 
REMARK    2  A    between atoms: C_6  and  C_7 
REMARK    3  A    between atoms: C_10  and  C_11 
REMARK    4  A    between atoms: C_11  and  O_12 
REMARK    5  A    between atoms: C_15  and  N_16 
REMARK    6  A    between atoms: N_16  and  C_17 
REMARK    7  A    between atoms: C_17  and  N_19 
REMARK       I    between atoms: N_19  and  C_20 
REMARK    8  A    between atoms: C_20  and  C_22 
REMARK    9  A    between atoms: C_28  and  O_29 
ROOT
ATOM      1  N   UNL d   1      24.134 -14.778  -2.396  0.00  0.00    -0.331 N 
ATOM      2  H   UNL d   1      23.278 -14.239  -2.331  0.00  0.00     0.168 HD
ENDROOT
BRANCH   1   3
ATOM      3  C   UNL d   1      24.148 -15.990  -1.579  0.00  0.00     0.069 C 
ATOM      4  C   UNL d   1      22.919 -16.668  -1.270  0.00  0.00     0.046 C 
ATOM      5  C   UNL d   1      22.875 -17.925  -0.580  0.00  0.00     0.000 C 
ATOM      6  C   UNL d   1      24.088 -18.517  -0.240  0.00  0.00     0.017 C 
ATOM      7  C   UNL d   1      25.281 -17.816  -0.430  0.00  0.00     0.040 C 
ATOM      8  C   UNL d   1      25.322 -16.550  -1.046  0.00  0.00     0.095 C 
BRANCH   5   9
ATOM      9  C   UNL d   1      21.626 -18.664  -0.312  0.00  0.00     0.086 A 
ATOM     10  C   UNL d   1      20.654 -19.184  -1.141  0.00  0.00     0.040 A 
ATOM     11  C   UNL d   1      19.709 -19.844  -0.325  0.00  0.00     0.038 A 
ATOM     12  C   UNL d   1      20.126 -19.697   0.981  0.00  0.00     0.077 A 
ATOM     13  O   UNL d   1      21.314 -18.992   0.999  0.00  0.00    -0.312 OA
BRANCH  12  14
ATOM     14  C   UNL d   1      19.518 -20.160   2.265  0.00  0.00     0.229 C 
BRANCH  14  15
ATOM     15  O   UNL d   1      20.565 -20.280   3.239  0.00  0.00    -0.394 OA
ATOM     16  H   UNL d   1      21.403 -20.095   2.783  0.00  0.00     0.209 HD
ENDBRANCH  14  15
ENDBRANCH  12  14
ENDBRANCH   5   9
BRANCH   8  17
ATOM     17  O   UNL d   1      26.598 -16.064  -1.096  0.00  0.00    -0.354 OA
ATOM     18  C   UNL d   1      27.685 -16.873  -0.675  0.00  0.00     0.210 C 
ENDBRANCH   8  17
ENDBRANCH   1   3
BRANCH   1  19
ATOM     19  C   UNL d   1      25.086 -14.415  -3.402  0.00  0.00     0.179 C 
ATOM     20  S   UNL d   1      26.054 -15.465  -4.278  0.00  0.00    -0.040 SA
BRANCH  19  21
ATOM     21  N   UNL d   1      25.149 -13.023  -3.649  0.00  0.00    -0.299 N 
ATOM     22  C   UNL d   1      25.900 -12.032  -2.958  0.00  0.00     0.260 C 
ATOM     23  O   UNL d   1      26.367 -12.154  -1.838  0.00  0.00    -0.267 OA
ATOM     24  H   UNL d   1      24.830 -12.749  -4.564  0.00  0.00     0.171 HD
BRANCH  22  25
ATOM     25  C   UNL d   1      25.995 -10.666  -3.569  0.00  0.00     0.067 A 
ATOM     26  C   UNL d   1      25.947  -9.593  -2.641  0.00  0.00     0.043 A 
ATOM     27  C   UNL d   1      25.901  -8.265  -3.076  0.00  0.00     0.035 A 
ATOM     28 CL   UNL d   1      25.672  -6.982  -1.949  0.00  0.00    -0.084 Cl
ATOM     29  C   UNL d   1      25.983  -7.971  -4.428  0.00  0.00     0.026 A 
ATOM     30  C   UNL d   1      25.996  -9.020  -5.351  0.00  0.00     0.039 A 
ATOM     31  C   UNL d   1      25.958 -10.374  -4.946  0.00  0.00     0.084 A 
BRANCH  31  32
ATOM     32  O   UNL d   1      25.832 -11.205  -6.029  0.00  0.00    -0.355 OA
ATOM     33  C   UNL d   1      26.977 -11.831  -6.573  0.00  0.00     0.210 C 
ENDBRANCH  31  32
ENDBRANCH  22  25
ENDBRANCH  19  21
ENDBRANCH   1  19
TORSDOF 9
ENDMDL
MODEL 7
REMARK VINA RESULT:    -8.371      3.430      5.016
REMARK INTER + INTRA:         -13.883
REMARK INTER:                 -11.056
REMARK INTRA:                  -2.827
REMARK CONF_INDEPENDENT:        2.685
REMARK UNBOUND:                -2.827
REMARK  9 active torsions:
REMARK  status: ('A' for Active; 'I' for Inactive)
REMARK    1  A    between atoms: O_2  and  C_3 
REMARK    2  A    between atoms: C_6  and  C_7 
REMARK    3  A    between atoms: C_10  and  C_11 
REMARK    4  A    between atoms: C_11  and  O_12 
REMARK    5  A    between atoms: C_15  and  N_16 
REMARK    6  A    between atoms: N_16  and  C_17 
REMARK    7  A    between atoms: C_17  and  N_19 
REMARK       I    between atoms: N_19  and  C_20 
REMARK    8  A    between atoms: C_20  and  C_22 
REMARK    9  A    between atoms: C_28  and  O_29 
ROOT
ATOM      1  N   UNL d   1      24.693 -15.155  -2.047  0.00  0.00    -0.331 N 
ATOM      2  H   UNL d   1      23.839 -14.647  -2.243  0.00  0.00     0.168 HD
ENDROOT
BRANCH   1   3
ATOM      3  C   UNL d   1      24.500 -16.394  -1.295  0.00  0.00     0.069 C 
ATOM      4  C   UNL d   1      23.177 -16.921  -1.098  0.00  0.00     0.046 C 
ATOM      5  C   UNL d   1      22.929 -18.192  -0.479  0.00  0.00     0.000 C 
ATOM      6  C   UNL d   1      24.032 -18.950  -0.097  0.00  0.00     0.017 C 
ATOM      7  C   UNL d   1      25.314 -18.400  -0.177  0.00  0.00     0.040 C 
ATOM      8  C   UNL d   1      25.555 -17.124  -0.722  0.00  0.00     0.095 C 
BRANCH   5   9
ATOM      9  C   UNL d   1      21.581 -18.774  -0.326  0.00  0.00     0.086 A 
ATOM     10  C   UNL d   1      20.585 -19.069  -1.234  0.00  0.00     0.040 A 
ATOM     11  C   UNL d   1      19.526 -19.671  -0.520  0.00  0.00     0.038 A 
ATOM     12  C   UNL d   1      19.903 -19.716   0.806  0.00  0.00     0.077 A 
ATOM     13  O   UNL d   1      21.172 -19.187   0.933  0.00  0.00    -0.312 OA
BRANCH  12  14
ATOM     14  C   UNL d   1      19.183 -20.218   2.016  0.00  0.00     0.229 C 
BRANCH  14  15
ATOM     15  O   UNL d   1      20.151 -20.445   3.051  0.00  0.00    -0.394 OA
ATOM     16  H   UNL d   1      21.026 -20.264   2.668  0.00  0.00     0.209 HD
ENDBRANCH  14  15
ENDBRANCH  12  14
ENDBRANCH   5   9
BRANCH   8  17
ATOM     17  O   UNL d   1      26.883 -16.805  -0.668  0.00  0.00    -0.354 OA
ATOM     18  C   UNL d   1      27.743 -17.488   0.230  0.00  0.00     0.210 C 
ENDBRANCH   8  17
ENDBRANCH   1   3
BRANCH   1  19
ATOM     19  C   UNL d   1      25.897 -14.728  -2.692  0.00  0.00     0.179 C 
ATOM     20  S   UNL d   1      26.086 -14.397  -4.324  0.00  0.00    -0.040 SA
BRANCH  19  21
ATOM     21  N   UNL d   1      26.990 -14.565  -1.807  0.00  0.00    -0.299 N 
ATOM     22  C   UNL d   1      27.050 -13.811  -0.602  0.00  0.00     0.260 C 
ATOM     23  O   UNL d   1      26.280 -12.920  -0.287  0.00  0.00    -0.267 OA
ATOM     24  H   UNL d   1      27.713 -15.256  -1.909  0.00  0.00     0.171 HD
BRANCH  22  25
ATOM     25  C   UNL d   1      28.242 -14.001   0.289  0.00  0.00     0.067 A 
ATOM     26  C   UNL d   1      29.393 -14.520  -0.360  0.00  0.00     0.043 A 
ATOM     27  C   UNL d   1      30.537 -14.863   0.367  0.00  0.00     0.035 A 
ATOM     28 CL   UNL d   1      31.863 -15.647  -0.405  0.00  0.00    -0.084 Cl
ATOM     29  C   UNL d   1      30.593 -14.626   1.732  0.00  0.00     0.026 A 
ATOM     30  C   UNL d   1      29.453 -14.149   2.384  0.00  0.00     0.039 A 
ATOM     31  C   UNL d   1      28.254 -13.871   1.691  0.00  0.00     0.084 A 
BRANCH  31  32
ATOM     32  O   UNL d   1      27.244 -13.558   2.564  0.00  0.00    -0.355 OA
ATOM     33  C   UNL d   1      27.448 -13.700   3.956  0.00  0.00     0.210 C 
ENDBRANCH  31  32
ENDBRANCH  22  25
ENDBRANCH  19  21
ENDBRANCH   1  19
TORSDOF 9
ENDMDL
MODEL 8
REMARK VINA RESULT:    -8.329      3.899      5.493
REMARK INTER + INTRA:         -14.454
REMARK INTER:                 -11.014
REMARK INTRA:                  -3.440
REMARK CONF_INDEPENDENT:        2.685
REMARK UNBOUND:                -3.440
REMARK  9 active torsions:
REMARK  status: ('A' for Active; 'I' for Inactive)
REMARK    1  A    between atoms: O_2  and  C_3 
REMARK    2  A    between atoms: C_6  and  C_7 
REMARK    3  A    between atoms: C_10  and  C_11 
REMARK    4  A    between atoms: C_11  and  O_12 
REMARK    5  A    between atoms: C_15  and  N_16 
REMARK    6  A    between atoms: N_16  and  C_17 
REMARK    7  A    between atoms: C_17  and  N_19 
REMARK       I    between atoms: N_19  and  C_20 
REMARK    8  A    between atoms: C_20  and  C_22 
REMARK    9  A    between atoms: C_28  and  O_29 
ROOT
ATOM      1  N   UNL d   1      25.158 -14.846  -1.591  0.00  0.00    -0.331 N 
ATOM      2  H   UNL d   1      24.334 -14.449  -2.029  0.00  0.00     0.168 HD
ENDROOT
BRANCH   1   3
ATOM      3  C   UNL d   1      24.937 -16.141  -0.949  0.00  0.00     0.069 C 
ATOM      4  C   UNL d   1      23.608 -16.680  -0.846  0.00  0.00     0.046 C 
ATOM      5  C   UNL d   1      23.339 -17.995  -0.341  0.00  0.00     0.000 C 
ATOM      6  C   UNL d   1      24.427 -18.784   0.020  0.00  0.00     0.017 C 
ATOM      7  C   UNL d   1      25.710 -18.232   0.035  0.00  0.00     0.040 C 
ATOM      8  C   UNL d   1      25.970 -16.916  -0.397  0.00  0.00     0.095 C 
BRANCH   5   9
ATOM      9  C   UNL d   1      21.987 -18.585  -0.287  0.00  0.00     0.086 A 
ATOM     10  C   UNL d   1      21.080 -18.929  -1.269  0.00  0.00     0.040 A 
ATOM     11  C   UNL d   1      19.964 -19.513  -0.630  0.00  0.00     0.038 A 
ATOM     12  C   UNL d   1      20.218 -19.497   0.726  0.00  0.00     0.077 A 
ATOM     13  O   UNL d   1      21.467 -18.949   0.946  0.00  0.00    -0.312 OA
BRANCH  12  14
ATOM     14  C   UNL d   1      19.394 -19.955   1.885  0.00  0.00     0.229 C 
BRANCH  14  15
ATOM     15  O   UNL d   1      20.282 -20.291   2.961  0.00  0.00    -0.394 OA
ATOM     16  H   UNL d   1      21.172 -20.005   2.697  0.00  0.00     0.209 HD
ENDBRANCH  14  15
ENDBRANCH  12  14
ENDBRANCH   5   9
BRANCH   8  17
ATOM     17  O   UNL d   1      27.295 -16.605  -0.266  0.00  0.00    -0.354 OA
ATOM     18  C   UNL d   1      28.233 -17.069  -1.225  0.00  0.00     0.210 C 
ENDBRANCH   8  17
ENDBRANCH   1   3
BRANCH   1  19
ATOM     19  C   UNL d   1      26.421 -14.220  -1.838  0.00  0.00     0.179 C 
ATOM     20  S   UNL d   1      26.947 -13.586  -3.298  0.00  0.00    -0.040 SA
BRANCH  19  21
ATOM     21  N   UNL d   1      27.249 -14.139  -0.693  0.00  0.00    -0.299 N 
ATOM     22  C   UNL d   1      26.898 -13.750   0.630  0.00  0.00     0.260 C 
ATOM     23  O   UNL d   1      25.905 -13.114   0.938  0.00  0.00    -0.267 OA
ATOM     24  H   UNL d   1      28.111 -14.652  -0.768  0.00  0.00     0.171 HD
BRANCH  22  25
ATOM     25  C   UNL d   1      27.898 -13.989   1.723  0.00  0.00     0.067 A 
ATOM     26  C   UNL d   1      27.438 -13.675   3.028  0.00  0.00     0.043 A 
ATOM     27  C   UNL d   1      28.300 -13.731   4.129  0.00  0.00     0.035 A 
ATOM     28 CL   UNL d   1      27.778 -13.187   5.677  0.00  0.00    -0.084 Cl
ATOM     29  C   UNL d   1      29.604 -14.172   3.971  0.00  0.00     0.026 A 
ATOM     30  C   UNL d   1      30.075 -14.449   2.685  0.00  0.00     0.039 A 
ATOM     31  C   UNL d   1      29.253 -14.322   1.542  0.00  0.00     0.084 A 
BRANCH  31  32
ATOM     32  O   UNL d   1      29.980 -14.506   0.394  0.00  0.00    -0.355 OA
ATOM     33  C   UNL d   1      30.886 -15.587   0.299  0.00  0.00     0.210 C 
ENDBRANCH  31  32
ENDBRANCH  22  25
ENDBRANCH  19  21
ENDBRANCH   1  19
TORSDOF 9
ENDMDL
MODEL 9
REMARK VINA RESULT:    -7.739      3.125      4.519
REMARK INTER + INTRA:         -13.918
REMARK INTER:                 -10.424
REMARK INTRA:                  -3.494
REMARK CONF_INDEPENDENT:        2.685
REMARK UNBOUND:                -3.494
REMARK  9 active torsions:
REMARK  status: ('A' for Active; 'I' for Inactive)
REMARK    1  A    between atoms: O_2  and  C_3 
REMARK    2  A    between atoms: C_6  and  C_7 
REMARK    3  A    between atoms: C_10  and  C_11 
REMARK    4  A    between atoms: C_11  and  O_12 
REMARK    5  A    between atoms: C_15  and  N_16 
REMARK    6  A    between atoms: N_16  and  C_17 
REMARK    7  A    between atoms: C_17  and  N_19 
REMARK       I    between atoms: N_19  and  C_20 
REMARK    8  A    between atoms: C_20  and  C_22 
REMARK    9  A    between atoms: C_28  and  O_29 
ROOT
ATOM      1  N   UNL d   1      25.147 -15.400  -2.489  0.00  0.00    -0.331 N 
ATOM      2  H   UNL d   1      24.400 -15.245  -3.156  0.00  0.00     0.168 HD
ENDROOT
BRANCH   1   3
ATOM      3  C   UNL d   1      24.851 -16.410  -1.474  0.00  0.00     0.069 C 
ATOM      4  C   UNL d   1      23.513 -16.915  -1.326  0.00  0.00     0.046 C 
ATOM      5  C   UNL d   1      23.182 -17.992  -0.438  0.00  0.00     0.000 C 
ATOM      6  C   UNL d   1      24.221 -18.587   0.271  0.00  0.00     0.017 C 
ATOM      7  C   UNL d   1      25.501 -18.032   0.224  0.00  0.00     0.040 C 
ATOM      8  C   UNL d   1      25.816 -16.931  -0.597  0.00  0.00     0.095 C 
BRANCH   5   9
ATOM      9  C   UNL d   1      21.825 -18.563  -0.320  0.00  0.00     0.086 A 
ATOM     10  C   UNL d   1      20.828 -18.796  -1.246  0.00  0.00     0.040 A 
ATOM     11  C   UNL d   1      19.758 -19.419  -0.568  0.00  0.00     0.038 A 
ATOM     12  C   UNL d   1      20.128 -19.538   0.755  0.00  0.00     0.077 A 
ATOM     13  O   UNL d   1      21.405 -19.034   0.914  0.00  0.00    -0.312 OA
BRANCH  12  14
ATOM     14  C   UNL d   1      19.397 -20.092   1.935  0.00  0.00     0.229 C 
BRANCH  14  15
ATOM     15  O   UNL d   1      20.280 -20.062   3.064  0.00  0.00    -0.394 OA
ATOM     16  H   UNL d   1      21.184 -20.179   2.724  0.00  0.00     0.209 HD
ENDBRANCH  14  15
ENDBRANCH  12  14
ENDBRANCH   5   9
BRANCH   8  17
ATOM     17  O   UNL d   1      27.124 -16.562  -0.450  0.00  0.00    -0.354 OA
ATOM     18  C   UNL d   1      28.111 -17.540  -0.160  0.00  0.00     0.210 C 
ENDBRANCH   8  17
ENDBRANCH   1   3
BRANCH   1  19
ATOM     19  C   UNL d   1      26.420 -14.798  -2.748  0.00  0.00     0.179 C 
ATOM     20  S   UNL d   1      27.296 -14.902  -4.172  0.00  0.00    -0.040 SA
BRANCH  19  21
ATOM     21  N   UNL d   1      26.919 -14.036  -1.665  0.00  0.00    -0.299 N 
ATOM     22  C   UNL d   1      26.775 -12.642  -1.420  0.00  0.00     0.260 C 
ATOM     23  O   UNL d   1      26.475 -11.806  -2.254  0.00  0.00    -0.267 OA
ATOM     24  H   UNL d   1      27.182 -14.581  -0.861  0.00  0.00     0.171 HD
BRANCH  22  25
ATOM     25  C   UNL d   1      27.180 -12.118  -0.073  0.00  0.00     0.067 A 
ATOM     26  C   UNL d   1      27.423 -10.721  -0.027  0.00  0.00     0.043 A 
ATOM     27  C   UNL d   1      27.926 -10.114   1.128  0.00  0.00     0.035 A 
ATOM     28 CL   UNL d   1      28.376  -8.451   1.119  0.00  0.00    -0.084 Cl
ATOM     29  C   UNL d   1      28.120 -10.861   2.279  0.00  0.00     0.026 A 
ATOM     30  C   UNL d   1      27.917 -12.243   2.233  0.00  0.00     0.039 A 
ATOM     31  C   UNL d   1      27.490 -12.899   1.056  0.00  0.00     0.084 A 
BRANCH  31  32
ATOM     32  O   UNL d   1      27.505 -14.260   1.221  0.00  0.00    -0.355 OA
ATOM     33  C   UNL d   1      27.850 -14.813   2.475  0.00  0.00     0.210 C 
ENDBRANCH  31  32
ENDBRANCH  22  25
ENDBRANCH  19  21
ENDBRANCH   1  19
TORSDOF 9
ENDMDL
