MODEL 1
REMARK VINA RESULT:    -8.829      0.000      0.000
REMARK INTER + INTRA:         -14.138
REMARK INTER:                 -12.409
REMARK INTRA:                  -1.729
REMARK CONF_INDEPENDENT:        3.580
REMARK UNBOUND:                -1.729
REMARK  12 active torsions:
REMARK  status: ('A' for Active; 'I' for Inactive)
REMARK    1  A    between atoms: C_2  and  C_3 
REMARK    2  A    between atoms: C_3  and  C_4 
REMARK    3  A    between atoms: C_4  and  C_5 
REMARK    4  A    between atoms: C_5  and  C_6 
REMARK       I    between atoms: C_6  and  N_8 
REMARK    5  A    between atoms: N_8  and  N_9 
REMARK    6  A    between atoms: N_9  and  C_10 
REMARK    7  A    between atoms: C_10  and  N_12 
REMARK       I    between atoms: N_12  and  C_13 
REMARK    8  A    between atoms: C_13  and  C_15 
REMARK    9  A    between atoms: C_18  and  O_19 
REMARK   10  A    between atoms: O_19  and  C_20 
REMARK   11  A    between atoms: C_20  and  C_21 
REMARK   12  A    between atoms: C_21  and  C_22 
ROOT
ATOM      1  N   UNL d   1      25.429 -16.371  -1.881  0.00  0.00    -0.298 N 
ATOM      2  C   UNL d   1      24.987 -15.317  -2.708  0.00  0.00     0.257 C 
ATOM      3  O   UNL d   1      23.863 -14.807  -2.666  0.00  0.00    -0.267 OA
ATOM      4  H   UNL d   1      26.396 -16.646  -1.985  0.00  0.00     0.171 HD
ENDROOT
BRANCH   2   5
ATOM      5  C   UNL d   1      25.895 -14.681  -3.707  0.00  0.00     0.033 A 
ATOM      6  C   UNL d   1      26.732 -15.379  -4.569  0.00  0.00     0.020 A 
ATOM      7  C   UNL d   1      27.458 -14.676  -5.559  0.00  0.00     0.039 A 
ATOM      8  C   UNL d   1      27.357 -13.274  -5.723  0.00  0.00     0.086 A 
ATOM      9  C   UNL d   1      26.474 -12.585  -4.872  0.00  0.00     0.045 A 
ATOM     10 BR   UNL d   1      26.061 -10.716  -4.836  0.00  0.00    -0.048 Br
ATOM     11  C   UNL d   1      25.757 -13.296  -3.893  0.00  0.00     0.039 A 
BRANCH   8  12
ATOM     12  O   UNL d   1      28.168 -12.806  -6.739  0.00  0.00    -0.349 OA
BRANCH  12  13
ATOM     13  C   UNL d   1      28.967 -13.775  -7.408  0.00  0.00     0.180 C 
BRANCH  13  14
ATOM     14  C   UNL d   1      30.319 -14.060  -6.749  0.00  0.00     0.065 C 
BRANCH  14  15
ATOM     15  C   UNL d   1      30.548 -15.562  -6.693  0.00  0.00    -0.056 A 
ATOM     16  C   UNL d   1      30.027 -16.336  -5.641  0.00  0.00     0.007 A 
ATOM     17  C   UNL d   1      30.409 -17.667  -5.474  0.00  0.00     0.001 A 
ATOM     18  C   UNL d   1      31.221 -18.277  -6.424  0.00  0.00     0.000 A 
ATOM     19  C   UNL d   1      31.687 -17.543  -7.514  0.00  0.00     0.001 A 
ATOM     20  C   UNL d   1      31.361 -16.190  -7.643  0.00  0.00     0.007 A 
ENDBRANCH  14  15
ENDBRANCH  13  14
ENDBRANCH  12  13
ENDBRANCH   8  12
ENDBRANCH   2   5
BRANCH   1  21
ATOM     21  C   UNL d   1      24.675 -17.004  -0.862  0.00  0.00     0.193 C 
ATOM     22  S   UNL d   1      25.285 -18.120   0.250  0.00  0.00    -0.039 SA
BRANCH  21  23
ATOM     23  N   UNL d   1      23.318 -16.644  -0.797  0.00  0.00    -0.273 N 
ATOM     24  H   UNL d   1      22.880 -15.845  -1.255  0.00  0.00     0.189 HD
BRANCH  23  25
ATOM     25  N   UNL d   1      22.401 -17.465  -0.019  0.00  0.00    -0.268 N 
ATOM     26  C   UNL d   1      21.894 -18.650  -0.523  0.00  0.00     0.236 C 
ATOM     27  O   UNL d   1      22.202 -19.058  -1.643  0.00  0.00    -0.272 OA
ATOM     28  H   UNL d   1      22.161 -17.104   0.904  0.00  0.00     0.190 HD
BRANCH  26  29
ATOM     29  C   UNL d   1      20.929 -19.406   0.411  0.00  0.00     0.104 C 
BRANCH  29  30
ATOM     30  C   UNL d   1      19.459 -19.163   0.022  0.00  0.00     0.009 C 
BRANCH  30  31
ATOM     31  C   UNL d   1      18.693 -20.447  -0.314  0.00  0.00     0.000 C 
BRANCH  31  32
ATOM     32  C   UNL d   1      18.364 -21.242   0.955  0.00  0.00    -0.005 C 
ATOM     33  C   UNL d   1      18.582 -20.400   2.203  0.00  0.00     0.005 C 
ENDBRANCH  31  32
ENDBRANCH  30  31
ENDBRANCH  29  30
ENDBRANCH  26  29
ENDBRANCH  23  25
ENDBRANCH  21  23
ENDBRANCH   1  21
TORSDOF 12
ENDMDL
MODEL 2
REMARK VINA RESULT:    -8.709      5.851      9.947
REMARK INTER + INTRA:         -14.379
REMARK INTER:                 -12.288
REMARK INTRA:                  -2.090
REMARK CONF_INDEPENDENT:        3.580
REMARK UNBOUND:                -2.090
REMARK  12 active torsions:
REMARK  status: ('A' for Active; 'I' for Inactive)
REMARK    1  A    between atoms: C_2  and  C_3 
REMARK    2  A    between atoms: C_3  and  C_4 
REMARK    3  A    between atoms: C_4  and  C_5 
REMARK    4  A    between atoms: C_5  and  C_6 
REMARK       I    between atoms: C_6  and  N_8 
REMARK    5  A    between atoms: N_8  and  N_9 
REMARK    6  A    between atoms: N_9  and  C_10 
REMARK    7  A    between atoms: C_10  and  N_12 
REMARK       I    between atoms: N_12  and  C_13 
REMARK    8  A    between atoms: C_13  and  C_15 
REMARK    9  A    between atoms: C_18  and  O_19 
REMARK   10  A    between atoms: O_19  and  C_20 
REMARK   11  A    between atoms: C_20  and  C_21 
REMARK   12  A    between atoms: C_21  and  C_22 
ROOT
ATOM      1  N   UNL d   1      29.927 -15.521   1.235  0.00  0.00    -0.298 N 
ATOM      2  C   UNL d   1      28.740 -14.886   0.812  0.00  0.00     0.257 C 
ATOM      3  O   UNL d   1      28.519 -13.674   0.889  0.00  0.00    -0.267 OA
ATOM      4  H   UNL d   1      29.994 -16.512   1.052  0.00  0.00     0.171 HD
ENDROOT
BRANCH   2   5
ATOM      5  C   UNL d   1      27.636 -15.655   0.168  0.00  0.00     0.033 A 
ATOM      6  C   UNL d   1      27.060 -16.803   0.698  0.00  0.00     0.020 A 
ATOM      7  C   UNL d   1      25.936 -17.379   0.062  0.00  0.00     0.039 A 
ATOM      8  C   UNL d   1      25.353 -16.822  -1.101  0.00  0.00     0.086 A 
ATOM      9  C   UNL d   1      25.918 -15.636  -1.603  0.00  0.00     0.045 A 
ATOM     10 BR   UNL d   1      25.371 -14.597  -3.116  0.00  0.00    -0.048 Br
ATOM     11  C   UNL d   1      27.034 -15.073  -0.960  0.00  0.00     0.039 A 
BRANCH   8  12
ATOM     12  O   UNL d   1      24.278 -17.563  -1.554  0.00  0.00    -0.349 OA
BRANCH  12  13
ATOM     13  C   UNL d   1      23.069 -17.442  -0.813  0.00  0.00     0.180 C 
BRANCH  13  14
ATOM     14  C   UNL d   1      22.822 -18.559   0.203  0.00  0.00     0.065 C 
BRANCH  14  15
ATOM     15  C   UNL d   1      21.367 -18.994   0.133  0.00  0.00    -0.056 A 
ATOM     16  C   UNL d   1      20.655 -19.332   1.298  0.00  0.00     0.007 A 
ATOM     17  C   UNL d   1      19.397 -19.929   1.220  0.00  0.00     0.001 A 
ATOM     18  C   UNL d   1      18.782 -20.085  -0.018  0.00  0.00     0.000 A 
ATOM     19  C   UNL d   1      19.444 -19.687  -1.177  0.00  0.00     0.001 A 
ATOM     20  C   UNL d   1      20.734 -19.153  -1.104  0.00  0.00     0.007 A 
ENDBRANCH  14  15
ENDBRANCH  13  14
ENDBRANCH  12  13
ENDBRANCH   8  12
ENDBRANCH   2   5
BRANCH   1  21
ATOM     21  C   UNL d   1      31.059 -14.882   1.800  0.00  0.00     0.193 C 
ATOM     22  S   UNL d   1      32.504 -14.565   0.985  0.00  0.00    -0.039 SA
BRANCH  21  23
ATOM     23  N   UNL d   1      30.928 -14.488   3.143  0.00  0.00    -0.273 N 
ATOM     24  H   UNL d   1      31.673 -14.448   3.837  0.00  0.00     0.189 HD
BRANCH  23  25
ATOM     25  N   UNL d   1      29.623 -14.077   3.639  0.00  0.00    -0.268 N 
ATOM     26  C   UNL d   1      29.195 -14.421   4.909  0.00  0.00     0.236 C 
ATOM     27  O   UNL d   1      29.903 -15.079   5.670  0.00  0.00    -0.272 OA
ATOM     28  H   UNL d   1      29.055 -13.534   2.988  0.00  0.00     0.190 HD
BRANCH  26  29
ATOM     29  C   UNL d   1      27.787 -13.922   5.290  0.00  0.00     0.104 C 
BRANCH  29  30
ATOM     30  C   UNL d   1      27.795 -12.423   5.641  0.00  0.00     0.009 C 
BRANCH  30  31
ATOM     31  C   UNL d   1      28.473 -12.110   6.979  0.00  0.00     0.000 C 
BRANCH  31  32
ATOM     32  C   UNL d   1      28.592 -13.369   7.846  0.00  0.00    -0.005 C 
ATOM     33  C   UNL d   1      29.131 -13.036   9.228  0.00  0.00     0.005 C 
ENDBRANCH  31  32
ENDBRANCH  30  31
ENDBRANCH  29  30
ENDBRANCH  26  29
ENDBRANCH  23  25
ENDBRANCH  21  23
ENDBRANCH   1  21
TORSDOF 12
ENDMDL
MODEL 3
REMARK VINA RESULT:    -8.687      4.982     10.090
REMARK INTER + INTRA:         -14.291
REMARK INTER:                 -12.267
REMARK INTRA:                  -2.024
REMARK CONF_INDEPENDENT:        3.580
REMARK UNBOUND:                -2.024
REMARK  12 active torsions:
REMARK  status: ('A' for Active; 'I' for Inactive)
REMARK    1  A    between atoms: C_2  and  C_3 
REMARK    2  A    between atoms: C_3  and  C_4 
REMARK    3  A    between atoms: C_4  and  C_5 
REMARK    4  A    between atoms: C_5  and  C_6 
REMARK       I    between atoms: C_6  and  N_8 
REMARK    5  A    between atoms: N_8  and  N_9 
REMARK    6  A    between atoms: N_9  and  C_10 
REMARK    7  A    between atoms: C_10  and  N_12 
REMARK       I    between atoms: N_12  and  C_13 
REMARK    8  A    between atoms: C_13  and  C_15 
REMARK    9  A    between atoms: C_18  and  O_19 
REMARK   10  A    between atoms: O_19  and  C_20 
REMARK   11  A    between atoms: C_20  and  C_21 
REMARK   12  A    between atoms: C_21  and  C_22 
ROOT
ATOM      1  N   UNL d   1      30.011 -16.699   0.349  0.00  0.00    -0.298 N 
ATOM      2  C   UNL d   1      29.218 -17.252  -0.679  0.00  0.00     0.257 C 
ATOM      3  O   UNL d   1      29.651 -17.696  -1.746  0.00  0.00    -0.267 OA
ATOM      4  H   UNL d   1      29.526 -16.432   1.194  0.00  0.00     0.171 HD
ENDROOT
BRANCH   2   5
ATOM      5  C   UNL d   1      27.740 -17.388  -0.529  0.00  0.00     0.033 A 
ATOM      6  C   UNL d   1      27.113 -18.178   0.427  0.00  0.00     0.020 A 
ATOM      7  C   UNL d   1      25.705 -18.134   0.555  0.00  0.00     0.039 A 
ATOM      8  C   UNL d   1      24.894 -17.298  -0.249  0.00  0.00     0.086 A 
ATOM      9  C   UNL d   1      25.545 -16.471  -1.183  0.00  0.00     0.045 A 
ATOM     10 BR   UNL d   1      24.778 -15.201  -2.394  0.00  0.00    -0.048 Br
ATOM     11  C   UNL d   1      26.945 -16.523  -1.299  0.00  0.00     0.039 A 
BRANCH   8  12
ATOM     12  O   UNL d   1      23.550 -17.434   0.042  0.00  0.00    -0.349 OA
BRANCH  12  13
ATOM     13  C   UNL d   1      22.949 -18.674  -0.316  0.00  0.00     0.180 C 
BRANCH  13  14
ATOM     14  C   UNL d   1      21.556 -18.557  -0.938  0.00  0.00     0.065 C 
BRANCH  14  15
ATOM     15  C   UNL d   1      20.555 -19.318  -0.084  0.00  0.00    -0.056 A 
ATOM     16  C   UNL d   1      19.443 -19.955  -0.664  0.00  0.00     0.007 A 
ATOM     17  C   UNL d   1      18.418 -20.470   0.129  0.00  0.00     0.001 A 
ATOM     18  C   UNL d   1      18.548 -20.466   1.514  0.00  0.00     0.000 A 
ATOM     19  C   UNL d   1      19.680 -19.905   2.103  0.00  0.00     0.001 A 
ATOM     20  C   UNL d   1      20.674 -19.325   1.310  0.00  0.00     0.007 A 
ENDBRANCH  14  15
ENDBRANCH  13  14
ENDBRANCH  12  13
ENDBRANCH   8  12
ENDBRANCH   2   5
BRANCH   1  21
ATOM     21  C   UNL d   1      31.423 -16.579   0.340  0.00  0.00     0.193 C 
ATOM     22  S   UNL d   1      32.473 -17.510  -0.600  0.00  0.00    -0.039 SA
BRANCH  21  23
ATOM     23  N   UNL d   1      31.955 -15.590   1.185  0.00  0.00    -0.273 N 
ATOM     24  H   UNL d   1      32.899 -15.206   1.151  0.00  0.00     0.189 HD
BRANCH  23  25
ATOM     25  N   UNL d   1      31.112 -15.015   2.224  0.00  0.00    -0.268 N 
ATOM     26  C   UNL d   1      31.282 -13.708   2.647  0.00  0.00     0.236 C 
ATOM     27  O   UNL d   1      32.145 -12.981   2.159  0.00  0.00    -0.272 OA
ATOM     28  H   UNL d   1      30.405 -15.640   2.613  0.00  0.00     0.190 HD
BRANCH  26  29
ATOM     29  C   UNL d   1      30.320 -13.244   3.759  0.00  0.00     0.104 C 
BRANCH  29  30
ATOM     30  C   UNL d   1      29.540 -14.427   4.362  0.00  0.00     0.009 C 
BRANCH  30  31
ATOM     31  C   UNL d   1      28.061 -14.451   3.966  0.00  0.00     0.000 C 
BRANCH  31  32
ATOM     32  C   UNL d   1      27.891 -14.815   2.486  0.00  0.00    -0.005 C 
ATOM     33  C   UNL d   1      27.891 -13.571   1.611  0.00  0.00     0.005 C 
ENDBRANCH  31  32
ENDBRANCH  30  31
ENDBRANCH  29  30
ENDBRANCH  26  29
ENDBRANCH  23  25
ENDBRANCH  21  23
ENDBRANCH   1  21
TORSDOF 12
ENDMDL
MODEL 4
REMARK VINA RESULT:    -8.396      6.454     10.059
REMARK INTER + INTRA:         -13.741
REMARK INTER:                 -11.975
REMARK INTRA:                  -1.766
REMARK CONF_INDEPENDENT:        3.580
REMARK UNBOUND:                -1.766
REMARK  12 active torsions:
REMARK  status: ('A' for Active; 'I' for Inactive)
REMARK    1  A    between atoms: C_2  and  C_3 
REMARK    2  A    between atoms: C_3  and  C_4 
REMARK    3  A    between atoms: C_4  and  C_5 
REMARK    4  A    between atoms: C_5  and  C_6 
REMARK       I    between atoms: C_6  and  N_8 
REMARK    5  A    between atoms: N_8  and  N_9 
REMARK    6  A    between atoms: N_9  and  C_10 
REMARK    7  A    between atoms: C_10  and  N_12 
REMARK       I    between atoms: N_12  and  C_13 
REMARK    8  A    between atoms: C_13  and  C_15 
REMARK    9  A    between atoms: C_18  and  O_19 
REMARK   10  A    between atoms: O_19  and  C_20 
REMARK   11  A    between atoms: C_20  and  C_21 
REMARK   12  A    between atoms: C_21  and  C_22 
ROOT
ATOM      1  N   UNL d   1      29.732 -14.498   1.808  0.00  0.00    -0.298 N 
ATOM      2  C   UNL d   1      28.909 -13.884   0.840  0.00  0.00     0.257 C 
ATOM      3  O   UNL d   1      29.099 -12.764   0.357  0.00  0.00    -0.267 OA
ATOM      4  H   UNL d   1      29.490 -15.445   2.066  0.00  0.00     0.171 HD
ENDROOT
BRANCH   2   5
ATOM      5  C   UNL d   1      27.726 -14.590   0.268  0.00  0.00     0.033 A 
ATOM      6  C   UNL d   1      26.844 -14.036  -0.652  0.00  0.00     0.020 A 
ATOM      7  C   UNL d   1      25.829 -14.840  -1.219  0.00  0.00     0.039 A 
ATOM      8  C   UNL d   1      25.678 -16.210  -0.899  0.00  0.00     0.086 A 
ATOM      9  C   UNL d   1      26.603 -16.771  -0.000  0.00  0.00     0.045 A 
ATOM     10 BR   UNL d   1      26.724 -18.578   0.622  0.00  0.00    -0.048 Br
ATOM     11  C   UNL d   1      27.609 -15.960   0.555  0.00  0.00     0.039 A 
BRANCH   8  12
ATOM     12  O   UNL d   1      24.610 -16.788  -1.560  0.00  0.00    -0.349 OA
BRANCH  12  13
ATOM     13  C   UNL d   1      23.366 -16.794  -0.868  0.00  0.00     0.180 C 
BRANCH  13  14
ATOM     14  C   UNL d   1      23.238 -17.868   0.214  0.00  0.00     0.065 C 
BRANCH  14  15
ATOM     15  C   UNL d   1      21.935 -18.628   0.020  0.00  0.00    -0.056 A 
ATOM     16  C   UNL d   1      21.457 -18.930  -1.268  0.00  0.00     0.007 A 
ATOM     17  C   UNL d   1      20.171 -19.437  -1.453  0.00  0.00     0.001 A 
ATOM     18  C   UNL d   1      19.391 -19.763  -0.348  0.00  0.00     0.000 A 
ATOM     19  C   UNL d   1      19.881 -19.539   0.938  0.00  0.00     0.001 A 
ATOM     20  C   UNL d   1      21.142 -18.966   1.121  0.00  0.00     0.007 A 
ENDBRANCH  14  15
ENDBRANCH  13  14
ENDBRANCH  12  13
ENDBRANCH   8  12
ENDBRANCH   2   5
BRANCH   1  21
ATOM     21  C   UNL d   1      30.910 -13.947   2.372  0.00  0.00     0.193 C 
ATOM     22  S   UNL d   1      31.918 -12.822   1.614  0.00  0.00    -0.039 SA
BRANCH  21  23
ATOM     23  N   UNL d   1      31.229 -14.389   3.668  0.00  0.00    -0.273 N 
ATOM     24  H   UNL d   1      32.008 -14.993   3.927  0.00  0.00     0.189 HD
BRANCH  23  25
ATOM     25  N   UNL d   1      30.401 -13.963   4.787  0.00  0.00    -0.268 N 
ATOM     26  C   UNL d   1      29.037 -14.196   4.802  0.00  0.00     0.236 C 
ATOM     27  O   UNL d   1      28.473 -14.777   3.876  0.00  0.00    -0.272 OA
ATOM     28  H   UNL d   1      30.893 -13.482   5.540  0.00  0.00     0.190 HD
BRANCH  26  29
ATOM     29  C   UNL d   1      28.292 -13.679   6.049  0.00  0.00     0.104 C 
BRANCH  29  30
ATOM     30  C   UNL d   1      28.906 -14.239   7.346  0.00  0.00     0.009 C 
BRANCH  30  31
ATOM     31  C   UNL d   1      28.981 -13.214   8.481  0.00  0.00     0.000 C 
BRANCH  31  32
ATOM     32  C   UNL d   1      28.651 -13.860   9.832  0.00  0.00    -0.005 C 
ATOM     33  C   UNL d   1      27.996 -12.861  10.774  0.00  0.00     0.005 C 
ENDBRANCH  31  32
ENDBRANCH  30  31
ENDBRANCH  29  30
ENDBRANCH  26  29
ENDBRANCH  23  25
ENDBRANCH  21  23
ENDBRANCH   1  21
TORSDOF 12
ENDMDL
MODEL 5
REMARK VINA RESULT:    -8.349      7.509     10.130
REMARK INTER + INTRA:         -14.299
REMARK INTER:                 -11.929
REMARK INTRA:                  -2.370
REMARK CONF_INDEPENDENT:        3.580
REMARK UNBOUND:                -2.370
REMARK  12 active torsions:
REMARK  status: ('A' for Active; 'I' for Inactive)
REMARK    1  A    between atoms: C_2  and  C_3 
REMARK    2  A    between atoms: C_3  and  C_4 
REMARK    3  A    between atoms: C_4  and  C_5 
REMARK    4  A    between atoms: C_5  and  C_6 
REMARK       I    between atoms: C_6  and  N_8 
REMARK    5  A    between atoms: N_8  and  N_9 
REMARK    6  A    between atoms: N_9  and  C_10 
REMARK    7  A    between atoms: C_10  and  N_12 
REMARK       I    between atoms: N_12  and  C_13 
REMARK    8  A    between atoms: C_13  and  C_15 
REMARK    9  A    between atoms: C_18  and  O_19 
REMARK   10  A    between atoms: O_19  and  C_20 
REMARK   11  A    between atoms: C_20  and  C_21 
REMARK   12  A    between atoms: C_21  and  C_22 
ROOT
ATOM      1  N   UNL d   1      28.322 -15.576   1.113  0.00  0.00    -0.298 N 
ATOM      2  C   UNL d   1      27.415 -14.555   1.468  0.00  0.00     0.257 C 
ATOM      3  O   UNL d   1      26.486 -14.156   0.760  0.00  0.00    -0.267 OA
ATOM      4  H   UNL d   1      28.995 -15.842   1.819  0.00  0.00     0.171 HD
ENDROOT
BRANCH   2   5
ATOM      5  C   UNL d   1      27.484 -13.885   2.799  0.00  0.00     0.033 A 
ATOM      6  C   UNL d   1      27.825 -14.521   3.986  0.00  0.00     0.020 A 
ATOM      7  C   UNL d   1      27.978 -13.759   5.168  0.00  0.00     0.039 A 
ATOM      8  C   UNL d   1      27.814 -12.354   5.193  0.00  0.00     0.086 A 
ATOM      9  C   UNL d   1      27.512 -11.716   3.976  0.00  0.00     0.045 A 
ATOM     10 BR   UNL d   1      27.261  -9.849   3.633  0.00  0.00    -0.048 Br
ATOM     11  C   UNL d   1      27.363 -12.485   2.808  0.00  0.00     0.039 A 
BRANCH   8  12
ATOM     12  O   UNL d   1      27.996 -11.827   6.458  0.00  0.00    -0.349 OA
BRANCH  12  13
ATOM     13  C   UNL d   1      29.298 -11.337   6.757  0.00  0.00     0.180 C 
BRANCH  13  14
ATOM     14  C   UNL d   1      30.133 -12.241   7.666  0.00  0.00     0.065 C 
BRANCH  14  15
ATOM     15  C   UNL d   1      29.234 -12.871   8.718  0.00  0.00    -0.056 A 
ATOM     16  C   UNL d   1      28.440 -12.075   9.563  0.00  0.00     0.007 A 
ATOM     17  C   UNL d   1      27.781 -12.632  10.659  0.00  0.00     0.001 A 
ATOM     18  C   UNL d   1      27.806 -14.010  10.853  0.00  0.00     0.000 A 
ATOM     19  C   UNL d   1      28.528 -14.821   9.979  0.00  0.00     0.001 A 
ATOM     20  C   UNL d   1      29.246 -14.254   8.923  0.00  0.00     0.007 A 
ENDBRANCH  14  15
ENDBRANCH  13  14
ENDBRANCH  12  13
ENDBRANCH   8  12
ENDBRANCH   2   5
BRANCH   1  21
ATOM     21  C   UNL d   1      28.311 -16.319  -0.094  0.00  0.00     0.193 C 
ATOM     22  S   UNL d   1      29.453 -16.185  -1.330  0.00  0.00    -0.039 SA
BRANCH  21  23
ATOM     23  N   UNL d   1      27.255 -17.237  -0.233  0.00  0.00    -0.273 N 
ATOM     24  H   UNL d   1      27.327 -18.253  -0.201  0.00  0.00     0.189 HD
BRANCH  23  25
ATOM     25  N   UNL d   1      25.902 -16.738  -0.433  0.00  0.00    -0.268 N 
ATOM     26  C   UNL d   1      24.813 -17.591  -0.431  0.00  0.00     0.236 C 
ATOM     27  O   UNL d   1      24.944 -18.802  -0.252  0.00  0.00    -0.272 OA
ATOM     28  H   UNL d   1      25.821 -15.731  -0.581  0.00  0.00     0.190 HD
BRANCH  26  29
ATOM     29  C   UNL d   1      23.446 -16.918  -0.665  0.00  0.00     0.104 C 
BRANCH  29  30
ATOM     30  C   UNL d   1      22.290 -17.788  -0.136  0.00  0.00     0.009 C 
BRANCH  30  31
ATOM     31  C   UNL d   1      21.927 -18.954  -1.062  0.00  0.00     0.000 C 
BRANCH  31  32
ATOM     32  C   UNL d   1      20.444 -19.322  -0.931  0.00  0.00    -0.005 C 
ATOM     33  C   UNL d   1      20.134 -19.868   0.455  0.00  0.00     0.005 C 
ENDBRANCH  31  32
ENDBRANCH  30  31
ENDBRANCH  29  30
ENDBRANCH  26  29
ENDBRANCH  23  25
ENDBRANCH  21  23
ENDBRANCH   1  21
TORSDOF 12
ENDMDL
MODEL 6
REMARK VINA RESULT:    -7.779      3.619      9.891
REMARK INTER + INTRA:         -13.897
REMARK INTER:                 -11.359
REMARK INTRA:                  -2.538
REMARK CONF_INDEPENDENT:        3.580
REMARK UNBOUND:                -2.538
REMARK  12 active torsions:
REMARK  status: ('A' for Active; 'I' for Inactive)
REMARK    1  A    between atoms: C_2  and  C_3 
REMARK    2  A    between atoms: C_3  and  C_4 
REMARK    3  A    between atoms: C_4  and  C_5 
REMARK    4  A    between atoms: C_5  and  C_6 
REMARK       I    between atoms: C_6  and  N_8 
REMARK    5  A    between atoms: N_8  and  N_9 
REMARK    6  A    between atoms: N_9  and  C_10 
REMARK    7  A    between atoms: C_10  and  N_12 
REMARK       I    between atoms: N_12  and  C_13 
REMARK    8  A    between atoms: C_13  and  C_15 
REMARK    9  A    between atoms: C_18  and  O_19 
REMARK   10  A    between atoms: O_19  and  C_20 
REMARK   11  A    between atoms: C_20  and  C_21 
REMARK   12  A    between atoms: C_21  and  C_22 
ROOT
ATOM      1  N   UNL d   1      28.756 -14.822  -3.870  0.00  0.00    -0.298 N 
ATOM      2  C   UNL d   1      27.453 -15.291  -4.146  0.00  0.00     0.257 C 
ATOM      3  O   UNL d   1      27.016 -15.540  -5.273  0.00  0.00    -0.267 OA
ATOM      4  H   UNL d   1      28.997 -14.721  -2.893  0.00  0.00     0.171 HD
ENDROOT
BRANCH   2   5
ATOM      5  C   UNL d   1      26.483 -15.577  -3.050  0.00  0.00     0.033 A 
ATOM      6  C   UNL d   1      25.148 -15.192  -3.057  0.00  0.00     0.020 A 
ATOM      7  C   UNL d   1      24.291 -15.626  -2.019  0.00  0.00     0.039 A 
ATOM      8  C   UNL d   1      24.734 -16.460  -0.966  0.00  0.00     0.086 A 
ATOM      9  C   UNL d   1      26.077 -16.878  -0.993  0.00  0.00     0.045 A 
ATOM     10 BR   UNL d   1      26.998 -18.026   0.232  0.00  0.00    -0.048 Br
ATOM     11  C   UNL d   1      26.918 -16.441  -2.031  0.00  0.00     0.039 A 
BRANCH   8  12
ATOM     12  O   UNL d   1      23.728 -16.740  -0.060  0.00  0.00    -0.349 OA
BRANCH  12  13
ATOM     13  C   UNL d   1      23.271 -18.087  -0.020  0.00  0.00     0.180 C 
BRANCH  13  14
ATOM     14  C   UNL d   1      22.218 -18.441  -1.072  0.00  0.00     0.065 C 
BRANCH  14  15
ATOM     15  C   UNL d   1      21.058 -19.164  -0.405  0.00  0.00    -0.056 A 
ATOM     16  C   UNL d   1      19.952 -19.605  -1.153  0.00  0.00     0.007 A 
ATOM     17  C   UNL d   1      18.802 -20.075  -0.520  0.00  0.00     0.001 A 
ATOM     18  C   UNL d   1      18.786 -20.226   0.863  0.00  0.00     0.000 A 
ATOM     19  C   UNL d   1      19.903 -19.862   1.613  0.00  0.00     0.001 A 
ATOM     20  C   UNL d   1      21.030 -19.325   0.984  0.00  0.00     0.007 A 
ENDBRANCH  14  15
ENDBRANCH  13  14
ENDBRANCH  12  13
ENDBRANCH   8  12
ENDBRANCH   2   5
BRANCH   1  21
ATOM     21  C   UNL d   1      29.774 -14.578  -4.824  0.00  0.00     0.193 C 
ATOM     22  S   UNL d   1      31.421 -14.438  -4.476  0.00  0.00    -0.039 SA
BRANCH  21  23
ATOM     23  N   UNL d   1      29.343 -14.455  -6.156  0.00  0.00    -0.273 N 
ATOM     24  H   UNL d   1      29.742 -14.925  -6.968  0.00  0.00     0.189 HD
BRANCH  23  25
ATOM     25  N   UNL d   1      28.211 -13.592  -6.459  0.00  0.00    -0.268 N 
ATOM     26  C   UNL d   1      28.362 -12.221  -6.576  0.00  0.00     0.236 C 
ATOM     27  O   UNL d   1      29.459 -11.681  -6.435  0.00  0.00    -0.272 OA
ATOM     28  H   UNL d   1      27.313 -14.065  -6.570  0.00  0.00     0.190 HD
BRANCH  26  29
ATOM     29  C   UNL d   1      27.072 -11.438  -6.891  0.00  0.00     0.104 C 
BRANCH  29  30
ATOM     30  C   UNL d   1      26.301 -11.080  -5.607  0.00  0.00     0.009 C 
BRANCH  30  31
ATOM     31  C   UNL d   1      25.903 -12.300  -4.771  0.00  0.00     0.000 C 
BRANCH  31  32
ATOM     32  C   UNL d   1      26.355 -12.144  -3.314  0.00  0.00    -0.005 C 
ATOM     33  C   UNL d   1      26.854 -10.733  -3.042  0.00  0.00     0.005 C 
ENDBRANCH  31  32
ENDBRANCH  30  31
ENDBRANCH  29  30
ENDBRANCH  26  29
ENDBRANCH  23  25
ENDBRANCH  21  23
ENDBRANCH   1  21
TORSDOF 12
ENDMDL
MODEL 7
REMARK VINA RESULT:    -7.625      4.946      9.494
REMARK INTER + INTRA:         -13.799
REMARK INTER:                 -11.204
REMARK INTRA:                  -2.595
REMARK CONF_INDEPENDENT:        3.580
REMARK UNBOUND:                -2.595
REMARK  12 active torsions:
REMARK  status: ('A' for Active; 'I' for Inactive)
REMARK    1  A    between atoms: C_2  and  C_3 
REMARK    2  A    between atoms: C_3  and  C_4 
REMARK    3  A    between atoms: C_4  and  C_5 
REMARK    4  A    between atoms: C_5  and  C_6 
REMARK       I    between atoms: C_6  and  N_8 
REMARK    5  A    between atoms: N_8  and  N_9 
REMARK    6  A    between atoms: N_9  and  C_10 
REMARK    7  A    between atoms: C_10  and  N_12 
REMARK       I    between atoms: N_12  and  C_13 
REMARK    8  A    between atoms: C_13  and  C_15 
REMARK    9  A    between atoms: C_18  and  O_19 
REMARK   10  A    between atoms: O_19  and  C_20 
REMARK   11  A    between atoms: C_20  and  C_21 
REMARK   12  A    between atoms: C_21  and  C_22 
ROOT
ATOM      1  N   UNL d   1      30.088 -16.206   0.635  0.00  0.00    -0.298 N 
ATOM      2  C   UNL d   1      29.027 -15.407   0.158  0.00  0.00     0.257 C 
ATOM      3  O   UNL d   1      29.043 -14.175   0.092  0.00  0.00    -0.267 OA
ATOM      4  H   UNL d   1      29.958 -17.207   0.572  0.00  0.00     0.171 HD
ENDROOT
BRANCH   2   5
ATOM      5  C   UNL d   1      27.771 -16.019  -0.367  0.00  0.00     0.033 A 
ATOM      6  C   UNL d   1      27.168 -17.156   0.156  0.00  0.00     0.020 A 
ATOM      7  C   UNL d   1      25.914 -17.574  -0.345  0.00  0.00     0.039 A 
ATOM      8  C   UNL d   1      25.226 -16.867  -1.360  0.00  0.00     0.086 A 
ATOM      9  C   UNL d   1      25.827 -15.694  -1.851  0.00  0.00     0.045 A 
ATOM     10 BR   UNL d   1      25.172 -14.480  -3.179  0.00  0.00    -0.048 Br
ATOM     11  C   UNL d   1      27.073 -15.288  -1.343  0.00  0.00     0.039 A 
BRANCH   8  12
ATOM     12  O   UNL d   1      24.030 -17.470  -1.700  0.00  0.00    -0.349 OA
BRANCH  12  13
ATOM     13  C   UNL d   1      22.972 -17.352  -0.755  0.00  0.00     0.180 C 
BRANCH  13  14
ATOM     14  C   UNL d   1      22.780 -18.570   0.151  0.00  0.00     0.065 C 
BRANCH  14  15
ATOM     15  C   UNL d   1      21.322 -19.000   0.122  0.00  0.00    -0.056 A 
ATOM     16  C   UNL d   1      20.639 -19.328   1.306  0.00  0.00     0.007 A 
ATOM     17  C   UNL d   1      19.377 -19.919   1.264  0.00  0.00     0.001 A 
ATOM     18  C   UNL d   1      18.728 -20.079   0.044  0.00  0.00     0.000 A 
ATOM     19  C   UNL d   1      19.363 -19.689  -1.135  0.00  0.00     0.001 A 
ATOM     20  C   UNL d   1      20.656 -19.162  -1.098  0.00  0.00     0.007 A 
ENDBRANCH  14  15
ENDBRANCH  13  14
ENDBRANCH  12  13
ENDBRANCH   8  12
ENDBRANCH   2   5
BRANCH   1  21
ATOM     21  C   UNL d   1      31.343 -15.737   1.097  0.00  0.00     0.193 C 
ATOM     22  S   UNL d   1      32.755 -15.665   0.173  0.00  0.00    -0.039 SA
BRANCH  21  23
ATOM     23  N   UNL d   1      31.374 -15.297   2.432  0.00  0.00    -0.273 N 
ATOM     24  H   UNL d   1      32.044 -15.578   3.147  0.00  0.00     0.189 HD
BRANCH  23  25
ATOM     25  N   UNL d   1      30.379 -14.337   2.886  0.00  0.00    -0.268 N 
ATOM     26  C   UNL d   1      29.938 -14.324   4.198  0.00  0.00     0.236 C 
ATOM     27  O   UNL d   1      30.374 -15.117   5.031  0.00  0.00    -0.272 OA
ATOM     28  H   UNL d   1      30.032 -13.692   2.175  0.00  0.00     0.190 HD
BRANCH  26  29
ATOM     29  C   UNL d   1      28.876 -13.256   4.528  0.00  0.00     0.104 C 
BRANCH  29  30
ATOM     30  C   UNL d   1      27.470 -13.703   4.087  0.00  0.00     0.009 C 
BRANCH  30  31
ATOM     31  C   UNL d   1      27.387 -14.098   2.609  0.00  0.00     0.000 C 
BRANCH  31  32
ATOM     32  C   UNL d   1      26.637 -13.037   1.795  0.00  0.00    -0.005 C 
ATOM     33  C   UNL d   1      27.169 -11.642   2.088  0.00  0.00     0.005 C 
ENDBRANCH  31  32
ENDBRANCH  30  31
ENDBRANCH  29  30
ENDBRANCH  26  29
ENDBRANCH  23  25
ENDBRANCH  21  23
ENDBRANCH   1  21
TORSDOF 12
ENDMDL
MODEL 8
REMARK VINA RESULT:    -7.480      3.867      9.629
REMARK INTER + INTRA:         -13.894
REMARK INTER:                 -11.059
REMARK INTRA:                  -2.835
REMARK CONF_INDEPENDENT:        3.580
REMARK UNBOUND:                -2.835
REMARK  12 active torsions:
REMARK  status: ('A' for Active; 'I' for Inactive)
REMARK    1  A    between atoms: C_2  and  C_3 
REMARK    2  A    between atoms: C_3  and  C_4 
REMARK    3  A    between atoms: C_4  and  C_5 
REMARK    4  A    between atoms: C_5  and  C_6 
REMARK       I    between atoms: C_6  and  N_8 
REMARK    5  A    between atoms: N_8  and  N_9 
REMARK    6  A    between atoms: N_9  and  C_10 
REMARK    7  A    between atoms: C_10  and  N_12 
REMARK       I    between atoms: N_12  and  C_13 
REMARK    8  A    between atoms: C_13  and  C_15 
REMARK    9  A    between atoms: C_18  and  O_19 
REMARK   10  A    between atoms: O_19  and  C_20 
REMARK   11  A    between atoms: C_20  and  C_21 
REMARK   12  A    between atoms: C_21  and  C_22 
ROOT
ATOM      1  N   UNL d   1      26.929 -14.408  -4.589  0.00  0.00    -0.298 N 
ATOM      2  C   UNL d   1      27.288 -15.201  -3.478  0.00  0.00     0.257 C 
ATOM      3  O   UNL d   1      28.439 -15.546  -3.197  0.00  0.00    -0.267 OA
ATOM      4  H   UNL d   1      25.954 -14.152  -4.659  0.00  0.00     0.171 HD
ENDROOT
BRANCH   2   5
ATOM      5  C   UNL d   1      26.267 -15.664  -2.493  0.00  0.00     0.033 A 
ATOM      6  C   UNL d   1      24.910 -15.375  -2.568  0.00  0.00     0.020 A 
ATOM      7  C   UNL d   1      24.017 -15.970  -1.647  0.00  0.00     0.039 A 
ATOM      8  C   UNL d   1      24.448 -16.873  -0.646  0.00  0.00     0.086 A 
ATOM      9  C   UNL d   1      25.818 -17.191  -0.608  0.00  0.00     0.045 A 
ATOM     10 BR   UNL d   1      26.736 -18.388   0.571  0.00  0.00    -0.048 Br
ATOM     11  C   UNL d   1      26.694 -16.593  -1.530  0.00  0.00     0.039 A 
BRANCH   8  12
ATOM     12  O   UNL d   1      23.405 -17.312   0.147  0.00  0.00    -0.349 OA
BRANCH  12  13
ATOM     13  C   UNL d   1      22.152 -17.497  -0.502  0.00  0.00     0.180 C 
BRANCH  13  14
ATOM     14  C   UNL d   1      21.824 -18.947  -0.868  0.00  0.00     0.065 C 
BRANCH  14  15
ATOM     15  C   UNL d   1      20.619 -19.411  -0.067  0.00  0.00    -0.056 A 
ATOM     16  C   UNL d   1      20.655 -19.455   1.338  0.00  0.00     0.007 A 
ATOM     17  C   UNL d   1      19.636 -20.074   2.062  0.00  0.00     0.001 A 
ATOM     18  C   UNL d   1      18.509 -20.550   1.399  0.00  0.00     0.000 A 
ATOM     19  C   UNL d   1      18.424 -20.447   0.012  0.00  0.00     0.001 A 
ATOM     20  C   UNL d   1      19.478 -19.890  -0.719  0.00  0.00     0.007 A 
ENDBRANCH  14  15
ENDBRANCH  13  14
ENDBRANCH  12  13
ENDBRANCH   8  12
ENDBRANCH   2   5
BRANCH   1  21
ATOM     21  C   UNL d   1      27.819 -13.865  -5.548  0.00  0.00     0.193 C 
ATOM     22  S   UNL d   1      28.602 -14.746  -6.758  0.00  0.00    -0.039 SA
BRANCH  21  23
ATOM     23  N   UNL d   1      28.036 -12.479  -5.460  0.00  0.00    -0.273 N 
ATOM     24  H   UNL d   1      28.150 -11.833  -6.240  0.00  0.00     0.189 HD
BRANCH  23  25
ATOM     25  N   UNL d   1      28.103 -11.853  -4.148  0.00  0.00    -0.268 N 
ATOM     26  C   UNL d   1      26.983 -11.755  -3.340  0.00  0.00     0.236 C 
ATOM     27  O   UNL d   1      25.892 -12.199  -3.696  0.00  0.00    -0.272 OA
ATOM     28  H   UNL d   1      29.018 -11.492  -3.877  0.00  0.00     0.190 HD
BRANCH  26  29
ATOM     29  C   UNL d   1      27.206 -11.059  -1.983  0.00  0.00     0.104 C 
BRANCH  29  30
ATOM     30  C   UNL d   1      27.885 -12.001  -0.970  0.00  0.00     0.009 C 
BRANCH  30  31
ATOM     31  C   UNL d   1      27.076 -12.204   0.315  0.00  0.00     0.000 C 
BRANCH  31  32
ATOM     32  C   UNL d   1      26.655 -13.670   0.476  0.00  0.00    -0.005 C 
ATOM     33  C   UNL d   1      27.774 -14.499   1.087  0.00  0.00     0.005 C 
ENDBRANCH  31  32
ENDBRANCH  30  31
ENDBRANCH  29  30
ENDBRANCH  26  29
ENDBRANCH  23  25
ENDBRANCH  21  23
ENDBRANCH   1  21
TORSDOF 12
ENDMDL
MODEL 9
REMARK VINA RESULT:    -7.464      3.685      9.858
REMARK INTER + INTRA:         -13.928
REMARK INTER:                 -11.043
REMARK INTRA:                  -2.884
REMARK CONF_INDEPENDENT:        3.580
REMARK UNBOUND:                -2.884
REMARK  12 active torsions:
REMARK  status: ('A' for Active; 'I' for Inactive)
REMARK    1  A    between atoms: C_2  and  C_3 
REMARK    2  A    between atoms: C_3  and  C_4 
REMARK    3  A    between atoms: C_4  and  C_5 
REMARK    4  A    between atoms: C_5  and  C_6 
REMARK       I    between atoms: C_6  and  N_8 
REMARK    5  A    between atoms: N_8  and  N_9 
REMARK    6  A    between atoms: N_9  and  C_10 
REMARK    7  A    between atoms: C_10  and  N_12 
REMARK       I    between atoms: N_12  and  C_13 
REMARK    8  A    between atoms: C_13  and  C_15 
REMARK    9  A    between atoms: C_18  and  O_19 
REMARK   10  A    between atoms: O_19  and  C_20 
REMARK   11  A    between atoms: C_20  and  C_21 
REMARK   12  A    between atoms: C_21  and  C_22 
ROOT
ATOM      1  N   UNL d   1      27.426 -15.209  -5.058  0.00  0.00    -0.298 N 
ATOM      2  C   UNL d   1      27.717 -15.261  -3.678  0.00  0.00     0.257 C 
ATOM      3  O   UNL d   1      28.807 -14.975  -3.174  0.00  0.00    -0.267 OA
ATOM      4  H   UNL d   1      26.471 -15.410  -5.322  0.00  0.00     0.171 HD
ENDROOT
BRANCH   2   5
ATOM      5  C   UNL d   1      26.674 -15.634  -2.679  0.00  0.00     0.033 A 
ATOM      6  C   UNL d   1      25.328 -15.305  -2.782  0.00  0.00     0.020 A 
ATOM      7  C   UNL d   1      24.409 -15.818  -1.838  0.00  0.00     0.039 A 
ATOM      8  C   UNL d   1      24.801 -16.679  -0.786  0.00  0.00     0.086 A 
ATOM      9  C   UNL d   1      26.159 -17.041  -0.718  0.00  0.00     0.045 A 
ATOM     10 BR   UNL d   1      27.027 -18.202   0.532  0.00  0.00    -0.048 Br
ATOM     11  C   UNL d   1      27.062 -16.524  -1.664  0.00  0.00     0.039 A 
BRANCH   8  12
ATOM     12  O   UNL d   1      23.738 -17.040   0.020  0.00  0.00    -0.349 OA
BRANCH  12  13
ATOM     13  C   UNL d   1      22.481 -17.203  -0.627  0.00  0.00     0.180 C 
BRANCH  13  14
ATOM     14  C   UNL d   1      22.228 -18.598  -1.201  0.00  0.00     0.065 C 
BRANCH  14  15
ATOM     15  C   UNL d   1      21.053 -19.238  -0.480  0.00  0.00    -0.056 A 
ATOM     16  C   UNL d   1      19.925 -19.688  -1.189  0.00  0.00     0.007 A 
ATOM     17  C   UNL d   1      18.766 -20.079  -0.518  0.00  0.00     0.001 A 
ATOM     18  C   UNL d   1      18.760 -20.141   0.872  0.00  0.00     0.000 A 
ATOM     19  C   UNL d   1      19.896 -19.768   1.588  0.00  0.00     0.001 A 
ATOM     20  C   UNL d   1      21.033 -19.309   0.917  0.00  0.00     0.007 A 
ENDBRANCH  14  15
ENDBRANCH  13  14
ENDBRANCH  12  13
ENDBRANCH   8  12
ENDBRANCH   2   5
BRANCH   1  21
ATOM     21  C   UNL d   1      28.318 -14.809  -6.084  0.00  0.00     0.193 C 
ATOM     22  S   UNL d   1      28.312 -13.302  -6.846  0.00  0.00    -0.039 SA
BRANCH  21  23
ATOM     23  N   UNL d   1      29.274 -15.767  -6.466  0.00  0.00    -0.273 N 
ATOM     24  H   UNL d   1      29.565 -15.986  -7.418  0.00  0.00     0.189 HD
BRANCH  23  25
ATOM     25  N   UNL d   1      29.952 -16.542  -5.437  0.00  0.00    -0.268 N 
ATOM     26  C   UNL d   1      30.478 -17.793  -5.709  0.00  0.00     0.236 C 
ATOM     27  O   UNL d   1      30.400 -18.294  -6.830  0.00  0.00    -0.272 OA
ATOM     28  H   UNL d   1      30.002 -16.104  -4.517  0.00  0.00     0.190 HD
BRANCH  26  29
ATOM     29  C   UNL d   1      31.159 -18.496  -4.519  0.00  0.00     0.104 C 
BRANCH  29  30
ATOM     30  C   UNL d   1      30.643 -17.955  -3.172  0.00  0.00     0.009 C 
BRANCH  30  31
ATOM     31  C   UNL d   1      31.728 -17.279  -2.327  0.00  0.00     0.000 C 
BRANCH  31  32
ATOM     32  C   UNL d   1      31.131 -16.182  -1.437  0.00  0.00    -0.005 C 
ATOM     33  C   UNL d   1      30.343 -16.781  -0.282  0.00  0.00     0.005 C 
ENDBRANCH  31  32
ENDBRANCH  30  31
ENDBRANCH  29  30
ENDBRANCH  26  29
ENDBRANCH  23  25
ENDBRANCH  21  23
ENDBRANCH   1  21
TORSDOF 12
ENDMDL
