MODEL 1
REMARK VINA RESULT:   -29.993      0.000      0.000
REMARK INTER + INTRA:         -33.813
REMARK INTER:                 -32.379
REMARK INTRA:                  -1.434
REMARK CONF_INDEPENDENT:        2.386
REMARK UNBOUND:                -1.434
REMARK  8 active torsions:
REMARK  status: ('A' for Active; 'I' for Inactive)
REMARK    1  A    between atoms: C_2  and  C_3 
REMARK    2  A    between atoms: C_6  and  C_3 
REMARK    3  A    between atoms: N_4  and  O_5 
REMARK    4  A    between atoms: C_6  and  C_8 
REMARK    5  A    between atoms: C_8  and  C_10 
REMARK    6  A    between atoms: C_10  and  C_11 
REMARK    7  A    between atoms: C_11  and  C_12 
REMARK       I    between atoms: C_12  and  N_14 
REMARK    8  A    between atoms: N_14  and  C_15 
ROOT
ATOM      1  C   UNL d   1      25.757 -18.531  -0.140  0.00  0.00     0.110 C 
ENDROOT
BRANCH   1   2
ATOM      2  C   UNL d   1      24.398 -18.565   0.581  0.00  0.00     0.088 C 
BRANCH   2   3
ATOM      3  C   UNL d   1      23.242 -18.681  -0.391  0.00  0.00     0.136 C 
ATOM      4  O   UNL d   1      23.391 -19.250  -1.476  0.00  0.00    -0.297 OA
BRANCH   3   5
ATOM      5  C   UNL d   1      21.926 -17.999  -0.008  0.00  0.00     0.101 C 
ATOM      6  C   UNL d   1      21.697 -16.770  -0.895  0.00  0.00     0.024 C 
BRANCH   5   7
ATOM      7  C   UNL d   1      20.729 -18.950  -0.131  0.00  0.00     0.050 C 
ATOM      8  N   UNL d   1      19.901 -18.697  -1.106  0.00  0.00    -0.145 NA
BRANCH   7   9
ATOM      9  C   UNL d   1      20.666 -20.095   0.891  0.00  0.00     0.053 C 
ATOM     10  C   UNL d   1      19.324 -20.363   1.543  0.00  0.00     0.011 C 
ENDBRANCH   7   9
BRANCH   8  11
ATOM     11  O   UNL d   1      18.828 -19.572  -1.192  0.00  0.00    -0.266 OA
ATOM     12  H   UNL d   1      18.139 -19.055  -1.646  0.00  0.00     0.247 HD
ENDBRANCH   8  11
ENDBRANCH   5   7
ENDBRANCH   3   5
ENDBRANCH   2   3
ENDBRANCH   1   2
BRANCH   1  13
ATOM     13  C   UNL d   1      25.980 -17.171  -0.772  0.00  0.00     0.222 C 
ATOM     14  O   UNL d   1      26.519 -16.265  -0.125  0.00  0.00    -0.273 OA
ATOM     15  N   UNL d   1      25.502 -17.019  -2.068  0.00  0.00    -0.327 N 
ATOM     16  H   UNL d   1      24.837 -17.698  -2.423  0.00  0.00     0.169 HD
BRANCH  15  17
ATOM     17  C   UNL d   1      25.639 -15.793  -2.765  0.00  0.00     0.034 A 
ATOM     18  C   UNL d   1      24.592 -14.863  -2.768  0.00  0.00     0.031 A 
ATOM     19  C   UNL d   1      24.687 -13.673  -3.490  0.00  0.00     0.026 A 
ATOM     20  C   UNL d   1      25.832 -13.408  -4.230  0.00  0.00     0.034 A 
ATOM     21 CL   UNL d   1      25.926 -11.963  -5.160  0.00  0.00    -0.084 Cl
ATOM     22  C   UNL d   1      26.896 -14.311  -4.221  0.00  0.00     0.026 A 
ATOM     23  C   UNL d   1      26.812 -15.495  -3.468  0.00  0.00     0.031 A 
ENDBRANCH  15  17
ENDBRANCH   1  13
TORSDOF 8
ENDMDL
MODEL 2
REMARK VINA RESULT:   -29.744      1.406      1.782
REMARK INTER + INTRA:         -33.319
REMARK INTER:                 -32.131
REMARK INTRA:                  -1.188
REMARK CONF_INDEPENDENT:        2.386
REMARK UNBOUND:                -1.188
REMARK  8 active torsions:
REMARK  status: ('A' for Active; 'I' for Inactive)
REMARK    1  A    between atoms: C_2  and  C_3 
REMARK    2  A    between atoms: C_6  and  C_3 
REMARK    3  A    between atoms: N_4  and  O_5 
REMARK    4  A    between atoms: C_6  and  C_8 
REMARK    5  A    between atoms: C_8  and  C_10 
REMARK    6  A    between atoms: C_10  and  C_11 
REMARK    7  A    between atoms: C_11  and  C_12 
REMARK       I    between atoms: C_12  and  N_14 
REMARK    8  A    between atoms: N_14  and  C_15 
ROOT
ATOM      1  C   UNL d   1      25.255 -17.587  -0.914  0.00  0.00     0.110 C 
ENDROOT
BRANCH   1   2
ATOM      2  C   UNL d   1      24.022 -17.238  -0.062  0.00  0.00     0.088 C 
BRANCH   2   3
ATOM      3  C   UNL d   1      22.729 -17.435  -0.826  0.00  0.00     0.136 C 
ATOM      4  O   UNL d   1      22.051 -16.462  -1.168  0.00  0.00    -0.297 OA
BRANCH   3   5
ATOM      5  C   UNL d   1      22.268 -18.872  -1.076  0.00  0.00     0.101 C 
ATOM      6  C   UNL d   1      23.305 -19.857  -0.524  0.00  0.00     0.024 C 
BRANCH   5   7
ATOM      7  C   UNL d   1      20.902 -19.156  -0.440  0.00  0.00     0.050 C 
ATOM      8  N   UNL d   1      19.904 -19.281  -1.270  0.00  0.00    -0.145 NA
BRANCH   7   9
ATOM      9  C   UNL d   1      20.881 -19.282   1.091  0.00  0.00     0.053 C 
ATOM     10  C   UNL d   1      19.938 -20.311   1.684  0.00  0.00     0.011 C 
ENDBRANCH   7   9
BRANCH   8  11
ATOM     11  O   UNL d   1      18.681 -19.536  -0.666  0.00  0.00    -0.266 OA
ATOM     12  H   UNL d   1      18.048 -19.012  -1.189  0.00  0.00     0.247 HD
ENDBRANCH   8  11
ENDBRANCH   5   7
ENDBRANCH   3   5
ENDBRANCH   2   3
ENDBRANCH   1   2
BRANCH   1  13
ATOM     13  C   UNL d   1      25.825 -16.333  -1.548  0.00  0.00     0.222 C 
ATOM     14  O   UNL d   1      27.032 -16.080  -1.454  0.00  0.00    -0.273 OA
ATOM     15  N   UNL d   1      24.905 -15.501  -2.176  0.00  0.00    -0.327 N 
ATOM     16  H   UNL d   1      23.919 -15.626  -1.974  0.00  0.00     0.169 HD
BRANCH  15  17
ATOM     17  C   UNL d   1      25.309 -14.292  -2.798  0.00  0.00     0.034 A 
ATOM     18  C   UNL d   1      25.916 -13.281  -2.045  0.00  0.00     0.031 A 
ATOM     19  C   UNL d   1      26.275 -12.065  -2.627  0.00  0.00     0.026 A 
ATOM     20  C   UNL d   1      26.015 -11.845  -3.974  0.00  0.00     0.034 A 
ATOM     21 CL   UNL d   1      26.412 -10.327  -4.679  0.00  0.00    -0.084 Cl
ATOM     22  C   UNL d   1      25.432 -12.850  -4.748  0.00  0.00     0.026 A 
ATOM     23  C   UNL d   1      25.101 -14.087  -4.167  0.00  0.00     0.031 A 
ENDBRANCH  15  17
ENDBRANCH   1  13
TORSDOF 8
ENDMDL
MODEL 3
REMARK VINA RESULT:   -29.696      1.943      2.277
REMARK INTER + INTRA:         -32.361
REMARK INTER:                 -32.082
REMARK INTRA:                  -0.279
REMARK CONF_INDEPENDENT:        2.386
REMARK UNBOUND:                -0.279
REMARK  8 active torsions:
REMARK  status: ('A' for Active; 'I' for Inactive)
REMARK    1  A    between atoms: C_2  and  C_3 
REMARK    2  A    between atoms: C_6  and  C_3 
REMARK    3  A    between atoms: N_4  and  O_5 
REMARK    4  A    between atoms: C_6  and  C_8 
REMARK    5  A    between atoms: C_8  and  C_10 
REMARK    6  A    between atoms: C_10  and  C_11 
REMARK    7  A    between atoms: C_11  and  C_12 
REMARK       I    between atoms: C_12  and  N_14 
REMARK    8  A    between atoms: N_14  and  C_15 
ROOT
ATOM      1  C   UNL d   1      24.764 -17.221  -1.815  0.00  0.00     0.110 C 
ENDROOT
BRANCH   1   2
ATOM      2  C   UNL d   1      23.814 -16.662  -0.740  0.00  0.00     0.088 C 
BRANCH   2   3
ATOM      3  C   UNL d   1      22.401 -17.183  -0.904  0.00  0.00     0.136 C 
ATOM      4  O   UNL d   1      21.444 -16.404  -0.898  0.00  0.00    -0.297 OA
BRANCH   3   5
ATOM      5  C   UNL d   1      22.213 -18.699  -0.990  0.00  0.00     0.101 C 
ATOM      6  C   UNL d   1      23.352 -19.410  -0.251  0.00  0.00     0.024 C 
BRANCH   5   7
ATOM      7  C   UNL d   1      20.866 -19.145  -0.407  0.00  0.00     0.050 C 
ATOM      8  N   UNL d   1      19.905 -19.319  -1.270  0.00  0.00    -0.145 NA
BRANCH   7   9
ATOM      9  C   UNL d   1      20.823 -19.354   1.114  0.00  0.00     0.053 C 
ATOM     10  C   UNL d   1      19.603 -20.057   1.677  0.00  0.00     0.011 C 
ENDBRANCH   7   9
BRANCH   8  11
ATOM     11  O   UNL d   1      18.698 -19.721  -0.714  0.00  0.00    -0.266 OA
ATOM     12  H   UNL d   1      18.031 -19.215  -1.212  0.00  0.00     0.247 HD
ENDBRANCH   8  11
ENDBRANCH   5   7
ENDBRANCH   3   5
ENDBRANCH   2   3
ENDBRANCH   1   2
BRANCH   1  13
ATOM     13  C   UNL d   1      25.412 -16.085  -2.582  0.00  0.00     0.222 C 
ATOM     14  O   UNL d   1      25.453 -16.112  -3.817  0.00  0.00    -0.273 OA
ATOM     15  N   UNL d   1      25.978 -15.078  -1.809  0.00  0.00    -0.327 N 
ATOM     16  H   UNL d   1      26.152 -15.259  -0.826  0.00  0.00     0.169 HD
BRANCH  15  17
ATOM     17  C   UNL d   1      26.624 -13.966  -2.406  0.00  0.00     0.034 A 
ATOM     18  C   UNL d   1      25.873 -12.982  -3.060  0.00  0.00     0.031 A 
ATOM     19  C   UNL d   1      26.493 -11.907  -3.697  0.00  0.00     0.026 A 
ATOM     20  C   UNL d   1      27.879 -11.815  -3.697  0.00  0.00     0.034 A 
ATOM     21 CL   UNL d   1      28.644 -10.515  -4.527  0.00  0.00    -0.084 Cl
ATOM     22  C   UNL d   1      28.645 -12.773  -3.031  0.00  0.00     0.026 A 
ATOM     23  C   UNL d   1      28.018 -13.838  -2.362  0.00  0.00     0.031 A 
ENDBRANCH  15  17
ENDBRANCH   1  13
TORSDOF 8
ENDMDL
MODEL 4
REMARK VINA RESULT:   -29.311      3.067      3.895
REMARK INTER + INTRA:         -32.232
REMARK INTER:                 -31.697
REMARK INTRA:                  -0.534
REMARK CONF_INDEPENDENT:        2.386
REMARK UNBOUND:                -0.534
REMARK  8 active torsions:
REMARK  status: ('A' for Active; 'I' for Inactive)
REMARK    1  A    between atoms: C_2  and  C_3 
REMARK    2  A    between atoms: C_6  and  C_3 
REMARK    3  A    between atoms: N_4  and  O_5 
REMARK    4  A    between atoms: C_6  and  C_8 
REMARK    5  A    between atoms: C_8  and  C_10 
REMARK    6  A    between atoms: C_10  and  C_11 
REMARK    7  A    between atoms: C_11  and  C_12 
REMARK       I    between atoms: C_12  and  N_14 
REMARK    8  A    between atoms: N_14  and  C_15 
ROOT
ATOM      1  C   UNL d   1      24.329 -16.946  -1.614  0.00  0.00     0.110 C 
ENDROOT
BRANCH   1   2
ATOM      2  C   UNL d   1      23.234 -16.673  -0.568  0.00  0.00     0.088 C 
BRANCH   2   3
ATOM      3  C   UNL d   1      21.931 -17.364  -0.915  0.00  0.00     0.136 C 
ATOM      4  O   UNL d   1      20.897 -16.708  -1.068  0.00  0.00    -0.297 OA
BRANCH   3   5
ATOM      5  C   UNL d   1      21.939 -18.893  -0.984  0.00  0.00     0.101 C 
ATOM      6  C   UNL d   1      23.098 -19.447  -0.147  0.00  0.00     0.024 C 
BRANCH   5   7
ATOM      7  C   UNL d   1      20.618 -19.497  -0.493  0.00  0.00     0.050 C 
ATOM      8  N   UNL d   1      19.587 -19.313  -1.270  0.00  0.00    -0.145 NA
BRANCH   7   9
ATOM      9  C   UNL d   1      20.676 -20.263   0.838  0.00  0.00     0.053 C 
ATOM     10  C   UNL d   1      19.871 -19.699   1.992  0.00  0.00     0.011 C 
ENDBRANCH   7   9
BRANCH   8  11
ATOM     11  O   UNL d   1      18.405 -19.869  -0.800  0.00  0.00    -0.266 OA
ATOM     12  H   UNL d   1      18.021 -20.300  -1.584  0.00  0.00     0.247 HD
ENDBRANCH   8  11
ENDBRANCH   5   7
ENDBRANCH   3   5
ENDBRANCH   2   3
ENDBRANCH   1   2
BRANCH   1  13
ATOM     13  C   UNL d   1      25.621 -16.263  -1.209  0.00  0.00     0.222 C 
ATOM     14  O   UNL d   1      25.699 -15.029  -1.207  0.00  0.00    -0.273 OA
ATOM     15  N   UNL d   1      26.681 -17.108  -0.901  0.00  0.00    -0.327 N 
ATOM     16  H   UNL d   1      26.629 -18.078  -1.191  0.00  0.00     0.169 HD
BRANCH  15  17
ATOM     17  C   UNL d   1      27.946 -16.594  -0.518  0.00  0.00     0.034 A 
ATOM     18  C   UNL d   1      29.120 -17.229  -0.937  0.00  0.00     0.031 A 
ATOM     19  C   UNL d   1      30.373 -16.769  -0.530  0.00  0.00     0.026 A 
ATOM     20  C   UNL d   1      30.460 -15.671   0.316  0.00  0.00     0.034 A 
ATOM     21 CL   UNL d   1      32.003 -15.136   0.858  0.00  0.00    -0.084 Cl
ATOM     22  C   UNL d   1      29.301 -15.009   0.725  0.00  0.00     0.026 A 
ATOM     23  C   UNL d   1      28.041 -15.454   0.288  0.00  0.00     0.031 A 
ENDBRANCH  15  17
ENDBRANCH   1  13
TORSDOF 8
ENDMDL
MODEL 5
REMARK VINA RESULT:   -29.111      3.053      3.396
REMARK INTER + INTRA:         -32.052
REMARK INTER:                 -31.497
REMARK INTRA:                  -0.555
REMARK CONF_INDEPENDENT:        2.386
REMARK UNBOUND:                -0.555
REMARK  8 active torsions:
REMARK  status: ('A' for Active; 'I' for Inactive)
REMARK    1  A    between atoms: C_2  and  C_3 
REMARK    2  A    between atoms: C_6  and  C_3 
REMARK    3  A    between atoms: N_4  and  O_5 
REMARK    4  A    between atoms: C_6  and  C_8 
REMARK    5  A    between atoms: C_8  and  C_10 
REMARK    6  A    between atoms: C_10  and  C_11 
REMARK    7  A    between atoms: C_11  and  C_12 
REMARK       I    between atoms: C_12  and  N_14 
REMARK    8  A    between atoms: N_14  and  C_15 
ROOT
ATOM      1  C   UNL d   1      25.658 -18.137  -0.557  0.00  0.00     0.110 C 
ENDROOT
BRANCH   1   2
ATOM      2  C   UNL d   1      24.498 -18.575   0.353  0.00  0.00     0.088 C 
BRANCH   2   3
ATOM      3  C   UNL d   1      23.244 -18.894  -0.436  0.00  0.00     0.136 C 
ATOM      4  O   UNL d   1      23.292 -19.660  -1.402  0.00  0.00    -0.297 OA
BRANCH   3   5
ATOM      5  C   UNL d   1      21.957 -18.169  -0.039  0.00  0.00     0.101 C 
ATOM      6  C   UNL d   1      21.781 -16.908  -0.893  0.00  0.00     0.024 C 
BRANCH   5   7
ATOM      7  C   UNL d   1      20.722 -19.066  -0.191  0.00  0.00     0.050 C 
ATOM      8  N   UNL d   1      19.905 -18.748  -1.156  0.00  0.00    -0.145 NA
BRANCH   7   9
ATOM      9  C   UNL d   1      20.613 -20.241   0.793  0.00  0.00     0.053 C 
ATOM     10  C   UNL d   1      19.631 -20.091   1.938  0.00  0.00     0.011 C 
ENDBRANCH   7   9
BRANCH   8  11
ATOM     11  O   UNL d   1      18.797 -19.576  -1.269  0.00  0.00    -0.266 OA
ATOM     12  H   UNL d   1      18.042 -18.963  -1.237  0.00  0.00     0.247 HD
ENDBRANCH   8  11
ENDBRANCH   5   7
ENDBRANCH   3   5
ENDBRANCH   2   3
ENDBRANCH   1   2
BRANCH   1  13
ATOM     13  C   UNL d   1      26.487 -17.069   0.129  0.00  0.00     0.222 C 
ATOM     14  O   UNL d   1      27.358 -17.388   0.948  0.00  0.00    -0.273 OA
ATOM     15  N   UNL d   1      26.166 -15.755  -0.189  0.00  0.00    -0.327 N 
ATOM     16  H   UNL d   1      25.277 -15.568  -0.640  0.00  0.00     0.169 HD
BRANCH  15  17
ATOM     17  C   UNL d   1      26.860 -14.665   0.393  0.00  0.00     0.034 A 
ATOM     18  C   UNL d   1      27.405 -14.782   1.677  0.00  0.00     0.031 A 
ATOM     19  C   UNL d   1      28.048 -13.704   2.288  0.00  0.00     0.026 A 
ATOM     20  C   UNL d   1      28.138 -12.490   1.620  0.00  0.00     0.034 A 
ATOM     21 CL   UNL d   1      28.886 -11.148   2.396  0.00  0.00    -0.084 Cl
ATOM     22  C   UNL d   1      27.621 -12.360   0.330  0.00  0.00     0.026 A 
ATOM     23  C   UNL d   1      27.003 -13.456  -0.297  0.00  0.00     0.031 A 
ENDBRANCH  15  17
ENDBRANCH   1  13
TORSDOF 8
ENDMDL
MODEL 6
REMARK VINA RESULT:   -28.961      3.304      3.844
REMARK INTER + INTRA:         -31.933
REMARK INTER:                 -31.348
REMARK INTRA:                  -0.586
REMARK CONF_INDEPENDENT:        2.386
REMARK UNBOUND:                -0.586
REMARK  8 active torsions:
REMARK  status: ('A' for Active; 'I' for Inactive)
REMARK    1  A    between atoms: C_2  and  C_3 
REMARK    2  A    between atoms: C_6  and  C_3 
REMARK    3  A    between atoms: N_4  and  O_5 
REMARK    4  A    between atoms: C_6  and  C_8 
REMARK    5  A    between atoms: C_8  and  C_10 
REMARK    6  A    between atoms: C_10  and  C_11 
REMARK    7  A    between atoms: C_11  and  C_12 
REMARK       I    between atoms: C_12  and  N_14 
REMARK    8  A    between atoms: N_14  and  C_15 
ROOT
ATOM      1  C   UNL d   1      25.186 -17.264  -0.371  0.00  0.00     0.110 C 
ENDROOT
BRANCH   1   2
ATOM      2  C   UNL d   1      24.496 -18.434   0.352  0.00  0.00     0.088 C 
BRANCH   2   3
ATOM      3  C   UNL d   1      23.232 -18.875  -0.359  0.00  0.00     0.136 C 
ATOM      4  O   UNL d   1      23.278 -19.746  -1.231  0.00  0.00    -0.297 OA
BRANCH   3   5
ATOM      5  C   UNL d   1      21.934 -18.143  -0.011  0.00  0.00     0.101 C 
ATOM      6  C   UNL d   1      21.783 -16.899  -0.894  0.00  0.00     0.024 C 
BRANCH   5   7
ATOM      7  C   UNL d   1      20.705 -19.043  -0.179  0.00  0.00     0.050 C 
ATOM      8  N   UNL d   1      19.905 -18.734  -1.161  0.00  0.00    -0.145 NA
BRANCH   7   9
ATOM      9  C   UNL d   1      20.579 -20.210   0.813  0.00  0.00     0.053 C 
ATOM     10  C   UNL d   1      19.251 -20.368   1.526  0.00  0.00     0.011 C 
ENDBRANCH   7   9
BRANCH   8  11
ATOM     11  O   UNL d   1      18.800 -19.565  -1.287  0.00  0.00    -0.266 OA
ATOM     12  H   UNL d   1      18.042 -18.956  -1.233  0.00  0.00     0.247 HD
ENDBRANCH   8  11
ENDBRANCH   5   7
ENDBRANCH   3   5
ENDBRANCH   2   3
ENDBRANCH   1   2
BRANCH   1  13
ATOM     13  C   UNL d   1      26.685 -17.326  -0.153  0.00  0.00     0.222 C 
ATOM     14  O   UNL d   1      27.162 -18.109   0.678  0.00  0.00    -0.273 OA
ATOM     15  N   UNL d   1      27.444 -16.430  -0.898  0.00  0.00    -0.327 N 
ATOM     16  H   UNL d   1      26.975 -15.645  -1.338  0.00  0.00     0.169 HD
BRANCH  15  17
ATOM     17  C   UNL d   1      28.855 -16.381  -0.777  0.00  0.00     0.034 A 
ATOM     18  C   UNL d   1      29.459 -15.425   0.047  0.00  0.00     0.031 A 
ATOM     19  C   UNL d   1      30.848 -15.327   0.141  0.00  0.00     0.026 A 
ATOM     20  C   UNL d   1      31.648 -16.182  -0.607  0.00  0.00     0.034 A 
ATOM     21 CL   UNL d   1      33.360 -16.026  -0.530  0.00  0.00    -0.084 Cl
ATOM     22  C   UNL d   1      31.065 -17.157  -1.417  0.00  0.00     0.026 A 
ATOM     23  C   UNL d   1      29.666 -17.276  -1.485  0.00  0.00     0.031 A 
ENDBRANCH  15  17
ENDBRANCH   1  13
TORSDOF 8
ENDMDL
MODEL 7
REMARK VINA RESULT:   -28.664      2.390      2.809
REMARK INTER + INTRA:         -31.726
REMARK INTER:                 -31.051
REMARK INTRA:                  -0.675
REMARK CONF_INDEPENDENT:        2.386
REMARK UNBOUND:                -0.675
REMARK  8 active torsions:
REMARK  status: ('A' for Active; 'I' for Inactive)
REMARK    1  A    between atoms: C_2  and  C_3 
REMARK    2  A    between atoms: C_6  and  C_3 
REMARK    3  A    between atoms: N_4  and  O_5 
REMARK    4  A    between atoms: C_6  and  C_8 
REMARK    5  A    between atoms: C_8  and  C_10 
REMARK    6  A    between atoms: C_10  and  C_11 
REMARK    7  A    between atoms: C_11  and  C_12 
REMARK       I    between atoms: C_12  and  N_14 
REMARK    8  A    between atoms: N_14  and  C_15 
ROOT
ATOM      1  C   UNL d   1      24.889 -17.329   0.003  0.00  0.00     0.110 C 
ENDROOT
BRANCH   1   2
ATOM      2  C   UNL d   1      24.582 -18.749  -0.504  0.00  0.00     0.088 C 
BRANCH   2   3
ATOM      3  C   UNL d   1      23.184 -18.859  -1.078  0.00  0.00     0.136 C 
ATOM      4  O   UNL d   1      22.995 -19.420  -2.160  0.00  0.00    -0.297 OA
BRANCH   3   5
ATOM      5  C   UNL d   1      22.050 -18.180  -0.308  0.00  0.00     0.101 C 
ATOM      6  C   UNL d   1      21.778 -16.790  -0.894  0.00  0.00     0.024 C 
BRANCH   5   7
ATOM      7  C   UNL d   1      20.760 -19.009  -0.336  0.00  0.00     0.050 C 
ATOM      8  N   UNL d   1      19.905 -18.696  -1.270  0.00  0.00    -0.145 NA
BRANCH   7   9
ATOM      9  C   UNL d   1      20.645 -20.119   0.720  0.00  0.00     0.053 C 
ATOM     10  C   UNL d   1      20.180 -19.707   2.103  0.00  0.00     0.011 C 
ENDBRANCH   7   9
BRANCH   8  11
ATOM     11  O   UNL d   1      18.747 -19.462  -1.270  0.00  0.00    -0.266 OA
ATOM     12  H   UNL d   1      18.072 -18.866  -1.641  0.00  0.00     0.247 HD
ENDBRANCH   8  11
ENDBRANCH   5   7
ENDBRANCH   3   5
ENDBRANCH   2   3
ENDBRANCH   1   2
BRANCH   1  13
ATOM     13  C   UNL d   1      26.322 -16.956  -0.320  0.00  0.00     0.222 C 
ATOM     14  O   UNL d   1      27.257 -17.496   0.284  0.00  0.00    -0.273 OA
ATOM     15  N   UNL d   1      26.489 -15.962  -1.277  0.00  0.00    -0.327 N 
ATOM     16  H   UNL d   1      25.693 -15.381  -1.518  0.00  0.00     0.169 HD
BRANCH  15  17
ATOM     17  C   UNL d   1      27.779 -15.516  -1.659  0.00  0.00     0.034 A 
ATOM     18  C   UNL d   1      28.678 -16.399  -2.269  0.00  0.00     0.031 A 
ATOM     19  C   UNL d   1      29.970 -15.993  -2.607  0.00  0.00     0.026 A 
ATOM     20  C   UNL d   1      30.379 -14.697  -2.323  0.00  0.00     0.034 A 
ATOM     21 CL   UNL d   1      31.989 -14.214  -2.694  0.00  0.00    -0.084 Cl
ATOM     22  C   UNL d   1      29.490 -13.795  -1.736  0.00  0.00     0.026 A 
ATOM     23  C   UNL d   1      28.179 -14.195  -1.426  0.00  0.00     0.031 A 
ENDBRANCH  15  17
ENDBRANCH   1  13
TORSDOF 8
ENDMDL
