MODEL 1
REMARK VINA RESULT:   -32.599      0.000      0.000
REMARK INTER + INTRA:         -37.249
REMARK INTER:                 -35.284
REMARK INTRA:                  -1.965
REMARK CONF_INDEPENDENT:        2.685
REMARK UNBOUND:                -1.965
REMARK  9 active torsions:
REMARK  status: ('A' for Active; 'I' for Inactive)
REMARK    1  A    between atoms: C_2  and  C_3 
REMARK    2  A    between atoms: C_3  and  O_4 
REMARK    3  A    between atoms: O_4  and  C_5 
REMARK    4  A    between atoms: C_9  and  C_10 
REMARK       I    between atoms: C_10  and  N_12 
REMARK    5  A    between atoms: N_12  and  C_13 
REMARK    6  A    between atoms: C_13  and  N_15 
REMARK    7  A    between atoms: N_15  and  C_16 
REMARK    8  A    between atoms: C_20  and  O_21 
REMARK    9  A    between atoms: C_22  and  C_23 
ROOT
ATOM      1  C   UNL d   1      25.557 -15.730  -2.254  0.00  0.00     0.035 A 
ATOM      2  C   UNL d   1      26.661 -16.014  -1.437  0.00  0.00     0.039 A 
ATOM      3  C   UNL d   1      26.571 -17.008  -0.426  0.00  0.00    -0.026 A 
ATOM      4  C   UNL d   1      27.812 -17.509   0.261  0.00  0.00     0.051 C 
ATOM      5  C   UNL d   1      25.334 -17.626  -0.165  0.00  0.00     0.086 A 
ATOM      6  C   UNL d   1      24.225 -17.354  -0.965  0.00  0.00     0.053 A 
ATOM      7  C   UNL d   1      24.373 -16.448  -2.022  0.00  0.00     0.048 A 
ENDROOT
BRANCH   1   8
ATOM      8  N   UNL d   1      25.624 -14.787  -3.346  0.00  0.00    -0.333 N 
ATOM      9  H   UNL d   1      25.123 -15.059  -4.183  0.00  0.00     0.168 HD
BRANCH   8  10
ATOM     10  C   UNL d   1      26.521 -13.689  -3.380  0.00  0.00     0.179 C 
ATOM     11  S   UNL d   1      26.228 -12.245  -2.546  0.00  0.00    -0.040 SA
BRANCH  10  12
ATOM     12  N   UNL d   1      27.700 -13.914  -4.130  0.00  0.00    -0.299 N 
ATOM     13  C   UNL d   1      27.782 -14.743  -5.272  0.00  0.00     0.257 C 
ATOM     14  O   UNL d   1      26.856 -15.456  -5.679  0.00  0.00    -0.267 OA
ATOM     15  H   UNL d   1      28.525 -13.408  -3.851  0.00  0.00     0.171 HD
BRANCH  13  16
ATOM     16  C   UNL d   1      29.014 -14.850  -6.099  0.00  0.00     0.035 A 
ATOM     17  C   UNL d   1      29.384 -13.724  -6.870  0.00  0.00     0.017 A 
ATOM     18  C   UNL d   1      30.558 -13.712  -7.619  0.00  0.00     0.004 A 
ATOM     19  C   UNL d   1      31.358 -14.849  -7.641  0.00  0.00     0.037 A 
ATOM     20  C   UNL d   1      31.014 -15.965  -6.870  0.00  0.00     0.069 A 
ATOM     21  C   UNL d   1      29.840 -15.968  -6.107  0.00  0.00     0.053 A 
BRANCH  20  22
ATOM     22  O   UNL d   1      31.944 -16.970  -6.832  0.00  0.00    -0.351 OA
BRANCH  22  23
ATOM     23  C   UNL d   1      31.658 -18.036  -5.930  0.00  0.00     0.175 C 
BRANCH  23  24
ATOM     24  C   UNL d   1      30.898 -19.120  -6.680  0.00  0.00     0.022 C 
ATOM     25  C   UNL d   1      30.535 -20.260  -5.745  0.00  0.00     0.007 C 
ENDBRANCH  23  24
ENDBRANCH  22  23
ENDBRANCH  20  22
ENDBRANCH  13  16
ENDBRANCH  10  12
ENDBRANCH   8  10
ENDBRANCH   1   8
BRANCH   6  26
ATOM     26  C   UNL d   1      22.938 -18.000  -0.739  0.00  0.00     0.185 A 
ATOM     27  N   UNL d   1      21.989 -18.296  -1.608  0.00  0.00    -0.201 NA
ATOM     28  C   UNL d   1      21.016 -18.857  -0.837  0.00  0.00     0.186 A 
ATOM     29  N   UNL d   1      19.823 -19.325  -1.269  0.00  0.00    -0.239 NA
ATOM     30  C   UNL d   1      21.410 -18.886   0.491  0.00  0.00     0.125 A 
ATOM     31  C   UNL d   1      19.043 -19.827  -0.283  0.00  0.00     0.119 A 
ATOM     32  C   UNL d   1      19.373 -19.879   1.071  0.00  0.00     0.022 A 
ATOM     33  C   UNL d   1      20.609 -19.392   1.504  0.00  0.00     0.043 A 
ATOM     34  O   UNL d   1      22.662 -18.348   0.567  0.00  0.00    -0.287 OA
ENDBRANCH   6  26
BRANCH   5  35
ATOM     35  O   UNL d   1      25.195 -18.569   0.819  0.00  0.00    -0.359 OA
ATOM     36  H   UNL d   1      24.345 -18.476   1.275  0.00  0.00     0.217 HD
ENDBRANCH   5  35
TORSDOF 9
ENDMDL
MODEL 2
REMARK VINA RESULT:   -32.420      1.173      1.647
REMARK INTER + INTRA:         -36.820
REMARK INTER:                 -35.104
REMARK INTRA:                  -1.716
REMARK CONF_INDEPENDENT:        2.685
REMARK UNBOUND:                -1.716
REMARK  9 active torsions:
REMARK  status: ('A' for Active; 'I' for Inactive)
REMARK    1  A    between atoms: C_2  and  C_3 
REMARK    2  A    between atoms: C_3  and  O_4 
REMARK    3  A    between atoms: O_4  and  C_5 
REMARK    4  A    between atoms: C_9  and  C_10 
REMARK       I    between atoms: C_10  and  N_12 
REMARK    5  A    between atoms: N_12  and  C_13 
REMARK    6  A    between atoms: C_13  and  N_15 
REMARK    7  A    between atoms: N_15  and  C_16 
REMARK    8  A    between atoms: C_20  and  O_21 
REMARK    9  A    between atoms: C_22  and  C_23 
ROOT
ATOM      1  C   UNL d   1      25.278 -15.187  -1.766  0.00  0.00     0.035 A 
ATOM      2  C   UNL d   1      26.467 -15.627  -1.166  0.00  0.00     0.039 A 
ATOM      3  C   UNL d   1      26.498 -16.850  -0.445  0.00  0.00    -0.026 A 
ATOM      4  C   UNL d   1      27.812 -17.461  -0.040  0.00  0.00     0.051 C 
ATOM      5  C   UNL d   1      25.304 -17.565  -0.233  0.00  0.00     0.086 A 
ATOM      6  C   UNL d   1      24.113 -17.142  -0.820  0.00  0.00     0.053 A 
ATOM      7  C   UNL d   1      24.135 -15.988  -1.614  0.00  0.00     0.048 A 
ENDROOT
BRANCH   1   8
ATOM      8  N   UNL d   1      25.215 -13.993  -2.575  0.00  0.00    -0.333 N 
ATOM      9  H   UNL d   1      24.365 -13.450  -2.481  0.00  0.00     0.168 HD
BRANCH   8  10
ATOM     10  C   UNL d   1      26.125 -13.707  -3.625  0.00  0.00     0.179 C 
ATOM     11  S   UNL d   1      25.864 -12.465  -4.746  0.00  0.00    -0.040 SA
BRANCH  10  12
ATOM     12  N   UNL d   1      27.288 -14.513  -3.633  0.00  0.00    -0.299 N 
ATOM     13  C   UNL d   1      27.691 -15.335  -4.710  0.00  0.00     0.257 C 
ATOM     14  O   UNL d   1      27.011 -15.531  -5.725  0.00  0.00    -0.267 OA
ATOM     15  H   UNL d   1      27.892 -14.457  -2.828  0.00  0.00     0.171 HD
BRANCH  13  16
ATOM     16  C   UNL d   1      28.986 -16.068  -4.720  0.00  0.00     0.035 A 
ATOM     17  C   UNL d   1      29.451 -16.591  -3.492  0.00  0.00     0.017 A 
ATOM     18  C   UNL d   1      30.617 -17.348  -3.421  0.00  0.00     0.004 A 
ATOM     19  C   UNL d   1      31.360 -17.555  -4.578  0.00  0.00     0.037 A 
ATOM     20  C   UNL d   1      30.905 -17.058  -5.804  0.00  0.00     0.069 A 
ATOM     21  C   UNL d   1      29.724 -16.309  -5.873  0.00  0.00     0.053 A 
BRANCH  20  22
ATOM     22  O   UNL d   1      31.618 -17.449  -6.906  0.00  0.00    -0.351 OA
BRANCH  22  23
ATOM     23  C   UNL d   1      30.977 -18.408  -7.744  0.00  0.00     0.175 C 
BRANCH  23  24
ATOM     24  C   UNL d   1      30.567 -19.603  -6.894  0.00  0.00     0.022 C 
ATOM     25  C   UNL d   1      31.789 -20.261  -6.278  0.00  0.00     0.007 C 
ENDBRANCH  23  24
ENDBRANCH  22  23
ENDBRANCH  20  22
ENDBRANCH  13  16
ENDBRANCH  10  12
ENDBRANCH   8  10
ENDBRANCH   1   8
BRANCH   6  26
ATOM     26  C   UNL d   1      22.866 -17.876  -0.643  0.00  0.00     0.185 A 
ATOM     27  N   UNL d   1      21.926 -18.150  -1.530  0.00  0.00    -0.201 NA
ATOM     28  C   UNL d   1      20.994 -18.828  -0.805  0.00  0.00     0.186 A 
ATOM     29  N   UNL d   1      19.825 -19.325  -1.270  0.00  0.00    -0.239 NA
ATOM     30  C   UNL d   1      21.402 -18.948   0.514  0.00  0.00     0.125 A 
ATOM     31  C   UNL d   1      19.084 -19.951  -0.326  0.00  0.00     0.119 A 
ATOM     32  C   UNL d   1      19.429 -20.099   1.018  0.00  0.00     0.022 A 
ATOM     33  C   UNL d   1      20.640 -19.581   1.485  0.00  0.00     0.043 A 
ATOM     34  O   UNL d   1      22.622 -18.347   0.630  0.00  0.00    -0.287 OA
ENDBRANCH   6  26
BRANCH   5  35
ATOM     35  O   UNL d   1      25.283 -18.735   0.481  0.00  0.00    -0.359 OA
ATOM     36  H   UNL d   1      24.425 -18.868   0.910  0.00  0.00     0.217 HD
ENDBRANCH   5  35
TORSDOF 9
ENDMDL
MODEL 3
REMARK VINA RESULT:   -32.056      4.110      6.384
REMARK INTER + INTRA:         -36.712
REMARK INTER:                 -34.740
REMARK INTRA:                  -1.972
REMARK CONF_INDEPENDENT:        2.685
REMARK UNBOUND:                -1.972
REMARK  9 active torsions:
REMARK  status: ('A' for Active; 'I' for Inactive)
REMARK    1  A    between atoms: C_2  and  C_3 
REMARK    2  A    between atoms: C_3  and  O_4 
REMARK    3  A    between atoms: O_4  and  C_5 
REMARK    4  A    between atoms: C_9  and  C_10 
REMARK       I    between atoms: C_10  and  N_12 
REMARK    5  A    between atoms: N_12  and  C_13 
REMARK    6  A    between atoms: C_13  and  N_15 
REMARK    7  A    between atoms: N_15  and  C_16 
REMARK    8  A    between atoms: C_20  and  O_21 
REMARK    9  A    between atoms: C_22  and  C_23 
ROOT
ATOM      1  C   UNL d   1      25.210 -15.266  -1.801  0.00  0.00     0.035 A 
ATOM      2  C   UNL d   1      26.382 -15.679  -1.151  0.00  0.00     0.039 A 
ATOM      3  C   UNL d   1      26.395 -16.873  -0.382  0.00  0.00    -0.026 A 
ATOM      4  C   UNL d   1      27.698 -17.464   0.084  0.00  0.00     0.051 C 
ATOM      5  C   UNL d   1      25.197 -17.582  -0.174  0.00  0.00     0.086 A 
ATOM      6  C   UNL d   1      24.022 -17.185  -0.811  0.00  0.00     0.053 A 
ATOM      7  C   UNL d   1      24.064 -16.064  -1.648  0.00  0.00     0.048 A 
ENDROOT
BRANCH   1   8
ATOM      8  N   UNL d   1      25.167 -14.105  -2.658  0.00  0.00    -0.333 N 
ATOM      9  H   UNL d   1      24.736 -13.283  -2.252  0.00  0.00     0.168 HD
BRANCH   8  10
ATOM     10  C   UNL d   1      25.451 -14.144  -4.047  0.00  0.00     0.179 C 
ATOM     11  S   UNL d   1      25.848 -15.577  -4.857  0.00  0.00    -0.040 SA
BRANCH  10  12
ATOM     12  N   UNL d   1      25.332 -12.899  -4.709  0.00  0.00    -0.299 N 
ATOM     13  C   UNL d   1      25.551 -11.641  -4.104  0.00  0.00     0.257 C 
ATOM     14  O   UNL d   1      25.761 -11.480  -2.895  0.00  0.00    -0.267 OA
ATOM     15  H   UNL d   1      25.120 -12.921  -5.694  0.00  0.00     0.171 HD
BRANCH  13  16
ATOM     16  C   UNL d   1      25.535 -10.367  -4.872  0.00  0.00     0.035 A 
ATOM     17  C   UNL d   1      26.158 -10.359  -6.140  0.00  0.00     0.017 A 
ATOM     18  C   UNL d   1      26.131  -9.232  -6.956  0.00  0.00     0.004 A 
ATOM     19  C   UNL d   1      25.513  -8.076  -6.491  0.00  0.00     0.037 A 
ATOM     20  C   UNL d   1      24.877  -8.072  -5.245  0.00  0.00     0.069 A 
ATOM     21  C   UNL d   1      24.895  -9.213  -4.434  0.00  0.00     0.053 A 
BRANCH  20  22
ATOM     22  O   UNL d   1      24.161  -6.943  -4.947  0.00  0.00    -0.351 OA
BRANCH  22  23
ATOM     23  C   UNL d   1      23.273  -6.492  -5.967  0.00  0.00     0.175 C 
BRANCH  23  24
ATOM     24  C   UNL d   1      21.849  -6.541  -5.431  0.00  0.00     0.022 C 
ATOM     25  C   UNL d   1      21.071  -5.314  -5.874  0.00  0.00     0.007 C 
ENDBRANCH  23  24
ENDBRANCH  22  23
ENDBRANCH  20  22
ENDBRANCH  13  16
ENDBRANCH  10  12
ENDBRANCH   8  10
ENDBRANCH   1   8
BRANCH   6  26
ATOM     26  C   UNL d   1      22.772 -17.915  -0.639  0.00  0.00     0.185 A 
ATOM     27  N   UNL d   1      21.820 -18.159  -1.523  0.00  0.00    -0.201 NA
ATOM     28  C   UNL d   1      20.891 -18.849  -0.805  0.00  0.00     0.186 A 
ATOM     29  N   UNL d   1      19.713 -19.325  -1.270  0.00  0.00    -0.239 NA
ATOM     30  C   UNL d   1      21.312 -19.007   0.505  0.00  0.00     0.125 A 
ATOM     31  C   UNL d   1      18.978 -19.971  -0.335  0.00  0.00     0.119 A 
ATOM     32  C   UNL d   1      19.337 -20.157   1.000  0.00  0.00     0.022 A 
ATOM     33  C   UNL d   1      20.556 -19.660   1.467  0.00  0.00     0.043 A 
ATOM     34  O   UNL d   1      22.538 -18.418   0.623  0.00  0.00    -0.287 OA
ENDBRANCH   6  26
BRANCH   5  35
ATOM     35  O   UNL d   1      25.158 -18.723   0.584  0.00  0.00    -0.359 OA
ATOM     36  H   UNL d   1      24.302 -19.168   0.502  0.00  0.00     0.217 HD
ENDBRANCH   5  35
TORSDOF 9
ENDMDL
MODEL 4
REMARK VINA RESULT:   -32.013      1.152      1.359
REMARK INTER + INTRA:         -36.557
REMARK INTER:                 -34.698
REMARK INTRA:                  -1.860
REMARK CONF_INDEPENDENT:        2.685
REMARK UNBOUND:                -1.860
REMARK  9 active torsions:
REMARK  status: ('A' for Active; 'I' for Inactive)
REMARK    1  A    between atoms: C_2  and  C_3 
REMARK    2  A    between atoms: C_3  and  O_4 
REMARK    3  A    between atoms: O_4  and  C_5 
REMARK    4  A    between atoms: C_9  and  C_10 
REMARK       I    between atoms: C_10  and  N_12 
REMARK    5  A    between atoms: N_12  and  C_13 
REMARK    6  A    between atoms: C_13  and  N_15 
REMARK    7  A    between atoms: N_15  and  C_16 
REMARK    8  A    between atoms: C_20  and  O_21 
REMARK    9  A    between atoms: C_22  and  C_23 
ROOT
ATOM      1  C   UNL d   1      25.429 -15.354  -2.130  0.00  0.00     0.035 A 
ATOM      2  C   UNL d   1      26.599 -15.733  -1.457  0.00  0.00     0.039 A 
ATOM      3  C   UNL d   1      26.600 -16.865  -0.599  0.00  0.00    -0.026 A 
ATOM      4  C   UNL d   1      27.897 -17.438  -0.096  0.00  0.00     0.051 C 
ATOM      5  C   UNL d   1      25.393 -17.537  -0.330  0.00  0.00     0.086 A 
ATOM      6  C   UNL d   1      24.220 -17.172  -0.988  0.00  0.00     0.053 A 
ATOM      7  C   UNL d   1      24.273 -16.119  -1.910  0.00  0.00     0.048 A 
ENDROOT
BRANCH   1   8
ATOM      8  N   UNL d   1      25.398 -14.261  -3.073  0.00  0.00    -0.333 N 
ATOM      9  H   UNL d   1      24.590 -14.238  -3.684  0.00  0.00     0.168 HD
BRANCH   8  10
ATOM     10  C   UNL d   1      26.511 -13.422  -3.339  0.00  0.00     0.179 C 
ATOM     11  S   UNL d   1      26.485 -11.754  -3.047  0.00  0.00    -0.040 SA
BRANCH  10  12
ATOM     12  N   UNL d   1      27.656 -14.097  -3.824  0.00  0.00    -0.299 N 
ATOM     13  C   UNL d   1      27.682 -14.913  -4.977  0.00  0.00     0.257 C 
ATOM     14  O   UNL d   1      26.677 -15.223  -5.630  0.00  0.00    -0.267 OA
ATOM     15  H   UNL d   1      28.523 -13.942  -3.332  0.00  0.00     0.171 HD
BRANCH  13  16
ATOM     16  C   UNL d   1      28.937 -15.500  -5.517  0.00  0.00     0.035 A 
ATOM     17  C   UNL d   1      29.469 -14.936  -6.699  0.00  0.00     0.017 A 
ATOM     18  C   UNL d   1      30.675 -15.378  -7.235  0.00  0.00     0.004 A 
ATOM     19  C   UNL d   1      31.347 -16.427  -6.616  0.00  0.00     0.037 A 
ATOM     20  C   UNL d   1      30.842 -16.984  -5.437  0.00  0.00     0.069 A 
ATOM     21  C   UNL d   1      29.636 -16.528  -4.892  0.00  0.00     0.053 A 
BRANCH  20  22
ATOM     22  O   UNL d   1      31.654 -17.897  -4.817  0.00  0.00    -0.351 OA
BRANCH  22  23
ATOM     23  C   UNL d   1      30.988 -19.011  -4.226  0.00  0.00     0.175 C 
BRANCH  23  24
ATOM     24  C   UNL d   1      31.283 -19.020  -2.733  0.00  0.00     0.022 C 
ATOM     25  C   UNL d   1      30.897 -17.692  -2.106  0.00  0.00     0.007 C 
ENDBRANCH  23  24
ENDBRANCH  22  23
ENDBRANCH  20  22
ENDBRANCH  13  16
ENDBRANCH  10  12
ENDBRANCH   8  10
ENDBRANCH   1   8
BRANCH   6  26
ATOM     26  C   UNL d   1      22.960 -17.867  -0.755  0.00  0.00     0.185 A 
ATOM     27  N   UNL d   1      22.024 -18.212  -1.621  0.00  0.00    -0.201 NA
ATOM     28  C   UNL d   1      21.074 -18.803  -0.843  0.00  0.00     0.186 A 
ATOM     29  N   UNL d   1      19.902 -19.325  -1.270  0.00  0.00    -0.239 NA
ATOM     30  C   UNL d   1      21.468 -18.799   0.486  0.00  0.00     0.125 A 
ATOM     31  C   UNL d   1      19.142 -19.846  -0.278  0.00  0.00     0.119 A 
ATOM     32  C   UNL d   1      19.473 -19.867   1.077  0.00  0.00     0.022 A 
ATOM     33  C   UNL d   1      20.687 -19.325   1.505  0.00  0.00     0.043 A 
ATOM     34  O   UNL d   1      22.696 -18.209   0.555  0.00  0.00    -0.287 OA
ENDBRANCH   6  26
BRANCH   5  35
ATOM     35  O   UNL d   1      25.342 -18.616   0.513  0.00  0.00    -0.359 OA
ATOM     36  H   UNL d   1      24.734 -18.455   1.250  0.00  0.00     0.217 HD
ENDBRANCH   5  35
TORSDOF 9
ENDMDL
MODEL 5
REMARK VINA RESULT:   -31.994      1.207      2.748
REMARK INTER + INTRA:         -36.597
REMARK INTER:                 -34.679
REMARK INTRA:                  -1.918
REMARK CONF_INDEPENDENT:        2.685
REMARK UNBOUND:                -1.918
REMARK  9 active torsions:
REMARK  status: ('A' for Active; 'I' for Inactive)
REMARK    1  A    between atoms: C_2  and  C_3 
REMARK    2  A    between atoms: C_3  and  O_4 
REMARK    3  A    between atoms: O_4  and  C_5 
REMARK    4  A    between atoms: C_9  and  C_10 
REMARK       I    between atoms: C_10  and  N_12 
REMARK    5  A    between atoms: N_12  and  C_13 
REMARK    6  A    between atoms: C_13  and  N_15 
REMARK    7  A    between atoms: N_15  and  C_16 
REMARK    8  A    between atoms: C_20  and  O_21 
REMARK    9  A    between atoms: C_22  and  C_23 
ROOT
ATOM      1  C   UNL d   1      25.501 -15.736  -2.231  0.00  0.00     0.035 A 
ATOM      2  C   UNL d   1      26.603 -16.004  -1.406  0.00  0.00     0.039 A 
ATOM      3  C   UNL d   1      26.517 -16.991  -0.389  0.00  0.00    -0.026 A 
ATOM      4  C   UNL d   1      27.758 -17.475   0.309  0.00  0.00     0.051 C 
ATOM      5  C   UNL d   1      25.284 -17.619  -0.130  0.00  0.00     0.086 A 
ATOM      6  C   UNL d   1      24.177 -17.363  -0.938  0.00  0.00     0.053 A 
ATOM      7  C   UNL d   1      24.323 -16.463  -2.001  0.00  0.00     0.048 A 
ENDROOT
BRANCH   1   8
ATOM      8  N   UNL d   1      25.565 -14.800  -3.329  0.00  0.00    -0.333 N 
ATOM      9  H   UNL d   1      25.075 -15.084  -4.169  0.00  0.00     0.168 HD
BRANCH   8  10
ATOM     10  C   UNL d   1      26.449 -13.691  -3.364  0.00  0.00     0.179 C 
ATOM     11  S   UNL d   1      26.105 -12.227  -2.587  0.00  0.00    -0.040 SA
BRANCH  10  12
ATOM     12  N   UNL d   1      27.658 -13.923  -4.062  0.00  0.00    -0.299 N 
ATOM     13  C   UNL d   1      27.777 -14.712  -5.228  0.00  0.00     0.257 C 
ATOM     14  O   UNL d   1      26.855 -15.385  -5.707  0.00  0.00    -0.267 OA
ATOM     15  H   UNL d   1      28.481 -13.450  -3.723  0.00  0.00     0.171 HD
BRANCH  13  16
ATOM     16  C   UNL d   1      29.046 -14.824  -5.995  0.00  0.00     0.035 A 
ATOM     17  C   UNL d   1      29.662 -16.095  -6.061  0.00  0.00     0.017 A 
ATOM     18  C   UNL d   1      30.814 -16.306  -6.813  0.00  0.00     0.004 A 
ATOM     19  C   UNL d   1      31.393 -15.231  -7.478  0.00  0.00     0.037 A 
ATOM     20  C   UNL d   1      30.787 -13.971  -7.437  0.00  0.00     0.069 A 
ATOM     21  C   UNL d   1      29.621 -13.766  -6.691  0.00  0.00     0.053 A 
BRANCH  20  22
ATOM     22  O   UNL d   1      31.341 -13.018  -8.251  0.00  0.00    -0.351 OA
BRANCH  22  23
ATOM     23  C   UNL d   1      30.516 -12.575  -9.327  0.00  0.00     0.175 C 
BRANCH  23  24
ATOM     24  C   UNL d   1      29.947 -11.208  -8.973  0.00  0.00     0.022 C 
ATOM     25  C   UNL d   1      28.429 -11.249  -8.972  0.00  0.00     0.007 C 
ENDBRANCH  23  24
ENDBRANCH  22  23
ENDBRANCH  20  22
ENDBRANCH  13  16
ENDBRANCH  10  12
ENDBRANCH   8  10
ENDBRANCH   1   8
BRANCH   6  26
ATOM     26  C   UNL d   1      22.895 -18.020  -0.715  0.00  0.00     0.185 A 
ATOM     27  N   UNL d   1      21.929 -18.280  -1.578  0.00  0.00    -0.201 NA
ATOM     28  C   UNL d   1      20.972 -18.874  -0.812  0.00  0.00     0.186 A 
ATOM     29  N   UNL d   1      19.770 -19.325  -1.241  0.00  0.00    -0.239 NA
ATOM     30  C   UNL d   1      21.391 -18.958   0.506  0.00  0.00     0.125 A 
ATOM     31  C   UNL d   1      19.010 -19.868  -0.262  0.00  0.00     0.119 A 
ATOM     32  C   UNL d   1      19.366 -19.977   1.083  0.00  0.00     0.022 A 
ATOM     33  C   UNL d   1      20.609 -19.507   1.512  0.00  0.00     0.043 A 
ATOM     34  O   UNL d   1      22.643 -18.422   0.580  0.00  0.00    -0.287 OA
ENDBRANCH   6  26
BRANCH   5  35
ATOM     35  O   UNL d   1      25.148 -18.556   0.860  0.00  0.00    -0.359 OA
ATOM     36  H   UNL d   1      24.426 -18.325   1.464  0.00  0.00     0.217 HD
ENDBRANCH   5  35
TORSDOF 9
ENDMDL
MODEL 6
REMARK VINA RESULT:   -31.846      3.674      5.039
REMARK INTER + INTRA:         -36.468
REMARK INTER:                 -34.530
REMARK INTRA:                  -1.938
REMARK CONF_INDEPENDENT:        2.685
REMARK UNBOUND:                -1.938
REMARK  9 active torsions:
REMARK  status: ('A' for Active; 'I' for Inactive)
REMARK    1  A    between atoms: C_2  and  C_3 
REMARK    2  A    between atoms: C_3  and  O_4 
REMARK    3  A    between atoms: O_4  and  C_5 
REMARK    4  A    between atoms: C_9  and  C_10 
REMARK       I    between atoms: C_10  and  N_12 
REMARK    5  A    between atoms: N_12  and  C_13 
REMARK    6  A    between atoms: C_13  and  N_15 
REMARK    7  A    between atoms: N_15  and  C_16 
REMARK    8  A    between atoms: C_20  and  O_21 
REMARK    9  A    between atoms: C_22  and  C_23 
ROOT
ATOM      1  C   UNL d   1      25.204 -15.282  -1.917  0.00  0.00     0.035 A 
ATOM      2  C   UNL d   1      26.398 -15.720  -1.327  0.00  0.00     0.039 A 
ATOM      3  C   UNL d   1      26.428 -16.925  -0.576  0.00  0.00    -0.026 A 
ATOM      4  C   UNL d   1      27.742 -17.540  -0.177  0.00  0.00     0.051 C 
ATOM      5  C   UNL d   1      25.231 -17.620  -0.324  0.00  0.00     0.086 A 
ATOM      6  C   UNL d   1      24.034 -17.197  -0.901  0.00  0.00     0.053 A 
ATOM      7  C   UNL d   1      24.055 -16.065  -1.724  0.00  0.00     0.048 A 
ENDROOT
BRANCH   1   8
ATOM      8  N   UNL d   1      25.140 -14.107  -2.756  0.00  0.00    -0.333 N 
ATOM      9  H   UNL d   1      24.694 -13.300  -2.337  0.00  0.00     0.168 HD
BRANCH   8  10
ATOM     10  C   UNL d   1      25.423 -14.119  -4.145  0.00  0.00     0.179 C 
ATOM     11  S   UNL d   1      25.845 -15.532  -4.978  0.00  0.00    -0.040 SA
BRANCH  10  12
ATOM     12  N   UNL d   1      25.280 -12.866  -4.787  0.00  0.00    -0.299 N 
ATOM     13  C   UNL d   1      25.578 -11.619  -4.194  0.00  0.00     0.257 C 
ATOM     14  O   UNL d   1      25.890 -11.473  -3.005  0.00  0.00    -0.267 OA
ATOM     15  H   UNL d   1      24.988 -12.875  -5.752  0.00  0.00     0.171 HD
BRANCH  13  16
ATOM     16  C   UNL d   1      25.530 -10.338  -4.949  0.00  0.00     0.035 A 
ATOM     17  C   UNL d   1      25.179  -9.170  -4.236  0.00  0.00     0.017 A 
ATOM     18  C   UNL d   1      25.176  -7.919  -4.847  0.00  0.00     0.004 A 
ATOM     19  C   UNL d   1      25.484  -7.827  -6.200  0.00  0.00     0.037 A 
ATOM     20  C   UNL d   1      25.849  -8.972  -6.917  0.00  0.00     0.069 A 
ATOM     21  C   UNL d   1      25.865 -10.226  -6.294  0.00  0.00     0.053 A 
BRANCH  20  22
ATOM     22  O   UNL d   1      26.289  -8.757  -8.196  0.00  0.00    -0.351 OA
BRANCH  22  23
ATOM     23  C   UNL d   1      27.647  -9.112  -8.447  0.00  0.00     0.175 C 
BRANCH  23  24
ATOM     24  C   UNL d   1      27.710 -10.598  -8.774  0.00  0.00     0.022 C 
ATOM     25  C   UNL d   1      26.846 -10.914  -9.982  0.00  0.00     0.007 C 
ENDBRANCH  23  24
ENDBRANCH  22  23
ENDBRANCH  20  22
ENDBRANCH  13  16
ENDBRANCH  10  12
ENDBRANCH   8  10
ENDBRANCH   1   8
BRANCH   6  26
ATOM     26  C   UNL d   1      22.782 -17.913  -0.684  0.00  0.00     0.185 A 
ATOM     27  N   UNL d   1      21.816 -18.183  -1.543  0.00  0.00    -0.201 NA
ATOM     28  C   UNL d   1      20.893 -18.840  -0.786  0.00  0.00     0.186 A 
ATOM     29  N   UNL d   1      19.706 -19.325  -1.215  0.00  0.00    -0.239 NA
ATOM     30  C   UNL d   1      21.334 -18.952   0.523  0.00  0.00     0.125 A 
ATOM     31  C   UNL d   1      18.981 -19.931  -0.245  0.00  0.00     0.119 A 
ATOM     32  C   UNL d   1      19.360 -20.070   1.090  0.00  0.00     0.022 A 
ATOM     33  C   UNL d   1      20.589 -19.564   1.520  0.00  0.00     0.043 A 
ATOM     34  O   UNL d   1      22.565 -18.367   0.600  0.00  0.00    -0.287 OA
ENDBRANCH   6  26
BRANCH   5  35
ATOM     35  O   UNL d   1      25.209 -18.771   0.419  0.00  0.00    -0.359 OA
ATOM     36  H   UNL d   1      24.316 -18.963   0.740  0.00  0.00     0.217 HD
ENDBRANCH   5  35
TORSDOF 9
ENDMDL
MODEL 7
REMARK VINA RESULT:   -31.320      3.899      6.055
REMARK INTER + INTRA:         -35.678
REMARK INTER:                 -34.004
REMARK INTRA:                  -1.673
REMARK CONF_INDEPENDENT:        2.685
REMARK UNBOUND:                -1.673
REMARK  9 active torsions:
REMARK  status: ('A' for Active; 'I' for Inactive)
REMARK    1  A    between atoms: C_2  and  C_3 
REMARK    2  A    between atoms: C_3  and  O_4 
REMARK    3  A    between atoms: O_4  and  C_5 
REMARK    4  A    between atoms: C_9  and  C_10 
REMARK       I    between atoms: C_10  and  N_12 
REMARK    5  A    between atoms: N_12  and  C_13 
REMARK    6  A    between atoms: C_13  and  N_15 
REMARK    7  A    between atoms: N_15  and  C_16 
REMARK    8  A    between atoms: C_20  and  O_21 
REMARK    9  A    between atoms: C_22  and  C_23 
ROOT
ATOM      1  C   UNL d   1      25.482 -15.591  -2.152  0.00  0.00     0.035 A 
ATOM      2  C   UNL d   1      26.600 -15.890  -1.361  0.00  0.00     0.039 A 
ATOM      3  C   UNL d   1      26.537 -16.926  -0.391  0.00  0.00    -0.026 A 
ATOM      4  C   UNL d   1      27.793 -17.435   0.262  0.00  0.00     0.051 C 
ATOM      5  C   UNL d   1      25.313 -17.574  -0.142  0.00  0.00     0.086 A 
ATOM      6  C   UNL d   1      24.191 -17.287  -0.918  0.00  0.00     0.053 A 
ATOM      7  C   UNL d   1      24.312 -16.336  -1.938  0.00  0.00     0.048 A 
ENDROOT
BRANCH   1   8
ATOM      8  N   UNL d   1      25.522 -14.602  -3.205  0.00  0.00    -0.333 N 
ATOM      9  H   UNL d   1      25.474 -14.971  -4.147  0.00  0.00     0.168 HD
BRANCH   8  10
ATOM     10  C   UNL d   1      25.866 -13.243  -2.992  0.00  0.00     0.179 C 
ATOM     11  S   UNL d   1      25.840 -12.091  -4.233  0.00  0.00    -0.040 SA
BRANCH  10  12
ATOM     12  N   UNL d   1      26.187 -12.918  -1.653  0.00  0.00    -0.299 N 
ATOM     13  C   UNL d   1      27.335 -12.198  -1.252  0.00  0.00     0.257 C 
ATOM     14  O   UNL d   1      28.249 -11.867  -2.019  0.00  0.00    -0.267 OA
ATOM     15  H   UNL d   1      25.522 -13.183  -0.944  0.00  0.00     0.171 HD
BRANCH  13  16
ATOM     16  C   UNL d   1      27.566 -11.773   0.154  0.00  0.00     0.035 A 
ATOM     17  C   UNL d   1      28.073 -10.472   0.371  0.00  0.00     0.017 A 
ATOM     18  C   UNL d   1      28.255  -9.968   1.656  0.00  0.00     0.004 A 
ATOM     19  C   UNL d   1      27.970 -10.781   2.747  0.00  0.00     0.037 A 
ATOM     20  C   UNL d   1      27.451 -12.065   2.550  0.00  0.00     0.069 A 
ATOM     21  C   UNL d   1      27.257 -12.563   1.257  0.00  0.00     0.053 A 
BRANCH  20  22
ATOM     22  O   UNL d   1      27.053 -12.725   3.683  0.00  0.00    -0.351 OA
BRANCH  22  23
ATOM     23  C   UNL d   1      28.092 -13.045   4.605  0.00  0.00     0.175 C 
BRANCH  23  24
ATOM     24  C   UNL d   1      28.328 -14.548   4.572  0.00  0.00     0.022 C 
ATOM     25  C   UNL d   1      29.758 -14.871   4.970  0.00  0.00     0.007 C 
ENDBRANCH  23  24
ENDBRANCH  22  23
ENDBRANCH  20  22
ENDBRANCH  13  16
ENDBRANCH  10  12
ENDBRANCH   8  10
ENDBRANCH   1   8
BRANCH   6  26
ATOM     26  C   UNL d   1      22.917 -17.963  -0.705  0.00  0.00     0.185 A 
ATOM     27  N   UNL d   1      21.967 -18.247  -1.578  0.00  0.00    -0.201 NA
ATOM     28  C   UNL d   1      21.009 -18.849  -0.819  0.00  0.00     0.186 A 
ATOM     29  N   UNL d   1      19.821 -19.324  -1.259  0.00  0.00    -0.239 NA
ATOM     30  C   UNL d   1      21.412 -18.914   0.505  0.00  0.00     0.125 A 
ATOM     31  C   UNL d   1      19.057 -19.871  -0.285  0.00  0.00     0.119 A 
ATOM     32  C   UNL d   1      19.396 -19.960   1.066  0.00  0.00     0.022 A 
ATOM     33  C   UNL d   1      20.626 -19.465   1.506  0.00  0.00     0.043 A 
ATOM     34  O   UNL d   1      22.654 -18.356   0.591  0.00  0.00    -0.287 OA
ENDBRANCH   6  26
BRANCH   5  35
ATOM     35  O   UNL d   1      25.199 -18.559   0.804  0.00  0.00    -0.359 OA
ATOM     36  H   UNL d   1      24.340 -19.003   0.745  0.00  0.00     0.217 HD
ENDBRANCH   5  35
TORSDOF 9
ENDMDL
MODEL 8
REMARK VINA RESULT:   -31.260      1.924      2.249
REMARK INTER + INTRA:         -35.967
REMARK INTER:                 -33.944
REMARK INTRA:                  -2.023
REMARK CONF_INDEPENDENT:        2.685
REMARK UNBOUND:                -2.023
REMARK  9 active torsions:
REMARK  status: ('A' for Active; 'I' for Inactive)
REMARK    1  A    between atoms: C_2  and  C_3 
REMARK    2  A    between atoms: C_3  and  O_4 
REMARK    3  A    between atoms: O_4  and  C_5 
REMARK    4  A    between atoms: C_9  and  C_10 
REMARK       I    between atoms: C_10  and  N_12 
REMARK    5  A    between atoms: N_12  and  C_13 
REMARK    6  A    between atoms: C_13  and  N_15 
REMARK    7  A    between atoms: N_15  and  C_16 
REMARK    8  A    between atoms: C_20  and  O_21 
REMARK    9  A    between atoms: C_22  and  C_23 
ROOT
ATOM      1  C   UNL d   1      25.784 -16.336  -2.613  0.00  0.00     0.035 A 
ATOM      2  C   UNL d   1      26.807 -16.391  -1.655  0.00  0.00     0.039 A 
ATOM      3  C   UNL d   1      26.610 -17.087  -0.433  0.00  0.00    -0.026 A 
ATOM      4  C   UNL d   1      27.776 -17.384   0.470  0.00  0.00     0.051 C 
ATOM      5  C   UNL d   1      25.344 -17.623  -0.132  0.00  0.00     0.086 A 
ATOM      6  C   UNL d   1      24.315 -17.575  -1.072  0.00  0.00     0.053 A 
ATOM      7  C   UNL d   1      24.572 -16.976  -2.311  0.00  0.00     0.048 A 
ENDROOT
BRANCH   1   8
ATOM      8  N   UNL d   1      25.964 -15.710  -3.902  0.00  0.00    -0.333 N 
ATOM      9  H   UNL d   1      26.528 -16.232  -4.562  0.00  0.00     0.168 HD
BRANCH   8  10
ATOM     10  C   UNL d   1      25.624 -14.360  -4.173  0.00  0.00     0.179 C 
ATOM     11  S   UNL d   1      24.117 -13.701  -3.770  0.00  0.00    -0.040 SA
BRANCH  10  12
ATOM     12  N   UNL d   1      26.659 -13.598  -4.765  0.00  0.00    -0.299 N 
ATOM     13  C   UNL d   1      27.540 -14.074  -5.763  0.00  0.00     0.257 C 
ATOM     14  O   UNL d   1      27.579 -15.249  -6.150  0.00  0.00    -0.267 OA
ATOM     15  H   UNL d   1      26.738 -12.633  -4.483  0.00  0.00     0.171 HD
BRANCH  13  16
ATOM     16  C   UNL d   1      28.531 -13.198  -6.443  0.00  0.00     0.035 A 
ATOM     17  C   UNL d   1      28.497 -11.816  -6.144  0.00  0.00     0.017 A 
ATOM     18  C   UNL d   1      29.430 -10.934  -6.682  0.00  0.00     0.004 A 
ATOM     19  C   UNL d   1      30.389 -11.419  -7.565  0.00  0.00     0.037 A 
ATOM     20  C   UNL d   1      30.446 -12.786  -7.857  0.00  0.00     0.069 A 
ATOM     21  C   UNL d   1      29.514 -13.672  -7.303  0.00  0.00     0.053 A 
BRANCH  20  22
ATOM     22  O   UNL d   1      31.520 -13.189  -8.606  0.00  0.00    -0.351 OA
BRANCH  22  23
ATOM     23  C   UNL d   1      32.108 -14.429  -8.220  0.00  0.00     0.175 C 
BRANCH  23  24
ATOM     24  C   UNL d   1      33.197 -14.155  -7.192  0.00  0.00     0.022 C 
ATOM     25  C   UNL d   1      33.922 -15.439  -6.831  0.00  0.00     0.007 C 
ENDBRANCH  23  24
ENDBRANCH  22  23
ENDBRANCH  20  22
ENDBRANCH  13  16
ENDBRANCH  10  12
ENDBRANCH   8  10
ENDBRANCH   1   8
BRANCH   6  26
ATOM     26  C   UNL d   1      23.002 -18.148  -0.802  0.00  0.00     0.185 A 
ATOM     27  N   UNL d   1      22.021 -18.419  -1.644  0.00  0.00    -0.201 NA
ATOM     28  C   UNL d   1      21.037 -18.907  -0.839  0.00  0.00     0.186 A 
ATOM     29  N   UNL d   1      19.813 -19.325  -1.234  0.00  0.00    -0.239 NA
ATOM     30  C   UNL d   1      21.456 -18.919   0.482  0.00  0.00     0.125 A 
ATOM     31  C   UNL d   1      19.029 -19.758  -0.219  0.00  0.00     0.119 A 
ATOM     32  C   UNL d   1      19.384 -19.788   1.130  0.00  0.00     0.022 A 
ATOM     33  C   UNL d   1      20.651 -19.353   1.525  0.00  0.00     0.043 A 
ATOM     34  O   UNL d   1      22.735 -18.443   0.518  0.00  0.00    -0.287 OA
ENDBRANCH   6  26
BRANCH   5  35
ATOM     35  O   UNL d   1      25.101 -18.277   1.047  0.00  0.00    -0.359 OA
ATOM     36  H   UNL d   1      24.170 -18.204   1.302  0.00  0.00     0.217 HD
ENDBRANCH   5  35
TORSDOF 9
ENDMDL
MODEL 9
REMARK VINA RESULT:   -30.976      2.422      3.848
REMARK INTER + INTRA:         -35.686
REMARK INTER:                 -33.660
REMARK INTRA:                  -2.025
REMARK CONF_INDEPENDENT:        2.685
REMARK UNBOUND:                -2.025
REMARK  9 active torsions:
REMARK  status: ('A' for Active; 'I' for Inactive)
REMARK    1  A    between atoms: C_2  and  C_3 
REMARK    2  A    between atoms: C_3  and  O_4 
REMARK    3  A    between atoms: O_4  and  C_5 
REMARK    4  A    between atoms: C_9  and  C_10 
REMARK       I    between atoms: C_10  and  N_12 
REMARK    5  A    between atoms: N_12  and  C_13 
REMARK    6  A    between atoms: C_13  and  N_15 
REMARK    7  A    between atoms: N_15  and  C_16 
REMARK    8  A    between atoms: C_20  and  O_21 
REMARK    9  A    between atoms: C_22  and  C_23 
ROOT
ATOM      1  C   UNL d   1      25.779 -16.321  -2.604  0.00  0.00     0.035 A 
ATOM      2  C   UNL d   1      26.800 -16.375  -1.644  0.00  0.00     0.039 A 
ATOM      3  C   UNL d   1      26.601 -17.071  -0.422  0.00  0.00    -0.026 A 
ATOM      4  C   UNL d   1      27.766 -17.367   0.483  0.00  0.00     0.051 C 
ATOM      5  C   UNL d   1      25.335 -17.609  -0.124  0.00  0.00     0.086 A 
ATOM      6  C   UNL d   1      24.309 -17.564  -1.067  0.00  0.00     0.053 A 
ATOM      7  C   UNL d   1      24.567 -16.963  -2.305  0.00  0.00     0.048 A 
ENDROOT
BRANCH   1   8
ATOM      8  N   UNL d   1      25.961 -15.695  -3.893  0.00  0.00    -0.333 N 
ATOM      9  H   UNL d   1      26.534 -16.212  -4.549  0.00  0.00     0.168 HD
BRANCH   8  10
ATOM     10  C   UNL d   1      25.608 -14.349  -4.167  0.00  0.00     0.179 C 
ATOM     11  S   UNL d   1      24.087 -13.709  -3.789  0.00  0.00    -0.040 SA
BRANCH  10  12
ATOM     12  N   UNL d   1      26.644 -13.573  -4.740  0.00  0.00    -0.299 N 
ATOM     13  C   UNL d   1      27.545 -14.034  -5.726  0.00  0.00     0.257 C 
ATOM     14  O   UNL d   1      27.603 -15.207  -6.119  0.00  0.00    -0.267 OA
ATOM     15  H   UNL d   1      26.709 -12.609  -4.452  0.00  0.00     0.171 HD
BRANCH  13  16
ATOM     16  C   UNL d   1      28.537 -13.144  -6.387  0.00  0.00     0.035 A 
ATOM     17  C   UNL d   1      28.769 -13.334  -7.768  0.00  0.00     0.017 A 
ATOM     18  C   UNL d   1      29.629 -12.503  -8.481  0.00  0.00     0.004 A 
ATOM     19  C   UNL d   1      30.305 -11.492  -7.807  0.00  0.00     0.037 A 
ATOM     20  C   UNL d   1      30.073 -11.280  -6.443  0.00  0.00     0.069 A 
ATOM     21  C   UNL d   1      29.197 -12.109  -5.733  0.00  0.00     0.053 A 
BRANCH  20  22
ATOM     22  O   UNL d   1      30.659 -10.164  -5.908  0.00  0.00    -0.351 OA
BRANCH  22  23
ATOM     23  C   UNL d   1      29.865  -9.443  -4.968  0.00  0.00     0.175 C 
BRANCH  23  24
ATOM     24  C   UNL d   1      29.049  -8.399  -5.718  0.00  0.00     0.022 C 
ATOM     25  C   UNL d   1      28.266  -7.537  -4.744  0.00  0.00     0.007 C 
ENDBRANCH  23  24
ENDBRANCH  22  23
ENDBRANCH  20  22
ENDBRANCH  13  16
ENDBRANCH  10  12
ENDBRANCH   8  10
ENDBRANCH   1   8
BRANCH   6  26
ATOM     26  C   UNL d   1      22.996 -18.138  -0.800  0.00  0.00     0.185 A 
ATOM     27  N   UNL d   1      22.019 -18.415  -1.645  0.00  0.00    -0.201 NA
ATOM     28  C   UNL d   1      21.033 -18.902  -0.841  0.00  0.00     0.186 A 
ATOM     29  N   UNL d   1      19.811 -19.325  -1.240  0.00  0.00    -0.239 NA
ATOM     30  C   UNL d   1      21.447 -18.908   0.481  0.00  0.00     0.125 A 
ATOM     31  C   UNL d   1      19.025 -19.756  -0.226  0.00  0.00     0.119 A 
ATOM     32  C   UNL d   1      19.374 -19.780   1.125  0.00  0.00     0.022 A 
ATOM     33  C   UNL d   1      20.639 -19.340   1.523  0.00  0.00     0.043 A 
ATOM     34  O   UNL d   1      22.724 -18.429   0.521  0.00  0.00    -0.287 OA
ENDBRANCH   6  26
BRANCH   5  35
ATOM     35  O   UNL d   1      25.091 -18.265   1.054  0.00  0.00    -0.359 OA
ATOM     36  H   UNL d   1      24.170 -18.154   1.331  0.00  0.00     0.217 HD
ENDBRANCH   5  35
TORSDOF 9
ENDMDL
