MODEL 1
REMARK VINA RESULT:    -8.808      0.000      0.000
REMARK INTER + INTRA:         -16.432
REMARK INTER:                 -12.686
REMARK INTRA:                  -3.746
REMARK CONF_INDEPENDENT:        3.878
REMARK UNBOUND:                -3.746
REMARK  13 active torsions:
REMARK  status: ('A' for Active; 'I' for Inactive)
REMARK    1  A    between atoms: O_2  and  C_3 
REMARK    2  A    between atoms: C_8  and  O_9 
REMARK    3  A    between atoms: O_9  and  C_10 
REMARK    4  A    between atoms: C_11  and  C_12 
REMARK    5  A    between atoms: N_13  and  C_12 
REMARK    6  A    between atoms: N_13  and  C_23 
REMARK    7  A    between atoms: N_13  and  C_14 
REMARK    8  A    between atoms: C_15  and  C_14 
REMARK    9  A    between atoms: C_15  and  C_17 
REMARK   10  A    between atoms: C_15  and  O_16 
REMARK   11  A    between atoms: C_17  and  O_18 
REMARK   12  A    between atoms: O_18  and  C_19 
REMARK   13  A    between atoms: N_29  and  C_30 
ROOT
ATOM      1  C   UNL d   1      29.850 -16.205  -2.246  0.00  0.00     0.181 C 
ATOM      2  C   UNL d   1      30.443 -15.532  -0.990  0.00  0.00     0.047 C 
ATOM      3  C   UNL d   1      31.763 -16.211  -0.894  0.00  0.00     0.063 C 
ATOM      4  C   UNL d   1      32.901 -16.189   0.114  0.00  0.00     0.073 C 
ATOM      5  N   UNL d   1      31.914 -17.138  -1.849  0.00  0.00    -0.170 NA
ATOM      6  N   UNL d   1      30.872 -17.046  -2.693  0.00  0.00    -0.210 N 
ENDROOT
BRANCH   2   7
ATOM      7  C   UNL d   1      29.760 -14.571   0.290  0.00  0.00     0.280 C 
BRANCH   7   8
ATOM      8  N   UNL d   1      28.654 -15.134   1.346  0.00  0.00    -0.060 N 
ATOM      9  H   UNL d   1      28.959 -16.060   1.699  0.00  0.00     0.280 HD
BRANCH   8  10
ATOM     10  C   UNL d   1      28.641 -14.190   2.452  0.00  0.00     0.188 A 
ATOM     11  C   UNL d   1      28.162 -14.824   3.719  0.00  0.00     0.035 A 
ATOM     12  C   UNL d   1      29.605 -14.411   3.591  0.00  0.00     0.035 A 
ENDBRANCH   8  10
BRANCH   8  13
ATOM     13  C   UNL d   1      27.314 -15.515   0.799  0.00  0.00     0.269 C 
BRANCH  13  14
ATOM     14  C   UNL d   1      27.351 -16.982   0.622  0.00  0.00     0.167 C 
BRANCH  14  15
ATOM     15  C   UNL d   1      26.276 -17.902   0.164  0.00  0.00     0.202 C 
BRANCH  15  16
ATOM     16  O   UNL d   1      24.929 -17.784   0.452  0.00  0.00    -0.379 OA
BRANCH  16  17
ATOM     17  C   UNL d   1      23.996 -17.791  -0.606  0.00  0.00     0.050 C 
ATOM     18  C   UNL d   1      22.942 -16.778  -0.230  0.00  0.00     0.045 C 
ATOM     19  C   UNL d   1      24.661 -17.418  -1.922  0.00  0.00     0.045 C 
ATOM     20  C   UNL d   1      23.523 -19.245  -0.555  0.00  0.00     0.045 C 
ENDBRANCH  16  17
ENDBRANCH  15  16
ENDBRANCH  14  15
BRANCH  14  21
ATOM     21  O   UNL d   1      28.504 -17.321   0.045  0.00  0.00    -0.392 OA
ATOM     22  H   UNL d   1      29.177 -17.785   0.629  0.00  0.00     0.210 HD
ENDBRANCH  14  21
ENDBRANCH  13  14
ENDBRANCH   8  13
ENDBRANCH   7   8
ENDBRANCH   2   7
BRANCH   1  23
ATOM     23  O   UNL d   1      28.539 -16.330  -2.863  0.00  0.00    -0.288 OA
BRANCH  23  24
ATOM     24  C   UNL d   1      27.510 -15.276  -3.268  0.00  0.00     0.111 A 
ATOM     25  C   UNL d   1      26.762 -14.667  -2.162  0.00  0.00     0.040 A 
ATOM     26  C   UNL d   1      25.517 -13.944  -2.348  0.00  0.00     0.003 A 
ATOM     27  C   UNL d   1      24.948 -13.809  -3.606  0.00  0.00     0.003 A 
ATOM     28  C   UNL d   1      25.587 -14.424  -4.665  0.00  0.00     0.039 A 
ATOM     29  C   UNL d   1      26.854 -15.088  -4.537  0.00  0.00     0.102 A 
BRANCH  29  30
ATOM     30  O   UNL d   1      27.203 -15.517  -5.785  0.00  0.00    -0.353 OA
ATOM     31  C   UNL d   1      28.278 -14.823  -6.341  0.00  0.00     0.210 C 
ENDBRANCH  29  30
ENDBRANCH  23  24
ENDBRANCH   1  23
BRANCH   6  32
ATOM     32  C   UNL d   1      30.748 -17.874  -3.832  0.00  0.00     0.061 A 
ATOM     33  C   UNL d   1      30.396 -17.398  -5.110  0.00  0.00     0.031 A 
ATOM     34  C   UNL d   1      30.420 -18.267  -6.197  0.00  0.00     0.002 A 
ATOM     35  C   UNL d   1      30.693 -19.616  -5.987  0.00  0.00     0.000 A 
ATOM     36  C   UNL d   1      31.056 -20.077  -4.723  0.00  0.00     0.002 A 
ATOM     37  C   UNL d   1      31.134 -19.199  -3.661  0.00  0.00     0.031 A 
ENDBRANCH   6  32
TORSDOF 13
ENDMDL
MODEL 2
REMARK VINA RESULT:    -8.640      1.369      2.296
REMARK INTER + INTRA:         -16.010
REMARK INTER:                 -12.518
REMARK INTRA:                  -3.492
REMARK CONF_INDEPENDENT:        3.878
REMARK UNBOUND:                -3.492
REMARK  13 active torsions:
REMARK  status: ('A' for Active; 'I' for Inactive)
REMARK    1  A    between atoms: O_2  and  C_3 
REMARK    2  A    between atoms: C_8  and  O_9 
REMARK    3  A    between atoms: O_9  and  C_10 
REMARK    4  A    between atoms: C_11  and  C_12 
REMARK    5  A    between atoms: N_13  and  C_12 
REMARK    6  A    between atoms: N_13  and  C_23 
REMARK    7  A    between atoms: N_13  and  C_14 
REMARK    8  A    between atoms: C_15  and  C_14 
REMARK    9  A    between atoms: C_15  and  C_17 
REMARK   10  A    between atoms: C_15  and  O_16 
REMARK   11  A    between atoms: C_17  and  O_18 
REMARK   12  A    between atoms: O_18  and  C_19 
REMARK   13  A    between atoms: N_29  and  C_30 
ROOT
ATOM      1  C   UNL d   1      29.272 -16.330  -4.135  0.00  0.00     0.181 C 
ATOM      2  C   UNL d   1      29.333 -16.140  -2.604  0.00  0.00     0.047 C 
ATOM      3  C   UNL d   1      30.343 -17.165  -2.225  0.00  0.00     0.063 C 
ATOM      4  C   UNL d   1      30.892 -17.681  -0.906  0.00  0.00     0.073 C 
ATOM      5  N   UNL d   1      30.760 -17.866  -3.288  0.00  0.00    -0.170 NA
ATOM      6  N   UNL d   1      30.239 -17.304  -4.392  0.00  0.00    -0.210 N 
ENDROOT
BRANCH   2   7
ATOM      7  C   UNL d   1      28.308 -15.329  -1.455  0.00  0.00     0.280 C 
BRANCH   7   8
ATOM      8  N   UNL d   1      28.417 -15.544   0.156  0.00  0.00    -0.060 N 
ATOM      9  H   UNL d   1      29.036 -16.351   0.352  0.00  0.00     0.280 HD
BRANCH   8  10
ATOM     10  C   UNL d   1      29.037 -14.337   0.679  0.00  0.00     0.188 A 
ATOM     11  C   UNL d   1      29.298 -14.438   2.149  0.00  0.00     0.035 A 
ATOM     12  C   UNL d   1      30.456 -14.426   1.185  0.00  0.00     0.035 A 
ENDBRANCH   8  10
BRANCH   8  13
ATOM     13  C   UNL d   1      27.186 -16.005   0.872  0.00  0.00     0.269 C 
BRANCH  13  14
ATOM     14  C   UNL d   1      27.002 -17.421   0.489  0.00  0.00     0.167 C 
BRANCH  14  15
ATOM     15  C   UNL d   1      25.844 -18.073  -0.178  0.00  0.00     0.202 C 
BRANCH  15  16
ATOM     16  O   UNL d   1      24.520 -17.967   0.208  0.00  0.00    -0.379 OA
BRANCH  16  17
ATOM     17  C   UNL d   1      23.540 -17.685  -0.767  0.00  0.00     0.050 C 
ATOM     18  C   UNL d   1      22.586 -18.854  -0.740  0.00  0.00     0.045 C 
ATOM     19  C   UNL d   1      22.814 -16.386  -0.449  0.00  0.00     0.045 C 
ATOM     20  C   UNL d   1      24.408 -17.603  -2.024  0.00  0.00     0.045 C 
ENDBRANCH  16  17
ENDBRANCH  15  16
ENDBRANCH  14  15
BRANCH  14  21
ATOM     21  O   UNL d   1      28.136 -17.879  -0.040  0.00  0.00    -0.392 OA
ATOM     22  H   UNL d   1      28.712 -18.446   0.557  0.00  0.00     0.210 HD
ENDBRANCH  14  21
ENDBRANCH  13  14
ENDBRANCH   8  13
ENDBRANCH   7   8
ENDBRANCH   2   7
BRANCH   1  23
ATOM     23  O   UNL d   1      28.378 -15.946  -5.215  0.00  0.00    -0.288 OA
BRANCH  23  24
ATOM     24  C   UNL d   1      27.432 -14.756  -5.367  0.00  0.00     0.111 A 
ATOM     25  C   UNL d   1      27.994 -13.588  -6.055  0.00  0.00     0.040 A 
ATOM     26  C   UNL d   1      27.410 -12.262  -5.974  0.00  0.00     0.003 A 
ATOM     27  C   UNL d   1      26.280 -12.021  -5.206  0.00  0.00     0.003 A 
ATOM     28  C   UNL d   1      25.758 -13.082  -4.490  0.00  0.00     0.039 A 
ATOM     29  C   UNL d   1      26.262 -14.422  -4.596  0.00  0.00     0.102 A 
BRANCH  29  30
ATOM     30  O   UNL d   1      25.473 -15.204  -3.801  0.00  0.00    -0.353 OA
ATOM     31  C   UNL d   1      24.760 -14.491  -2.837  0.00  0.00     0.210 C 
ENDBRANCH  29  30
ENDBRANCH  23  24
ENDBRANCH   1  23
BRANCH   6  32
ATOM     32  C   UNL d   1      30.513 -17.796  -5.690  0.00  0.00     0.061 A 
ATOM     33  C   UNL d   1      30.968 -16.990  -6.751  0.00  0.00     0.031 A 
ATOM     34  C   UNL d   1      31.330 -17.584  -7.958  0.00  0.00     0.002 A 
ATOM     35  C   UNL d   1      31.139 -18.952  -8.129  0.00  0.00     0.000 A 
ATOM     36  C   UNL d   1      30.702 -19.745  -7.070  0.00  0.00     0.002 A 
ATOM     37  C   UNL d   1      30.440 -19.177  -5.840  0.00  0.00     0.031 A 
ENDBRANCH   6  32
TORSDOF 13
ENDMDL
MODEL 3
REMARK VINA RESULT:    -8.518      3.267      6.914
REMARK INTER + INTRA:         -16.135
REMARK INTER:                 -12.396
REMARK INTRA:                  -3.739
REMARK CONF_INDEPENDENT:        3.878
REMARK UNBOUND:                -3.739
REMARK  13 active torsions:
REMARK  status: ('A' for Active; 'I' for Inactive)
REMARK    1  A    between atoms: O_2  and  C_3 
REMARK    2  A    between atoms: C_8  and  O_9 
REMARK    3  A    between atoms: O_9  and  C_10 
REMARK    4  A    between atoms: C_11  and  C_12 
REMARK    5  A    between atoms: N_13  and  C_12 
REMARK    6  A    between atoms: N_13  and  C_23 
REMARK    7  A    between atoms: N_13  and  C_14 
REMARK    8  A    between atoms: C_15  and  C_14 
REMARK    9  A    between atoms: C_15  and  C_17 
REMARK   10  A    between atoms: C_15  and  O_16 
REMARK   11  A    between atoms: C_17  and  O_18 
REMARK   12  A    between atoms: O_18  and  C_19 
REMARK   13  A    between atoms: N_29  and  C_30 
ROOT
ATOM      1  C   UNL d   1      26.757 -14.377  -0.035  0.00  0.00     0.181 C 
ATOM      2  C   UNL d   1      27.114 -13.592   1.246  0.00  0.00     0.047 C 
ATOM      3  C   UNL d   1      27.360 -12.233   0.693  0.00  0.00     0.063 C 
ATOM      4  C   UNL d   1      27.850 -10.919   1.278  0.00  0.00     0.073 C 
ATOM      5  N   UNL d   1      27.237 -12.211  -0.641  0.00  0.00    -0.170 NA
ATOM      6  N   UNL d   1      26.772 -13.407  -1.040  0.00  0.00    -0.210 N 
ENDROOT
BRANCH   2   7
ATOM      7  C   UNL d   1      27.560 -14.070   2.859  0.00  0.00     0.280 C 
BRANCH   7   8
ATOM      8  N   UNL d   1      29.094 -14.374   3.315  0.00  0.00    -0.060 N 
ATOM      9  H   UNL d   1      29.133 -15.292   3.793  0.00  0.00     0.280 HD
BRANCH   8  10
ATOM     10  C   UNL d   1      29.868 -14.450   2.087  0.00  0.00     0.188 A 
ATOM     11  C   UNL d   1      31.023 -13.500   2.097  0.00  0.00     0.035 A 
ATOM     12  C   UNL d   1      31.277 -14.984   2.163  0.00  0.00     0.035 A 
ENDBRANCH   8  10
BRANCH   8  13
ATOM     13  C   UNL d   1      29.672 -13.514   4.396  0.00  0.00     0.269 C 
BRANCH  13  14
ATOM     14  C   UNL d   1      29.701 -14.357   5.610  0.00  0.00     0.167 C 
BRANCH  14  15
ATOM     15  C   UNL d   1      29.719 -13.948   7.040  0.00  0.00     0.202 C 
BRANCH  15  16
ATOM     16  O   UNL d   1      28.905 -14.450   8.038  0.00  0.00    -0.379 OA
BRANCH  16  17
ATOM     17  C   UNL d   1      29.058 -13.971   9.357  0.00  0.00     0.050 C 
ATOM     18  C   UNL d   1      28.550 -12.551   9.339  0.00  0.00     0.045 C 
ATOM     19  C   UNL d   1      28.265 -14.819  10.339  0.00  0.00     0.045 C 
ATOM     20  C   UNL d   1      30.573 -14.100   9.528  0.00  0.00     0.045 C 
ENDBRANCH  16  17
ENDBRANCH  15  16
ENDBRANCH  14  15
BRANCH  14  21
ATOM     21  O   UNL d   1      28.861 -15.379   5.450  0.00  0.00    -0.392 OA
ATOM     22  H   UNL d   1      28.530 -15.822   6.289  0.00  0.00     0.210 HD
ENDBRANCH  14  21
ENDBRANCH  13  14
ENDBRANCH   8  13
ENDBRANCH   7   8
ENDBRANCH   2   7
BRANCH   1  23
ATOM     23  O   UNL d   1      26.654 -15.773  -0.428  0.00  0.00    -0.288 OA
BRANCH  23  24
ATOM     24  C   UNL d   1      25.439 -16.670  -0.655  0.00  0.00     0.111 A 
ATOM     25  C   UNL d   1      24.196 -15.974  -1.004  0.00  0.00     0.040 A 
ATOM     26  C   UNL d   1      22.885 -16.585  -0.895  0.00  0.00     0.003 A 
ATOM     27  C   UNL d   1      22.734 -17.881  -0.422  0.00  0.00     0.003 A 
ATOM     28  C   UNL d   1      23.875 -18.549  -0.020  0.00  0.00     0.039 A 
ATOM     29  C   UNL d   1      25.195 -18.008  -0.176  0.00  0.00     0.102 A 
BRANCH  29  30
ATOM     30  O   UNL d   1      26.067 -18.960   0.270  0.00  0.00    -0.353 OA
ATOM     31  C   UNL d   1      27.405 -18.564   0.230  0.00  0.00     0.210 C 
ENDBRANCH  29  30
ENDBRANCH  23  24
ENDBRANCH   1  23
BRANCH   6  32
ATOM     32  C   UNL d   1      26.506 -13.698  -2.398  0.00  0.00     0.061 A 
ATOM     33  C   UNL d   1      27.440 -14.294  -3.266  0.00  0.00     0.031 A 
ATOM     34  C   UNL d   1      27.048 -14.657  -4.553  0.00  0.00     0.002 A 
ATOM     35  C   UNL d   1      25.768 -14.333  -4.992  0.00  0.00     0.000 A 
ATOM     36  C   UNL d   1      24.844 -13.757  -4.123  0.00  0.00     0.002 A 
ATOM     37  C   UNL d   1      25.196 -13.489  -2.815  0.00  0.00     0.031 A 
ENDBRANCH   6  32
TORSDOF 13
ENDMDL
MODEL 4
REMARK VINA RESULT:    -7.540      3.285      7.237
REMARK INTER + INTRA:         -15.640
REMARK INTER:                 -11.418
REMARK INTRA:                  -4.222
REMARK CONF_INDEPENDENT:        3.878
REMARK UNBOUND:                -4.222
REMARK  13 active torsions:
REMARK  status: ('A' for Active; 'I' for Inactive)
REMARK    1  A    between atoms: O_2  and  C_3 
REMARK    2  A    between atoms: C_8  and  O_9 
REMARK    3  A    between atoms: O_9  and  C_10 
REMARK    4  A    between atoms: C_11  and  C_12 
REMARK    5  A    between atoms: N_13  and  C_12 
REMARK    6  A    between atoms: N_13  and  C_23 
REMARK    7  A    between atoms: N_13  and  C_14 
REMARK    8  A    between atoms: C_15  and  C_14 
REMARK    9  A    between atoms: C_15  and  C_17 
REMARK   10  A    between atoms: C_15  and  O_16 
REMARK   11  A    between atoms: C_17  and  O_18 
REMARK   12  A    between atoms: O_18  and  C_19 
REMARK   13  A    between atoms: N_29  and  C_30 
ROOT
ATOM      1  C   UNL d   1      27.563 -15.635   0.153  0.00  0.00     0.181 C 
ATOM      2  C   UNL d   1      29.101 -15.741   0.082  0.00  0.00     0.047 C 
ATOM      3  C   UNL d   1      29.271 -17.094  -0.512  0.00  0.00     0.063 C 
ATOM      4  C   UNL d   1      30.467 -17.983  -0.812  0.00  0.00     0.073 C 
ATOM      5  N   UNL d   1      28.093 -17.703  -0.705  0.00  0.00    -0.170 NA
ATOM      6  N   UNL d   1      27.116 -16.819  -0.439  0.00  0.00    -0.210 N 
ENDROOT
BRANCH   2   7
ATOM      7  C   UNL d   1      30.399 -14.841   0.814  0.00  0.00     0.280 C 
BRANCH   7   8
ATOM      8  N   UNL d   1      30.752 -14.903   2.403  0.00  0.00    -0.060 N 
ATOM      9  H   UNL d   1      30.009 -15.429   2.898  0.00  0.00     0.280 HD
BRANCH   8  10
ATOM     10  C   UNL d   1      32.000 -15.643   2.506  0.00  0.00     0.188 A 
ATOM     11  C   UNL d   1      32.761 -15.635   1.218  0.00  0.00     0.035 A 
ATOM     12  C   UNL d   1      33.295 -14.876   2.405  0.00  0.00     0.035 A 
ENDBRANCH   8  10
BRANCH   8  13
ATOM     13  C   UNL d   1      30.692 -13.620   3.170  0.00  0.00     0.269 C 
BRANCH  13  14
ATOM     14  C   UNL d   1      30.561 -14.005   4.591  0.00  0.00     0.167 C 
BRANCH  14  15
ATOM     15  C   UNL d   1      29.974 -13.239   5.724  0.00  0.00     0.202 C 
BRANCH  15  16
ATOM     16  O   UNL d   1      29.270 -13.774   6.787  0.00  0.00    -0.379 OA
BRANCH  16  17
ATOM     17  C   UNL d   1      29.572 -13.344   8.097  0.00  0.00     0.050 C 
ATOM     18  C   UNL d   1      31.078 -13.322   8.184  0.00  0.00     0.045 C 
ATOM     19  C   UNL d   1      28.993 -11.963   8.364  0.00  0.00     0.045 C 
ATOM     20  C   UNL d   1      28.906 -14.451   8.917  0.00  0.00     0.045 C 
ENDBRANCH  16  17
ENDBRANCH  15  16
ENDBRANCH  14  15
BRANCH  14  21
ATOM     21  O   UNL d   1      30.169 -15.276   4.663  0.00  0.00    -0.392 OA
ATOM     22  H   UNL d   1      29.273 -15.492   4.263  0.00  0.00     0.210 HD
ENDBRANCH  14  21
ENDBRANCH  13  14
ENDBRANCH   8  13
ENDBRANCH   7   8
ENDBRANCH   2   7
BRANCH   1  23
ATOM     23  O   UNL d   1      26.589 -14.795   0.830  0.00  0.00    -0.288 OA
BRANCH  23  24
ATOM     24  C   UNL d   1      26.760 -13.547   1.694  0.00  0.00     0.111 A 
ATOM     25  C   UNL d   1      26.655 -12.268   0.983  0.00  0.00     0.040 A 
ATOM     26  C   UNL d   1      27.145 -11.015   1.526  0.00  0.00     0.003 A 
ATOM     27  C   UNL d   1      27.772 -10.965   2.763  0.00  0.00     0.003 A 
ATOM     28  C   UNL d   1      27.950 -12.159   3.436  0.00  0.00     0.039 A 
ATOM     29  C   UNL d   1      27.420 -13.408   2.968  0.00  0.00     0.102 A 
BRANCH  29  30
ATOM     30  O   UNL d   1      27.735 -14.348   3.908  0.00  0.00    -0.353 OA
ATOM     31  C   UNL d   1      27.028 -14.211   5.103  0.00  0.00     0.210 C 
ENDBRANCH  29  30
ENDBRANCH  23  24
ENDBRANCH   1  23
BRANCH   6  32
ATOM     32  C   UNL d   1      25.746 -17.145  -0.575  0.00  0.00     0.061 A 
ATOM     33  C   UNL d   1      25.174 -18.334  -0.085  0.00  0.00     0.031 A 
ATOM     34  C   UNL d   1      23.795 -18.512  -0.155  0.00  0.00     0.002 A 
ATOM     35  C   UNL d   1      23.016 -17.557  -0.801  0.00  0.00     0.000 A 
ATOM     36  C   UNL d   1      23.586 -16.376  -1.270  0.00  0.00     0.002 A 
ATOM     37  C   UNL d   1      24.939 -16.148  -1.111  0.00  0.00     0.031 A 
ENDBRANCH   6  32
TORSDOF 13
ENDMDL
MODEL 5
REMARK VINA RESULT:    -7.330      1.771      4.575
REMARK INTER + INTRA:         -16.546
REMARK INTER:                 -11.208
REMARK INTRA:                  -5.338
REMARK CONF_INDEPENDENT:        3.878
REMARK UNBOUND:                -5.338
REMARK  13 active torsions:
REMARK  status: ('A' for Active; 'I' for Inactive)
REMARK    1  A    between atoms: O_2  and  C_3 
REMARK    2  A    between atoms: C_8  and  O_9 
REMARK    3  A    between atoms: O_9  and  C_10 
REMARK    4  A    between atoms: C_11  and  C_12 
REMARK    5  A    between atoms: N_13  and  C_12 
REMARK    6  A    between atoms: N_13  and  C_23 
REMARK    7  A    between atoms: N_13  and  C_14 
REMARK    8  A    between atoms: C_15  and  C_14 
REMARK    9  A    between atoms: C_15  and  C_17 
REMARK   10  A    between atoms: C_15  and  O_16 
REMARK   11  A    between atoms: C_17  and  O_18 
REMARK   12  A    between atoms: O_18  and  C_19 
REMARK   13  A    between atoms: N_29  and  C_30 
ROOT
ATOM      1  C   UNL d   1      29.056 -15.956  -3.739  0.00  0.00     0.181 C 
ATOM      2  C   UNL d   1      27.702 -15.573  -3.103  0.00  0.00     0.047 C 
ATOM      3  C   UNL d   1      26.930 -15.148  -4.301  0.00  0.00     0.063 C 
ATOM      4  C   UNL d   1      25.554 -14.540  -4.521  0.00  0.00     0.073 C 
ATOM      5  N   UNL d   1      27.673 -15.204  -5.415  0.00  0.00    -0.170 NA
ATOM      6  N   UNL d   1      28.846 -15.783  -5.108  0.00  0.00    -0.210 N 
ENDROOT
BRANCH   2   7
ATOM      7  C   UNL d   1      27.190 -15.263  -1.469  0.00  0.00     0.280 C 
BRANCH   7   8
ATOM      8  N   UNL d   1      28.092 -15.622  -0.161  0.00  0.00    -0.060 N 
ATOM      9  H   UNL d   1      28.772 -16.365  -0.407  0.00  0.00     0.280 HD
BRANCH   8  10
ATOM     10  C   UNL d   1      28.822 -14.408   0.167  0.00  0.00     0.188 A 
ATOM     11  C   UNL d   1      28.382 -13.830   1.475  0.00  0.00     0.035 A 
ATOM     12  C   UNL d   1      29.756 -14.434   1.350  0.00  0.00     0.035 A 
ENDBRANCH   8  10
BRANCH   8  13
ATOM     13  C   UNL d   1      27.404 -16.296   0.985  0.00  0.00     0.269 C 
BRANCH  13  14
ATOM     14  C   UNL d   1      27.128 -17.677   0.534  0.00  0.00     0.167 C 
BRANCH  14  15
ATOM     15  C   UNL d   1      25.879 -18.249  -0.036  0.00  0.00     0.202 C 
BRANCH  15  16
ATOM     16  O   UNL d   1      24.593 -17.819   0.233  0.00  0.00    -0.379 OA
BRANCH  16  17
ATOM     17  C   UNL d   1      23.696 -17.622  -0.838  0.00  0.00     0.050 C 
ATOM     18  C   UNL d   1      22.996 -18.945  -1.035  0.00  0.00     0.045 C 
ATOM     19  C   UNL d   1      22.695 -16.523  -0.515  0.00  0.00     0.045 C 
ATOM     20  C   UNL d   1      24.670 -17.247  -1.956  0.00  0.00     0.045 C 
ENDBRANCH  16  17
ENDBRANCH  15  16
ENDBRANCH  14  15
BRANCH  14  21
ATOM     21  O   UNL d   1      28.178 -18.128  -0.150  0.00  0.00    -0.392 OA
ATOM     22  H   UNL d   1      29.049 -18.184   0.349  0.00  0.00     0.210 HD
ENDBRANCH  14  21
ENDBRANCH  13  14
ENDBRANCH   8  13
ENDBRANCH   7   8
ENDBRANCH   2   7
BRANCH   1  23
ATOM     23  O   UNL d   1      30.412 -16.198  -3.276  0.00  0.00    -0.288 OA
BRANCH  23  24
ATOM     24  C   UNL d   1      31.041 -17.404  -2.580  0.00  0.00     0.111 A 
ATOM     25  C   UNL d   1      31.301 -18.564  -3.439  0.00  0.00     0.040 A 
ATOM     26  C   UNL d   1      31.535 -19.900  -2.923  0.00  0.00     0.003 A 
ATOM     27  C   UNL d   1      31.502 -20.157  -1.559  0.00  0.00     0.003 A 
ATOM     28  C   UNL d   1      31.196 -19.104  -0.719  0.00  0.00     0.039 A 
ATOM     29  C   UNL d   1      31.027 -17.756  -1.182  0.00  0.00     0.102 A 
BRANCH  29  30
ATOM     30  O   UNL d   1      30.797 -16.985  -0.078  0.00  0.00    -0.353 OA
ATOM     31  C   UNL d   1      31.800 -17.068   0.888  0.00  0.00     0.210 C 
ENDBRANCH  29  30
ENDBRANCH  23  24
ENDBRANCH   1  23
BRANCH   6  32
ATOM     32  C   UNL d   1      29.849 -16.015  -6.078  0.00  0.00     0.061 A 
ATOM     33  C   UNL d   1      30.487 -14.990  -6.803  0.00  0.00     0.031 A 
ATOM     34  C   UNL d   1      31.550 -15.305  -7.647  0.00  0.00     0.002 A 
ATOM     35  C   UNL d   1      31.897 -16.639  -7.837  0.00  0.00     0.000 A 
ATOM     36  C   UNL d   1      31.272 -17.646  -7.106  0.00  0.00     0.002 A 
ATOM     37  C   UNL d   1      30.287 -17.330  -6.191  0.00  0.00     0.031 A 
ENDBRANCH   6  32
TORSDOF 13
ENDMDL
MODEL 6
REMARK VINA RESULT:    -6.162      2.581      5.194
REMARK INTER + INTRA:         -15.739
REMARK INTER:                 -10.040
REMARK INTRA:                  -5.699
REMARK CONF_INDEPENDENT:        3.878
REMARK UNBOUND:                -5.699
REMARK  13 active torsions:
REMARK  status: ('A' for Active; 'I' for Inactive)
REMARK    1  A    between atoms: O_2  and  C_3 
REMARK    2  A    between atoms: C_8  and  O_9 
REMARK    3  A    between atoms: O_9  and  C_10 
REMARK    4  A    between atoms: C_11  and  C_12 
REMARK    5  A    between atoms: N_13  and  C_12 
REMARK    6  A    between atoms: N_13  and  C_23 
REMARK    7  A    between atoms: N_13  and  C_14 
REMARK    8  A    between atoms: C_15  and  C_14 
REMARK    9  A    between atoms: C_15  and  C_17 
REMARK   10  A    between atoms: C_15  and  O_16 
REMARK   11  A    between atoms: C_17  and  O_18 
REMARK   12  A    between atoms: O_18  and  C_19 
REMARK   13  A    between atoms: N_29  and  C_30 
ROOT
ATOM      1  C   UNL d   1      27.272 -14.815  -0.293  0.00  0.00     0.181 C 
ATOM      2  C   UNL d   1      28.276 -14.713   0.876  0.00  0.00     0.047 C 
ATOM      3  C   UNL d   1      29.571 -14.854   0.158  0.00  0.00     0.063 C 
ATOM      4  C   UNL d   1      31.024 -14.958   0.592  0.00  0.00     0.073 C 
ATOM      5  N   UNL d   1      29.391 -15.058  -1.155  0.00  0.00    -0.170 NA
ATOM      6  N   UNL d   1      28.083 -14.912  -1.426  0.00  0.00    -0.210 N 
ENDROOT
BRANCH   2   7
ATOM      7  C   UNL d   1      28.118 -14.825   2.605  0.00  0.00     0.280 C 
BRANCH   7   8
ATOM      8  N   UNL d   1      27.296 -13.744   3.505  0.00  0.00    -0.060 N 
ATOM      9  H   UNL d   1      26.291 -13.786   3.257  0.00  0.00     0.280 HD
BRANCH   8  10
ATOM     10  C   UNL d   1      27.458 -14.168   4.886  0.00  0.00     0.188 A 
ATOM     11  C   UNL d   1      28.531 -15.200   5.030  0.00  0.00     0.035 A 
ATOM     12  C   UNL d   1      28.744 -13.819   5.593  0.00  0.00     0.035 A 
ENDBRANCH   8  10
BRANCH   8  13
ATOM     13  C   UNL d   1      27.549 -12.293   3.236  0.00  0.00     0.269 C 
BRANCH  13  14
ATOM     14  C   UNL d   1      26.787 -11.970   2.011  0.00  0.00     0.167 C 
BRANCH  14  15
ATOM     15  C   UNL d   1      27.262 -11.360   0.740  0.00  0.00     0.202 C 
BRANCH  15  16
ATOM     16  O   UNL d   1      27.028 -11.849  -0.532  0.00  0.00    -0.379 OA
BRANCH  16  17
ATOM     17  C   UNL d   1      27.674 -11.244  -1.631  0.00  0.00     0.050 C 
ATOM     18  C   UNL d   1      27.811  -9.784  -1.272  0.00  0.00     0.045 C 
ATOM     19  C   UNL d   1      29.036 -11.873  -1.876  0.00  0.00     0.045 C 
ATOM     20  C   UNL d   1      26.664 -11.530  -2.744  0.00  0.00     0.045 C 
ENDBRANCH  16  17
ENDBRANCH  15  16
ENDBRANCH  14  15
BRANCH  14  21
ATOM     21  O   UNL d   1      25.956 -12.975   1.739  0.00  0.00    -0.392 OA
ATOM     22  H   UNL d   1      25.881 -13.246   0.774  0.00  0.00     0.210 HD
ENDBRANCH  14  21
ENDBRANCH  13  14
ENDBRANCH   8  13
ENDBRANCH   7   8
ENDBRANCH   2   7
BRANCH   1  23
ATOM     23  O   UNL d   1      25.845 -15.048  -0.446  0.00  0.00    -0.288 OA
BRANCH  23  24
ATOM     24  C   UNL d   1      25.043 -16.340  -0.587  0.00  0.00     0.111 A 
ATOM     25  C   UNL d   1      23.660 -16.177  -1.049  0.00  0.00     0.040 A 
ATOM     26  C   UNL d   1      22.645 -17.202  -0.895  0.00  0.00     0.003 A 
ATOM     27  C   UNL d   1      22.931 -18.407  -0.268  0.00  0.00     0.003 A 
ATOM     28  C   UNL d   1      24.205 -18.574   0.240  0.00  0.00     0.039 A 
ATOM     29  C   UNL d   1      25.257 -17.616   0.048  0.00  0.00     0.102 A 
BRANCH  29  30
ATOM     30  O   UNL d   1      26.377 -18.138   0.630  0.00  0.00    -0.353 OA
ATOM     31  C   UNL d   1      27.546 -17.924  -0.102  0.00  0.00     0.210 C 
ENDBRANCH  29  30
ENDBRANCH  23  24
ENDBRANCH   1  23
BRANCH   6  32
ATOM     32  C   UNL d   1      27.565 -15.038  -2.736  0.00  0.00     0.061 A 
ATOM     33  C   UNL d   1      26.231 -14.751  -3.080  0.00  0.00     0.031 A 
ATOM     34  C   UNL d   1      25.844 -14.784  -4.418  0.00  0.00     0.002 A 
ATOM     35  C   UNL d   1      26.757 -15.200  -5.382  0.00  0.00     0.000 A 
ATOM     36  C   UNL d   1      28.080 -15.468  -5.037  0.00  0.00     0.002 A 
ATOM     37  C   UNL d   1      28.495 -15.337  -3.726  0.00  0.00     0.031 A 
ENDBRANCH   6  32
TORSDOF 13
ENDMDL
MODEL 7
REMARK VINA RESULT:    -6.005      1.922      5.452
REMARK INTER + INTRA:         -15.945
REMARK INTER:                  -9.883
REMARK INTRA:                  -6.063
REMARK CONF_INDEPENDENT:        3.878
REMARK UNBOUND:                -6.063
REMARK  13 active torsions:
REMARK  status: ('A' for Active; 'I' for Inactive)
REMARK    1  A    between atoms: O_2  and  C_3 
REMARK    2  A    between atoms: C_8  and  O_9 
REMARK    3  A    between atoms: O_9  and  C_10 
REMARK    4  A    between atoms: C_11  and  C_12 
REMARK    5  A    between atoms: N_13  and  C_12 
REMARK    6  A    between atoms: N_13  and  C_23 
REMARK    7  A    between atoms: N_13  and  C_14 
REMARK    8  A    between atoms: C_15  and  C_14 
REMARK    9  A    between atoms: C_15  and  C_17 
REMARK   10  A    between atoms: C_15  and  O_16 
REMARK   11  A    between atoms: C_17  and  O_18 
REMARK   12  A    between atoms: O_18  and  C_19 
REMARK   13  A    between atoms: N_29  and  C_30 
ROOT
ATOM      1  C   UNL d   1      28.434 -16.158  -2.427  0.00  0.00     0.181 C 
ATOM      2  C   UNL d   1      29.686 -17.036  -2.640  0.00  0.00     0.047 C 
ATOM      3  C   UNL d   1      29.968 -16.793  -4.081  0.00  0.00     0.063 C 
ATOM      4  C   UNL d   1      30.964 -17.356  -5.081  0.00  0.00     0.073 C 
ATOM      5  N   UNL d   1      29.051 -15.990  -4.637  0.00  0.00    -0.170 NA
ATOM      6  N   UNL d   1      28.248 -15.531  -3.661  0.00  0.00    -0.210 N 
ENDROOT
BRANCH   2   7
ATOM      7  C   UNL d   1      30.427 -18.312  -1.717  0.00  0.00     0.280 C 
BRANCH   7   8
ATOM      8  N   UNL d   1      31.167 -18.072  -0.285  0.00  0.00    -0.060 N 
ATOM      9  H   UNL d   1      30.480 -18.198   0.480  0.00  0.00     0.280 HD
BRANCH   8  10
ATOM     10  C   UNL d   1      32.182 -19.108  -0.182  0.00  0.00     0.188 A 
ATOM     11  C   UNL d   1      32.779 -19.168   1.188  0.00  0.00     0.035 A 
ATOM     12  C   UNL d   1      31.902 -20.295   0.707  0.00  0.00     0.035 A 
ENDBRANCH   8  10
BRANCH   8  13
ATOM     13  C   UNL d   1      31.623 -16.681   0.027  0.00  0.00     0.269 C 
BRANCH  13  14
ATOM     14  C   UNL d   1      30.413 -15.943   0.445  0.00  0.00     0.167 C 
BRANCH  14  15
ATOM     15  C   UNL d   1      30.029 -14.532   0.169  0.00  0.00     0.202 C 
BRANCH  15  16
ATOM     16  O   UNL d   1      28.784 -14.096  -0.247  0.00  0.00    -0.379 OA
BRANCH  16  17
ATOM     17  C   UNL d   1      27.879 -13.589   0.709  0.00  0.00     0.050 C 
ATOM     18  C   UNL d   1      26.723 -13.025  -0.081  0.00  0.00     0.045 C 
ATOM     19  C   UNL d   1      27.408 -14.687   1.649  0.00  0.00     0.045 C 
ATOM     20  C   UNL d   1      28.752 -12.536   1.393  0.00  0.00     0.045 C 
ENDBRANCH  16  17
ENDBRANCH  15  16
ENDBRANCH  14  15
BRANCH  14  21
ATOM     21  O   UNL d   1      29.349 -16.731   0.294  0.00  0.00    -0.392 OA
ATOM     22  H   UNL d   1      28.514 -16.296  -0.057  0.00  0.00     0.210 HD
ENDBRANCH  14  21
ENDBRANCH  13  14
ENDBRANCH   8  13
ENDBRANCH   7   8
ENDBRANCH   2   7
BRANCH   1  23
ATOM     23  O   UNL d   1      27.387 -16.032  -1.427  0.00  0.00    -0.288 OA
BRANCH  23  24
ATOM     24  C   UNL d   1      25.989 -16.644  -1.347  0.00  0.00     0.111 A 
ATOM     25  C   UNL d   1      24.882 -15.729  -1.645  0.00  0.00     0.040 A 
ATOM     26  C   UNL d   1      23.506 -15.998  -1.270  0.00  0.00     0.003 A 
ATOM     27  C   UNL d   1      23.164 -17.150  -0.576  0.00  0.00     0.003 A 
ATOM     28  C   UNL d   1      24.187 -18.006  -0.218  0.00  0.00     0.039 A 
ATOM     29  C   UNL d   1      25.549 -17.813  -0.628  0.00  0.00     0.102 A 
BRANCH  29  30
ATOM     30  O   UNL d   1      26.261 -18.875  -0.146  0.00  0.00    -0.353 OA
ATOM     31  C   UNL d   1      27.030 -18.576   0.979  0.00  0.00     0.210 C 
ENDBRANCH  29  30
ENDBRANCH  23  24
ENDBRANCH   1  23
BRANCH   6  32
ATOM     32  C   UNL d   1      27.188 -14.631  -3.917  0.00  0.00     0.061 A 
ATOM     33  C   UNL d   1      25.983 -15.002  -4.545  0.00  0.00     0.031 A 
ATOM     34  C   UNL d   1      24.947 -14.077  -4.643  0.00  0.00     0.002 A 
ATOM     35  C   UNL d   1      25.155 -12.771  -4.210  0.00  0.00     0.000 A 
ATOM     36  C   UNL d   1      26.344 -12.414  -3.577  0.00  0.00     0.002 A 
ATOM     37  C   UNL d   1      27.336 -13.355  -3.384  0.00  0.00     0.031 A 
ENDBRANCH   6  32
TORSDOF 13
ENDMDL
