MODEL 1
REMARK VINA RESULT:    -7.114      0.000      0.000
REMARK INTER + INTRA:          -9.009
REMARK INTER:                  -8.307
REMARK INTRA:                  -0.702
REMARK CONF_INDEPENDENT:        1.193
REMARK UNBOUND:                -0.702
REMARK  4 active torsions:
REMARK  status: ('A' for Active; 'I' for Inactive)
REMARK    1  A    between atoms: C_2  and  N_3 
REMARK    2  A    between atoms: C_2  and  C_11 
REMARK    3  A    between atoms: N_3  and  C_4 
REMARK       I    between atoms: C_11  and  N_13 
REMARK    4  A    between atoms: N_13  and  C_14 
ROOT
ATOM      1  C   UNL d   1      22.905 -19.289  -1.698  0.00  0.00     0.042 C 
ATOM      2  C   UNL d   1      22.353 -18.170  -0.815  0.00  0.00     0.170 C 
ENDROOT
BRANCH   2   3
ATOM      3  N   UNL d   1      21.839 -18.594   0.514  0.00  0.00    -0.377 N 
ATOM      4  H   UNL d   1      22.518 -18.628   1.271  0.00  0.00     0.160 HD
BRANCH   3   5
ATOM      5  C   UNL d   1      20.679 -19.325   0.744  0.00  0.00     0.028 A 
ATOM      6  C   UNL d   1      20.231 -19.717   2.012  0.00  0.00     0.032 A 
ATOM      7  C   UNL d   1      19.106 -20.513   2.215  0.00  0.00     0.044 A 
ATOM      8  C   UNL d   1      18.336 -20.867   1.131  0.00  0.00     0.116 A 
ATOM      9  F   UNL d   1      17.216 -21.575   1.325  0.00  0.00    -0.206 F 
ATOM     10  C   UNL d   1      18.697 -20.457  -0.145  0.00  0.00     0.044 A 
ATOM     11  C   UNL d   1      19.869 -19.700  -0.337  0.00  0.00     0.032 A 
ENDBRANCH   3   5
ENDBRANCH   2   3
BRANCH   2  12
ATOM     12  C   UNL d   1      23.520 -17.155  -0.665  0.00  0.00     0.244 C 
ATOM     13  O   UNL d   1      23.340 -16.047  -0.145  0.00  0.00    -0.271 OA
ATOM     14  N   UNL d   1      24.746 -17.529  -1.184  0.00  0.00    -0.323 N 
ATOM     15  H   UNL d   1      24.745 -18.221  -1.926  0.00  0.00     0.169 HD
BRANCH  14  16
ATOM     16  C   UNL d   1      25.913 -16.730  -0.994  0.00  0.00     0.075 A 
ATOM     17  C   UNL d   1      26.810 -17.086   0.019  0.00  0.00     0.034 A 
ATOM     18  C   UNL d   1      27.940 -16.298   0.265  0.00  0.00     0.022 A 
ATOM     19  C   UNL d   1      28.132 -15.157  -0.495  0.00  0.00     0.118 A 
ATOM     20  N   UNL d   1      27.301 -14.774  -1.480  0.00  0.00    -0.246 NA
ATOM     21  C   UNL d   1      26.222 -15.562  -1.719  0.00  0.00     0.152 A 
ATOM     22 CL   UNL d   1      25.155 -14.799  -2.842  0.00  0.00    -0.060 Cl
ENDBRANCH  14  16
ENDBRANCH   2  12
TORSDOF 4
ENDMDL
MODEL 2
REMARK VINA RESULT:    -6.854      1.286      2.007
REMARK INTER + INTRA:          -9.182
REMARK INTER:                  -8.048
REMARK INTRA:                  -1.134
REMARK CONF_INDEPENDENT:        1.193
REMARK UNBOUND:                -1.134
REMARK  4 active torsions:
REMARK  status: ('A' for Active; 'I' for Inactive)
REMARK    1  A    between atoms: C_2  and  N_3 
REMARK    2  A    between atoms: C_2  and  C_11 
REMARK    3  A    between atoms: N_3  and  C_4 
REMARK       I    between atoms: C_11  and  N_13 
REMARK    4  A    between atoms: N_13  and  C_14 
ROOT
ATOM      1  C   UNL d   1      23.282 -19.700  -0.877  0.00  0.00     0.042 C 
ATOM      2  C   UNL d   1      22.374 -18.469  -0.885  0.00  0.00     0.170 C 
ENDROOT
BRANCH   2   3
ATOM      3  N   UNL d   1      21.406 -18.377   0.239  0.00  0.00    -0.377 N 
ATOM      4  H   UNL d   1      21.688 -17.805   1.032  0.00  0.00     0.160 HD
BRANCH   3   5
ATOM      5  C   UNL d   1      20.385 -19.279   0.512  0.00  0.00     0.028 A 
ATOM      6  C   UNL d   1      19.512 -19.800  -0.452  0.00  0.00     0.032 A 
ATOM      7  C   UNL d   1      18.448 -20.647  -0.145  0.00  0.00     0.044 A 
ATOM      8  C   UNL d   1      18.287 -21.070   1.154  0.00  0.00     0.116 A 
ATOM      9  F   UNL d   1      17.308 -21.936   1.445  0.00  0.00    -0.206 F 
ATOM     10  C   UNL d   1      19.158 -20.634   2.143  0.00  0.00     0.044 A 
ATOM     11  C   UNL d   1      20.193 -19.735   1.825  0.00  0.00     0.032 A 
ENDBRANCH   3   5
ENDBRANCH   2   3
BRANCH   2  12
ATOM     12  C   UNL d   1      23.338 -17.251  -0.895  0.00  0.00     0.244 C 
ATOM     13  O   UNL d   1      23.148 -16.281  -0.151  0.00  0.00    -0.271 OA
ATOM     14  N   UNL d   1      24.379 -17.283  -1.805  0.00  0.00    -0.323 N 
ATOM     15  H   UNL d   1      24.258 -17.862  -2.628  0.00  0.00     0.169 HD
BRANCH  14  16
ATOM     16  C   UNL d   1      25.392 -16.278  -1.816  0.00  0.00     0.075 A 
ATOM     17  C   UNL d   1      25.348 -15.293  -2.809  0.00  0.00     0.034 A 
ATOM     18  C   UNL d   1      26.352 -14.321  -2.878  0.00  0.00     0.022 A 
ATOM     19  C   UNL d   1      27.390 -14.371  -1.964  0.00  0.00     0.118 A 
ATOM     20  N   UNL d   1      27.476 -15.295  -0.991  0.00  0.00    -0.246 NA
ATOM     21  C   UNL d   1      26.482 -16.217  -0.924  0.00  0.00     0.152 A 
ATOM     22 CL   UNL d   1      26.877 -17.447   0.221  0.00  0.00    -0.060 Cl
ENDBRANCH  14  16
ENDBRANCH   2  12
TORSDOF 4
ENDMDL
MODEL 3
REMARK VINA RESULT:    -6.218      2.970      4.708
REMARK INTER + INTRA:          -8.170
REMARK INTER:                  -7.411
REMARK INTRA:                  -0.759
REMARK CONF_INDEPENDENT:        1.193
REMARK UNBOUND:                -0.759
REMARK  4 active torsions:
REMARK  status: ('A' for Active; 'I' for Inactive)
REMARK    1  A    between atoms: C_2  and  N_3 
REMARK    2  A    between atoms: C_2  and  C_11 
REMARK    3  A    between atoms: N_3  and  C_4 
REMARK       I    between atoms: C_11  and  N_13 
REMARK    4  A    between atoms: N_13  and  C_14 
ROOT
ATOM      1  C   UNL d   1      26.287 -14.754   0.052  0.00  0.00     0.042 C 
ATOM      2  C   UNL d   1      26.781 -16.161  -0.287  0.00  0.00     0.170 C 
ENDROOT
BRANCH   2   3
ATOM      3  N   UNL d   1      25.936 -17.277   0.213  0.00  0.00    -0.377 N 
ATOM      4  H   UNL d   1      26.430 -18.083   0.593  0.00  0.00     0.160 HD
BRANCH   3   5
ATOM      5  C   UNL d   1      24.617 -17.526  -0.147  0.00  0.00     0.028 A 
ATOM      6  C   UNL d   1      23.705 -16.537  -0.535  0.00  0.00     0.032 A 
ATOM      7  C   UNL d   1      22.366 -16.798  -0.821  0.00  0.00     0.044 A 
ATOM      8  C   UNL d   1      21.924 -18.101  -0.809  0.00  0.00     0.116 A 
ATOM      9  F   UNL d   1      20.657 -18.367  -1.147  0.00  0.00    -0.206 F 
ATOM     10  C   UNL d   1      22.798 -19.131  -0.489  0.00  0.00     0.044 A 
ATOM     11  C   UNL d   1      24.133 -18.842  -0.149  0.00  0.00     0.032 A 
ENDBRANCH   3   5
ENDBRANCH   2   3
BRANCH   2  12
ATOM     12  C   UNL d   1      26.890 -16.193  -1.836  0.00  0.00     0.244 C 
ATOM     13  O   UNL d   1      26.001 -16.702  -2.529  0.00  0.00    -0.271 OA
ATOM     14  N   UNL d   1      28.045 -15.675  -2.394  0.00  0.00    -0.323 N 
ATOM     15  H   UNL d   1      28.874 -15.655  -1.810  0.00  0.00     0.169 HD
BRANCH  14  16
ATOM     16  C   UNL d   1      28.197 -15.541  -3.807  0.00  0.00     0.075 A 
ATOM     17  C   UNL d   1      29.416 -15.910  -4.387  0.00  0.00     0.034 A 
ATOM     18  C   UNL d   1      29.616 -15.746  -5.762  0.00  0.00     0.022 A 
ATOM     19  C   UNL d   1      28.599 -15.196  -6.521  0.00  0.00     0.118 A 
ATOM     20  N   UNL d   1      27.410 -14.828  -6.012  0.00  0.00    -0.246 NA
ATOM     21  C   UNL d   1      27.225 -15.014  -4.680  0.00  0.00     0.152 A 
ATOM     22 CL   UNL d   1      25.750 -14.276  -4.168  0.00  0.00    -0.060 Cl
ENDBRANCH  14  16
ENDBRANCH   2  12
TORSDOF 4
ENDMDL
MODEL 4
REMARK VINA RESULT:    -6.053      3.713      5.300
REMARK INTER + INTRA:          -8.030
REMARK INTER:                  -7.246
REMARK INTRA:                  -0.785
REMARK CONF_INDEPENDENT:        1.193
REMARK UNBOUND:                -0.785
REMARK  4 active torsions:
REMARK  status: ('A' for Active; 'I' for Inactive)
REMARK    1  A    between atoms: C_2  and  N_3 
REMARK    2  A    between atoms: C_2  and  C_11 
REMARK    3  A    between atoms: N_3  and  C_4 
REMARK       I    between atoms: C_11  and  N_13 
REMARK    4  A    between atoms: N_13  and  C_14 
ROOT
ATOM      1  C   UNL d   1      27.030 -17.521   0.980  0.00  0.00     0.042 C 
ATOM      2  C   UNL d   1      26.997 -16.467  -0.128  0.00  0.00     0.170 C 
ENDROOT
BRANCH   2   3
ATOM      3  N   UNL d   1      25.869 -16.580  -1.089  0.00  0.00    -0.377 N 
ATOM      4  H   UNL d   1      25.861 -15.911  -1.856  0.00  0.00     0.160 HD
BRANCH   3   5
ATOM      5  C   UNL d   1      24.645 -17.191  -0.842  0.00  0.00     0.028 A 
ATOM      6  C   UNL d   1      24.489 -18.545  -0.520  0.00  0.00     0.032 A 
ATOM      7  C   UNL d   1      23.248 -19.154  -0.349  0.00  0.00     0.044 A 
ATOM      8  C   UNL d   1      22.112 -18.381  -0.411  0.00  0.00     0.116 A 
ATOM      9  F   UNL d   1      20.920 -18.946  -0.182  0.00  0.00    -0.206 F 
ATOM     10  C   UNL d   1      22.208 -17.020  -0.669  0.00  0.00     0.044 A 
ATOM     11  C   UNL d   1      23.467 -16.432  -0.895  0.00  0.00     0.032 A 
ENDBRANCH   3   5
ENDBRANCH   2   3
BRANCH   2  12
ATOM     12  C   UNL d   1      26.968 -15.100   0.610  0.00  0.00     0.244 C 
ATOM     13  O   UNL d   1      26.282 -14.161   0.189  0.00  0.00    -0.271 OA
ATOM     14  N   UNL d   1      27.782 -14.971   1.721  0.00  0.00    -0.323 N 
ATOM     15  H   UNL d   1      28.589 -15.581   1.779  0.00  0.00     0.169 HD
BRANCH  14  16
ATOM     16  C   UNL d   1      27.742 -13.806   2.545  0.00  0.00     0.075 A 
ATOM     17  C   UNL d   1      27.669 -12.552   1.927  0.00  0.00     0.034 A 
ATOM     18  C   UNL d   1      27.677 -11.387   2.702  0.00  0.00     0.022 A 
ATOM     19  C   UNL d   1      27.780 -11.504   4.077  0.00  0.00     0.118 A 
ATOM     20  N   UNL d   1      27.851 -12.684   4.717  0.00  0.00    -0.246 NA
ATOM     21  C   UNL d   1      27.820 -13.805   3.952  0.00  0.00     0.152 A 
ATOM     22 CL   UNL d   1      28.155 -15.200   4.912  0.00  0.00    -0.060 Cl
ENDBRANCH  14  16
ENDBRANCH   2  12
TORSDOF 4
ENDMDL
MODEL 5
REMARK VINA RESULT:    -5.941      4.702      6.552
REMARK INTER + INTRA:          -8.081
REMARK INTER:                  -7.135
REMARK INTRA:                  -0.947
REMARK CONF_INDEPENDENT:        1.193
REMARK UNBOUND:                -0.947
REMARK  4 active torsions:
REMARK  status: ('A' for Active; 'I' for Inactive)
REMARK    1  A    between atoms: C_2  and  N_3 
REMARK    2  A    between atoms: C_2  and  C_11 
REMARK    3  A    between atoms: N_3  and  C_4 
REMARK       I    between atoms: C_11  and  N_13 
REMARK    4  A    between atoms: N_13  and  C_14 
ROOT
ATOM      1  C   UNL d   1      25.157 -13.201  -4.493  0.00  0.00     0.042 C 
ATOM      2  C   UNL d   1      25.825 -14.213  -3.560  0.00  0.00     0.170 C 
ENDROOT
BRANCH   2   3
ATOM      3  N   UNL d   1      24.899 -15.071  -2.775  0.00  0.00    -0.377 N 
ATOM      4  H   UNL d   1      23.925 -14.778  -2.748  0.00  0.00     0.160 HD
BRANCH   3   5
ATOM      5  C   UNL d   1      25.264 -15.956  -1.767  0.00  0.00     0.028 A 
ATOM      6  C   UNL d   1      26.533 -15.999  -1.176  0.00  0.00     0.032 A 
ATOM      7  C   UNL d   1      26.901 -16.942  -0.218  0.00  0.00     0.044 A 
ATOM      8  C   UNL d   1      25.954 -17.828   0.243  0.00  0.00     0.116 A 
ATOM      9  F   UNL d   1      26.281 -18.694   1.210  0.00  0.00    -0.206 F 
ATOM     10  C   UNL d   1      24.662 -17.794  -0.264  0.00  0.00     0.044 A 
ATOM     11  C   UNL d   1      24.324 -16.871  -1.271  0.00  0.00     0.032 A 
ENDBRANCH   3   5
ENDBRANCH   2   3
BRANCH   2  12
ATOM     12  C   UNL d   1      26.741 -15.070  -4.476  0.00  0.00     0.244 C 
ATOM     13  O   UNL d   1      26.309 -15.575  -5.519  0.00  0.00    -0.271 OA
ATOM     14  N   UNL d   1      28.037 -15.282  -4.043  0.00  0.00    -0.323 N 
ATOM     15  H   UNL d   1      28.212 -15.209  -3.047  0.00  0.00     0.169 HD
BRANCH  14  16
ATOM     16  C   UNL d   1      28.998 -15.949  -4.862  0.00  0.00     0.075 A 
ATOM     17  C   UNL d   1      29.655 -17.071  -4.344  0.00  0.00     0.034 A 
ATOM     18  C   UNL d   1      30.637 -17.719  -5.101  0.00  0.00     0.022 A 
ATOM     19  C   UNL d   1      30.955 -17.215  -6.349  0.00  0.00     0.118 A 
ATOM     20  N   UNL d   1      30.352 -16.143  -6.891  0.00  0.00    -0.246 NA
ATOM     21  C   UNL d   1      29.386 -15.538  -6.153  0.00  0.00     0.152 A 
ATOM     22 CL   UNL d   1      28.896 -14.059  -6.896  0.00  0.00    -0.060 Cl
ENDBRANCH  14  16
ENDBRANCH   2  12
TORSDOF 4
ENDMDL
MODEL 6
REMARK VINA RESULT:    -5.758      3.592      5.454
REMARK INTER + INTRA:          -8.085
REMARK INTER:                  -6.951
REMARK INTRA:                  -1.134
REMARK CONF_INDEPENDENT:        1.193
REMARK UNBOUND:                -1.134
REMARK  4 active torsions:
REMARK  status: ('A' for Active; 'I' for Inactive)
REMARK    1  A    between atoms: C_2  and  N_3 
REMARK    2  A    between atoms: C_2  and  C_11 
REMARK    3  A    between atoms: N_3  and  C_4 
REMARK       I    between atoms: C_11  and  N_13 
REMARK    4  A    between atoms: N_13  and  C_14 
ROOT
ATOM      1  C   UNL d   1      27.029 -14.344   0.638  0.00  0.00     0.042 C 
ATOM      2  C   UNL d   1      27.753 -15.469  -0.103  0.00  0.00     0.170 C 
ENDROOT
BRANCH   2   3
ATOM      3  N   UNL d   1      27.110 -16.807  -0.029  0.00  0.00    -0.377 N 
ATOM      4  H   UNL d   1      27.729 -17.611  -0.109  0.00  0.00     0.160 HD
BRANCH   3   5
ATOM      5  C   UNL d   1      25.770 -17.083  -0.275  0.00  0.00     0.028 A 
ATOM      6  C   UNL d   1      24.914 -16.251  -1.009  0.00  0.00     0.032 A 
ATOM      7  C   UNL d   1      23.556 -16.510  -1.183  0.00  0.00     0.044 A 
ATOM      8  C   UNL d   1      23.033 -17.682  -0.687  0.00  0.00     0.116 A 
ATOM      9  F   UNL d   1      21.744 -17.970  -0.907  0.00  0.00    -0.206 F 
ATOM     10  C   UNL d   1      23.847 -18.574  -0.001  0.00  0.00     0.044 A 
ATOM     11  C   UNL d   1      25.204 -18.269   0.213  0.00  0.00     0.032 A 
ENDBRANCH   3   5
ENDBRANCH   2   3
BRANCH   2  12
ATOM     12  C   UNL d   1      27.862 -14.983  -1.575  0.00  0.00     0.244 C 
ATOM     13  O   UNL d   1      27.840 -13.777  -1.853  0.00  0.00    -0.271 OA
ATOM     14  N   UNL d   1      27.931 -15.957  -2.553  0.00  0.00    -0.323 N 
ATOM     15  H   UNL d   1      27.547 -16.869  -2.329  0.00  0.00     0.169 HD
BRANCH  14  16
ATOM     16  C   UNL d   1      28.157 -15.626  -3.923  0.00  0.00     0.075 A 
ATOM     17  C   UNL d   1      29.466 -15.672  -4.416  0.00  0.00     0.034 A 
ATOM     18  C   UNL d   1      29.730 -15.307  -5.741  0.00  0.00     0.022 A 
ATOM     19  C   UNL d   1      28.679 -14.882  -6.535  0.00  0.00     0.118 A 
ATOM     20  N   UNL d   1      27.405 -14.823  -6.109  0.00  0.00    -0.246 NA
ATOM     21  C   UNL d   1      27.164 -15.201  -4.828  0.00  0.00     0.152 A 
ATOM     22 CL   UNL d   1      25.534 -14.839  -4.389  0.00  0.00    -0.060 Cl
ENDBRANCH  14  16
ENDBRANCH   2  12
TORSDOF 4
ENDMDL
MODEL 7
REMARK VINA RESULT:    -5.725      4.708      8.343
REMARK INTER + INTRA:          -7.813
REMARK INTER:                  -6.919
REMARK INTRA:                  -0.895
REMARK CONF_INDEPENDENT:        1.193
REMARK UNBOUND:                -0.895
REMARK  4 active torsions:
REMARK  status: ('A' for Active; 'I' for Inactive)
REMARK    1  A    between atoms: C_2  and  N_3 
REMARK    2  A    between atoms: C_2  and  C_11 
REMARK    3  A    between atoms: N_3  and  C_4 
REMARK       I    between atoms: C_11  and  N_13 
REMARK    4  A    between atoms: N_13  and  C_14 
ROOT
ATOM      1  C   UNL d   1      28.467 -12.627   0.795  0.00  0.00     0.042 C 
ATOM      2  C   UNL d   1      28.692 -14.139   0.789  0.00  0.00     0.170 C 
ENDROOT
BRANCH   2   3
ATOM      3  N   UNL d   1      29.329 -14.699   2.009  0.00  0.00    -0.377 N 
ATOM      4  H   UNL d   1      29.803 -15.594   1.902  0.00  0.00     0.160 HD
BRANCH   3   5
ATOM      5  C   UNL d   1      29.010 -14.369   3.321  0.00  0.00     0.028 A 
ATOM      6  C   UNL d   1      27.715 -14.079   3.770  0.00  0.00     0.032 A 
ATOM      7  C   UNL d   1      27.427 -13.678   5.073  0.00  0.00     0.044 A 
ATOM      8  C   UNL d   1      28.443 -13.645   6.000  0.00  0.00     0.116 A 
ATOM      9  F   UNL d   1      28.163 -13.325   7.269  0.00  0.00    -0.206 F 
ATOM     10  C   UNL d   1      29.738 -13.979   5.627  0.00  0.00     0.044 A 
ATOM     11  C   UNL d   1      30.020 -14.328   4.293  0.00  0.00     0.032 A 
ENDBRANCH   3   5
ENDBRANCH   2   3
BRANCH   2  12
ATOM     12  C   UNL d   1      27.287 -14.760   0.557  0.00  0.00     0.244 C 
ATOM     13  O   UNL d   1      26.258 -14.107   0.765  0.00  0.00    -0.271 OA
ATOM     14  N   UNL d   1      27.245 -16.085   0.161  0.00  0.00    -0.323 N 
ATOM     15  H   UNL d   1      28.042 -16.665   0.395  0.00  0.00     0.169 HD
BRANCH  14  16
ATOM     16  C   UNL d   1      26.017 -16.718  -0.199  0.00  0.00     0.075 A 
ATOM     17  C   UNL d   1      25.608 -17.844   0.524  0.00  0.00     0.034 A 
ATOM     18  C   UNL d   1      24.434 -18.518   0.168  0.00  0.00     0.022 A 
ATOM     19  C   UNL d   1      23.709 -18.061  -0.918  0.00  0.00     0.118 A 
ATOM     20  N   UNL d   1      24.059 -16.984  -1.642  0.00  0.00    -0.246 NA
ATOM     21  C   UNL d   1      25.188 -16.329  -1.270  0.00  0.00     0.152 A 
ATOM     22 CL   UNL d   1      25.604 -15.130  -2.441  0.00  0.00    -0.060 Cl
ENDBRANCH  14  16
ENDBRANCH   2  12
TORSDOF 4
ENDMDL
MODEL 8
REMARK VINA RESULT:    -5.624      5.954      9.579
REMARK INTER + INTRA:          -7.810
REMARK INTER:                  -6.817
REMARK INTRA:                  -0.992
REMARK CONF_INDEPENDENT:        1.193
REMARK UNBOUND:                -0.992
REMARK  4 active torsions:
REMARK  status: ('A' for Active; 'I' for Inactive)
REMARK    1  A    between atoms: C_2  and  N_3 
REMARK    2  A    between atoms: C_2  and  C_11 
REMARK    3  A    between atoms: N_3  and  C_4 
REMARK       I    between atoms: C_11  and  N_13 
REMARK    4  A    between atoms: N_13  and  C_14 
ROOT
ATOM      1  C   UNL d   1      27.409 -13.767  -3.881  0.00  0.00     0.042 C 
ATOM      2  C   UNL d   1      26.196 -13.204  -3.139  0.00  0.00     0.170 C 
ENDROOT
BRANCH   2   3
ATOM      3  N   UNL d   1      25.381 -12.217  -3.896  0.00  0.00    -0.377 N 
ATOM      4  H   UNL d   1      24.433 -12.502  -4.135  0.00  0.00     0.160 HD
BRANCH   3   5
ATOM      5  C   UNL d   1      25.874 -11.161  -4.652  0.00  0.00     0.028 A 
ATOM      6  C   UNL d   1      25.924  -9.831  -4.215  0.00  0.00     0.032 A 
ATOM      7  C   UNL d   1      26.355  -8.776  -5.017  0.00  0.00     0.044 A 
ATOM      8  C   UNL d   1      26.840  -9.050  -6.275  0.00  0.00     0.116 A 
ATOM      9  F   UNL d   1      27.317  -8.050  -7.026  0.00  0.00    -0.206 F 
ATOM     10  C   UNL d   1      26.871 -10.357  -6.741  0.00  0.00     0.044 A 
ATOM     11  C   UNL d   1      26.379 -11.404  -5.938  0.00  0.00     0.032 A 
ENDBRANCH   3   5
ENDBRANCH   2   3
BRANCH   2  12
ATOM     12  C   UNL d   1      25.347 -14.444  -2.744  0.00  0.00     0.244 C 
ATOM     13  O   UNL d   1      24.406 -14.825  -3.451  0.00  0.00    -0.271 OA
ATOM     14  N   UNL d   1      25.661 -15.062  -1.548  0.00  0.00    -0.323 N 
ATOM     15  H   UNL d   1      26.130 -14.502  -0.844  0.00  0.00     0.169 HD
BRANCH  14  16
ATOM     16  C   UNL d   1      25.030 -16.279  -1.148  0.00  0.00     0.075 A 
ATOM     17  C   UNL d   1      23.638 -16.376  -1.250  0.00  0.00     0.034 A 
ATOM     18  C   UNL d   1      22.983 -17.536  -0.822  0.00  0.00     0.022 A 
ATOM     19  C   UNL d   1      23.735 -18.563  -0.280  0.00  0.00     0.118 A 
ATOM     20  N   UNL d   1      25.074 -18.518  -0.163  0.00  0.00    -0.246 NA
ATOM     21  C   UNL d   1      25.696 -17.395  -0.603  0.00  0.00     0.152 A 
ATOM     22 CL   UNL d   1      27.365 -17.417  -0.161  0.00  0.00    -0.060 Cl
ENDBRANCH  14  16
ENDBRANCH   2  12
TORSDOF 4
ENDMDL
MODEL 9
REMARK VINA RESULT:    -5.601      3.037      4.707
REMARK INTER + INTRA:          -7.817
REMARK INTER:                  -6.794
REMARK INTRA:                  -1.023
REMARK CONF_INDEPENDENT:        1.193
REMARK UNBOUND:                -1.023
REMARK  4 active torsions:
REMARK  status: ('A' for Active; 'I' for Inactive)
REMARK    1  A    between atoms: C_2  and  N_3 
REMARK    2  A    between atoms: C_2  and  C_11 
REMARK    3  A    between atoms: N_3  and  C_4 
REMARK       I    between atoms: C_11  and  N_13 
REMARK    4  A    between atoms: N_13  and  C_14 
ROOT
ATOM      1  C   UNL d   1      28.442 -17.375  -0.264  0.00  0.00     0.042 C 
ATOM      2  C   UNL d   1      27.085 -17.225  -0.952  0.00  0.00     0.170 C 
ENDROOT
BRANCH   2   3
ATOM      3  N   UNL d   1      25.920 -17.049  -0.045  0.00  0.00    -0.377 N 
ATOM      4  H   UNL d   1      26.130 -16.945   0.946  0.00  0.00     0.160 HD
BRANCH   3   5
ATOM      5  C   UNL d   1      24.608 -17.416  -0.321  0.00  0.00     0.028 A 
ATOM      6  C   UNL d   1      23.598 -16.519  -0.692  0.00  0.00     0.032 A 
ATOM      7  C   UNL d   1      22.272 -16.898  -0.893  0.00  0.00     0.044 A 
ATOM      8  C   UNL d   1      21.941 -18.231  -0.811  0.00  0.00     0.116 A 
ATOM      9  F   UNL d   1      20.683 -18.611  -1.069  0.00  0.00    -0.206 F 
ATOM     10  C   UNL d   1      22.913 -19.174  -0.506  0.00  0.00     0.044 A 
ATOM     11  C   UNL d   1      24.236 -18.766  -0.251  0.00  0.00     0.032 A 
ENDBRANCH   3   5
ENDBRANCH   2   3
BRANCH   2  12
ATOM     12  C   UNL d   1      27.241 -16.007  -1.903  0.00  0.00     0.244 C 
ATOM     13  O   UNL d   1      28.243 -15.880  -2.618  0.00  0.00    -0.271 OA
ATOM     14  N   UNL d   1      26.239 -15.055  -1.872  0.00  0.00    -0.323 N 
ATOM     15  H   UNL d   1      25.686 -14.990  -1.025  0.00  0.00     0.169 HD
BRANCH  14  16
ATOM     16  C   UNL d   1      26.219 -13.961  -2.789  0.00  0.00     0.075 A 
ATOM     17  C   UNL d   1      26.216 -12.658  -2.278  0.00  0.00     0.034 A 
ATOM     18  C   UNL d   1      26.148 -11.564  -3.147  0.00  0.00     0.022 A 
ATOM     19  C   UNL d   1      26.063 -11.801  -4.508  0.00  0.00     0.118 A 
ATOM     20  N   UNL d   1      26.064 -13.032  -5.048  0.00  0.00    -0.246 NA
ATOM     21  C   UNL d   1      26.153 -14.082  -4.192  0.00  0.00     0.152 A 
ATOM     22 CL   UNL d   1      25.905 -15.569  -5.034  0.00  0.00    -0.060 Cl
ENDBRANCH  14  16
ENDBRANCH   2  12
TORSDOF 4
ENDMDL
