MODEL 1
REMARK VINA RESULT:   -32.748      0.000      0.000
REMARK INTER + INTRA:         -35.258
REMARK INTER:                 -34.538
REMARK INTRA:                  -0.720
REMARK CONF_INDEPENDENT:        1.790
REMARK UNBOUND:                -0.720
REMARK  6 active torsions:
REMARK  status: ('A' for Active; 'I' for Inactive)
REMARK    1  A    between atoms: N_1  and  S_2 
REMARK    2  A    between atoms: S_2  and  C_5 
REMARK    3  A    between atoms: C_5  and  C_6 
REMARK    4  A    between atoms: C_10  and  N_11 
REMARK       I    between atoms: N_11  and  C_12 
REMARK    5  A    between atoms: C_12  and  C_14 
REMARK    6  A    between atoms: C_16  and  N_17 
ROOT
ATOM      1  N   UNL d   1      26.479 -15.868  -2.494  0.00  0.00    -0.323 N 
ATOM      2  C   UNL d   1      25.912 -15.062  -3.450  0.00  0.00     0.259 C 
ATOM      3  O   UNL d   1      24.714 -14.763  -3.467  0.00  0.00    -0.267 OA
ATOM      4  H   UNL d   1      27.486 -15.927  -2.461  0.00  0.00     0.169 HD
ENDROOT
BRANCH   1   5
ATOM      5  C   UNL d   1      25.756 -16.585  -1.495  0.00  0.00     0.035 C 
ATOM      6  C   UNL d   1      26.510 -17.305  -0.567  0.00  0.00     0.029 C 
ATOM      7  C   UNL d   1      25.884 -18.095   0.393  0.00  0.00     0.003 C 
ATOM      8  C   UNL d   1      24.498 -18.196   0.422  0.00  0.00     0.008 C 
ATOM      9  C   UNL d   1      23.700 -17.393  -0.398  0.00  0.00    -0.041 C 
ATOM     10  C   UNL d   1      24.351 -16.625  -1.385  0.00  0.00     0.037 C 
BRANCH   9  11
ATOM     11  C   UNL d   1      22.188 -17.311  -0.276  0.00  0.00     0.195 C 
BRANCH  11  12
ATOM     12  S   UNL d   1      21.435 -18.911  -0.696  0.00  0.00     0.211 S 
ATOM     13  O   UNL d   1      21.517 -19.816   0.429  0.00  0.00    -0.211 OA
ATOM     14  O   UNL d   1      21.842 -19.319  -2.024  0.00  0.00    -0.211 OA
BRANCH  12  15
ATOM     15  N   UNL d   1      19.805 -18.575  -0.895  0.00  0.00    -0.229 NA
ATOM     16  H   UNL d   1      19.358 -19.466  -1.140  0.00  0.00     0.136 HD
ATOM     17  H   UNL d   1      19.659 -17.915  -1.659  0.00  0.00     0.136 HD
ENDBRANCH  12  15
ENDBRANCH  11  12
ENDBRANCH   9  11
ENDBRANCH   1   5
BRANCH   2  18
ATOM     18  C   UNL d   1      26.774 -14.328  -4.441  0.00  0.00     0.070 C 
ATOM     19  C   UNL d   1      26.112 -13.008  -4.638  0.00  0.00     0.056 C 
ATOM     20  C   UNL d   1      26.461 -12.093  -5.638  0.00  0.00     0.106 C 
ATOM     21  C   UNL d   1      27.567 -12.344  -6.384  0.00  0.00     0.075 C 
ATOM     22  C   UNL d   1      28.228 -13.539  -6.224  0.00  0.00     0.105 C 
ATOM     23  C   UNL d   1      27.904 -14.653  -5.273  0.00  0.00     0.118 C 
ATOM     24  O   UNL d   1      29.246 -13.552  -7.221  0.00  0.00    -0.346 OA
ATOM     25  O   UNL d   1      28.790 -15.996  -5.374  0.00  0.00    -0.345 OA
ATOM     26  C   UNL d   1      30.040 -16.066  -6.575  0.00  0.00     0.202 C 
ATOM     27  C   UNL d   1      29.623 -14.763  -6.897  0.00  0.00     0.202 C 
BRANCH  20  28
ATOM     28  N   UNL d   1      25.674 -10.914  -6.037  0.00  0.00    -0.116 N 
ATOM     29  O   UNL d   1      25.907  -9.834  -5.487  0.00  0.00    -0.532 OA
ATOM     30  O   UNL d   1      24.791 -11.089  -6.895  0.00  0.00    -0.532 OA
ENDBRANCH  20  28
ENDBRANCH   2  18
TORSDOF 6
ENDMDL
MODEL 2
REMARK VINA RESULT:   -32.514      0.926      1.220
REMARK INTER + INTRA:         -34.997
REMARK INTER:                 -34.304
REMARK INTRA:                  -0.693
REMARK CONF_INDEPENDENT:        1.790
REMARK UNBOUND:                -0.693
REMARK  6 active torsions:
REMARK  status: ('A' for Active; 'I' for Inactive)
REMARK    1  A    between atoms: N_1  and  S_2 
REMARK    2  A    between atoms: S_2  and  C_5 
REMARK    3  A    between atoms: C_5  and  C_6 
REMARK    4  A    between atoms: C_10  and  N_11 
REMARK       I    between atoms: N_11  and  C_12 
REMARK    5  A    between atoms: C_12  and  C_14 
REMARK    6  A    between atoms: C_16  and  N_17 
ROOT
ATOM      1  N   UNL d   1      26.253 -15.591  -2.416  0.00  0.00    -0.323 N 
ATOM      2  C   UNL d   1      25.600 -14.679  -3.210  0.00  0.00     0.259 C 
ATOM      3  O   UNL d   1      24.388 -14.458  -3.140  0.00  0.00    -0.267 OA
ATOM      4  H   UNL d   1      27.262 -15.590  -2.426  0.00  0.00     0.169 HD
ENDROOT
BRANCH   1   5
ATOM      5  C   UNL d   1      25.616 -16.502  -1.523  0.00  0.00     0.035 C 
ATOM      6  C   UNL d   1      26.440 -17.404  -0.849  0.00  0.00     0.029 C 
ATOM      7  C   UNL d   1      25.893 -18.378  -0.020  0.00  0.00     0.003 C 
ATOM      8  C   UNL d   1      24.515 -18.482   0.127  0.00  0.00     0.008 C 
ATOM      9  C   UNL d   1      23.658 -17.521  -0.420  0.00  0.00    -0.041 C 
ATOM     10  C   UNL d   1      24.227 -16.562  -1.284  0.00  0.00     0.037 C 
BRANCH   9  11
ATOM     11  C   UNL d   1      22.168 -17.465  -0.133  0.00  0.00     0.195 C 
BRANCH  11  12
ATOM     12  S   UNL d   1      21.361 -18.995  -0.690  0.00  0.00     0.211 S 
ATOM     13  O   UNL d   1      21.374 -19.984   0.366  0.00  0.00    -0.211 OA
ATOM     14  O   UNL d   1      21.786 -19.321  -2.035  0.00  0.00    -0.211 OA
BRANCH  12  15
ATOM     15  N   UNL d   1      19.752 -18.575  -0.902  0.00  0.00    -0.229 NA
ATOM     16  H   UNL d   1      19.323 -19.347  -1.426  0.00  0.00     0.136 HD
ATOM     17  H   UNL d   1      19.668 -17.719  -1.452  0.00  0.00     0.136 HD
ENDBRANCH  12  15
ENDBRANCH  11  12
ENDBRANCH   9  11
ENDBRANCH   1   5
BRANCH   2  18
ATOM     18  C   UNL d   1      26.377 -13.743  -4.096  0.00  0.00     0.070 C 
ATOM     19  C   UNL d   1      25.873 -12.381  -3.768  0.00  0.00     0.056 C 
ATOM     20  C   UNL d   1      26.170 -11.230  -4.508  0.00  0.00     0.106 C 
ATOM     21  C   UNL d   1      27.094 -11.323  -5.499  0.00  0.00     0.075 C 
ATOM     22  C   UNL d   1      27.607 -12.555  -5.826  0.00  0.00     0.105 C 
ATOM     23  C   UNL d   1      27.300 -13.881  -5.193  0.00  0.00     0.118 C 
ATOM     24  O   UNL d   1      28.435 -12.338  -6.965  0.00  0.00    -0.346 OA
ATOM     25  O   UNL d   1      27.970 -15.190  -5.853  0.00  0.00    -0.345 OA
ATOM     26  C   UNL d   1      28.983 -14.981  -7.245  0.00  0.00     0.202 C 
ATOM     27  C   UNL d   1      28.696 -13.614  -7.087  0.00  0.00     0.202 C 
BRANCH  20  28
ATOM     28  N   UNL d   1      25.491  -9.930  -4.385  0.00  0.00    -0.116 N 
ATOM     29  O   UNL d   1      24.902  -9.475  -5.369  0.00  0.00    -0.532 OA
ATOM     30  O   UNL d   1      25.579  -9.348  -3.289  0.00  0.00    -0.532 OA
ENDBRANCH  20  28
ENDBRANCH   2  18
TORSDOF 6
ENDMDL
MODEL 3
REMARK VINA RESULT:   -32.451      1.510      3.303
REMARK INTER + INTRA:         -34.976
REMARK INTER:                 -34.241
REMARK INTRA:                  -0.735
REMARK CONF_INDEPENDENT:        1.790
REMARK UNBOUND:                -0.735
REMARK  6 active torsions:
REMARK  status: ('A' for Active; 'I' for Inactive)
REMARK    1  A    between atoms: N_1  and  S_2 
REMARK    2  A    between atoms: S_2  and  C_5 
REMARK    3  A    between atoms: C_5  and  C_6 
REMARK    4  A    between atoms: C_10  and  N_11 
REMARK       I    between atoms: N_11  and  C_12 
REMARK    5  A    between atoms: C_12  and  C_14 
REMARK    6  A    between atoms: C_16  and  N_17 
ROOT
ATOM      1  N   UNL d   1      26.225 -15.860  -2.674  0.00  0.00    -0.323 N 
ATOM      2  C   UNL d   1      25.587 -14.960  -3.494  0.00  0.00     0.259 C 
ATOM      3  O   UNL d   1      24.423 -14.589  -3.322  0.00  0.00    -0.267 OA
ATOM      4  H   UNL d   1      27.220 -15.982  -2.789  0.00  0.00     0.169 HD
ENDROOT
BRANCH   1   5
ATOM      5  C   UNL d   1      25.601 -16.593  -1.622  0.00  0.00     0.035 C 
ATOM      6  C   UNL d   1      26.443 -17.289  -0.754  0.00  0.00     0.029 C 
ATOM      7  C   UNL d   1      25.914 -18.093   0.252  0.00  0.00     0.003 C 
ATOM      8  C   UNL d   1      24.538 -18.233   0.386  0.00  0.00     0.008 C 
ATOM      9  C   UNL d   1      23.657 -17.455  -0.371  0.00  0.00    -0.041 C 
ATOM     10  C   UNL d   1      24.210 -16.672  -1.406  0.00  0.00     0.037 C 
BRANCH   9  11
ATOM     11  C   UNL d   1      22.157 -17.415  -0.135  0.00  0.00     0.195 C 
BRANCH  11  12
ATOM     12  S   UNL d   1      21.392 -18.968  -0.688  0.00  0.00     0.211 S 
ATOM     13  O   UNL d   1      21.389 -19.937   0.387  0.00  0.00    -0.211 OA
ATOM     14  O   UNL d   1      21.862 -19.311  -2.013  0.00  0.00    -0.211 OA
BRANCH  12  15
ATOM     15  N   UNL d   1      19.783 -18.578  -0.954  0.00  0.00    -0.229 NA
ATOM     16  H   UNL d   1      19.360 -19.402  -1.397  0.00  0.00     0.136 HD
ATOM     17  H   UNL d   1      19.701 -17.786  -1.593  0.00  0.00     0.136 HD
ENDBRANCH  12  15
ENDBRANCH  11  12
ENDBRANCH   9  11
ENDBRANCH   1   5
BRANCH   2  18
ATOM     18  C   UNL d   1      26.352 -14.219  -4.556  0.00  0.00     0.070 C 
ATOM     19  C   UNL d   1      27.374 -15.182  -5.052  0.00  0.00     0.056 C 
ATOM     20  C   UNL d   1      28.438 -14.839  -5.894  0.00  0.00     0.106 C 
ATOM     21  C   UNL d   1      28.465 -13.587  -6.421  0.00  0.00     0.075 C 
ATOM     22  C   UNL d   1      27.529 -12.667  -6.013  0.00  0.00     0.105 C 
ATOM     23  C   UNL d   1      26.404 -12.862  -5.040  0.00  0.00     0.118 C 
ATOM     24  O   UNL d   1      27.899 -11.440  -6.637  0.00  0.00    -0.346 OA
ATOM     25  O   UNL d   1      25.518 -11.571  -4.661  0.00  0.00    -0.345 OA
ATOM     26  C   UNL d   1      25.928 -10.051  -5.391  0.00  0.00     0.202 C 
ATOM     27  C   UNL d   1      26.942 -10.782  -6.034  0.00  0.00     0.202 C 
BRANCH  20  28
ATOM     28  N   UNL d   1      29.608 -15.683  -6.189  0.00  0.00    -0.116 N 
ATOM     29  O   UNL d   1      29.596 -16.860  -5.817  0.00  0.00    -0.532 OA
ATOM     30  O   UNL d   1      30.561 -15.142  -6.778  0.00  0.00    -0.532 OA
ENDBRANCH  20  28
ENDBRANCH   2  18
TORSDOF 6
ENDMDL
MODEL 4
REMARK VINA RESULT:   -31.368      1.760      3.476
REMARK INTER + INTRA:         -33.940
REMARK INTER:                 -33.158
REMARK INTRA:                  -0.782
REMARK CONF_INDEPENDENT:        1.790
REMARK UNBOUND:                -0.782
REMARK  6 active torsions:
REMARK  status: ('A' for Active; 'I' for Inactive)
REMARK    1  A    between atoms: N_1  and  S_2 
REMARK    2  A    between atoms: S_2  and  C_5 
REMARK    3  A    between atoms: C_5  and  C_6 
REMARK    4  A    between atoms: C_10  and  N_11 
REMARK       I    between atoms: N_11  and  C_12 
REMARK    5  A    between atoms: C_12  and  C_14 
REMARK    6  A    between atoms: C_16  and  N_17 
ROOT
ATOM      1  N   UNL d   1      26.110 -16.069  -2.826  0.00  0.00    -0.323 N 
ATOM      2  C   UNL d   1      25.574 -14.962  -3.438  0.00  0.00     0.259 C 
ATOM      3  O   UNL d   1      24.521 -14.427  -3.078  0.00  0.00    -0.267 OA
ATOM      4  H   UNL d   1      27.049 -16.341  -3.079  0.00  0.00     0.169 HD
ENDROOT
BRANCH   1   5
ATOM      5  C   UNL d   1      25.466 -16.834  -1.809  0.00  0.00     0.035 C 
ATOM      6  C   UNL d   1      25.963 -16.700  -0.512  0.00  0.00     0.029 C 
ATOM      7  C   UNL d   1      25.444 -17.467   0.527  0.00  0.00     0.003 C 
ATOM      8  C   UNL d   1      24.442 -18.398   0.278  0.00  0.00     0.008 C 
ATOM      9  C   UNL d   1      23.824 -18.474  -0.973  0.00  0.00    -0.041 C 
ATOM     10  C   UNL d   1      24.384 -17.713  -2.020  0.00  0.00     0.037 C 
BRANCH   9  11
ATOM     11  C   UNL d   1      22.597 -19.325  -1.254  0.00  0.00     0.195 C 
BRANCH  11  12
ATOM     12  S   UNL d   1      21.120 -18.560  -0.521  0.00  0.00     0.211 S 
ATOM     13  O   UNL d   1      21.031 -17.169  -0.906  0.00  0.00    -0.211 OA
ATOM     14  O   UNL d   1      20.978 -18.972   0.859  0.00  0.00    -0.211 OA
BRANCH  12  15
ATOM     15  N   UNL d   1      19.830 -19.325  -1.270  0.00  0.00    -0.229 NA
ATOM     16  H   UNL d   1      20.089 -19.419  -2.259  0.00  0.00     0.136 HD
ATOM     17  H   UNL d   1      18.983 -18.759  -1.206  0.00  0.00     0.136 HD
ENDBRANCH  12  15
ENDBRANCH  11  12
ENDBRANCH   9  11
ENDBRANCH   1   5
BRANCH   2  18
ATOM     18  C   UNL d   1      26.355 -14.212  -4.482  0.00  0.00     0.070 C 
ATOM     19  C   UNL d   1      27.381 -15.173  -4.973  0.00  0.00     0.056 C 
ATOM     20  C   UNL d   1      28.458 -14.824  -5.797  0.00  0.00     0.106 C 
ATOM     21  C   UNL d   1      28.495 -13.568  -6.310  0.00  0.00     0.075 C 
ATOM     22  C   UNL d   1      27.557 -12.649  -5.907  0.00  0.00     0.105 C 
ATOM     23  C   UNL d   1      26.418 -12.851  -4.951  0.00  0.00     0.118 C 
ATOM     24  O   UNL d   1      27.939 -11.417  -6.513  0.00  0.00    -0.346 OA
ATOM     25  O   UNL d   1      25.530 -11.561  -4.572  0.00  0.00    -0.345 OA
ATOM     26  C   UNL d   1      25.955 -10.035  -5.280  0.00  0.00     0.202 C 
ATOM     27  C   UNL d   1      26.975 -10.762  -5.916  0.00  0.00     0.202 C 
BRANCH  20  28
ATOM     28  N   UNL d   1      29.629 -15.669  -6.084  0.00  0.00    -0.116 N 
ATOM     29  O   UNL d   1      29.906 -15.915  -7.262  0.00  0.00    -0.532 OA
ATOM     30  O   UNL d   1      30.259 -16.113  -5.108  0.00  0.00    -0.532 OA
ENDBRANCH  20  28
ENDBRANCH   2  18
TORSDOF 6
ENDMDL
MODEL 5
REMARK VINA RESULT:   -30.461      2.412      3.539
REMARK INTER + INTRA:         -33.005
REMARK INTER:                 -32.251
REMARK INTRA:                  -0.754
REMARK CONF_INDEPENDENT:        1.790
REMARK UNBOUND:                -0.754
REMARK  6 active torsions:
REMARK  status: ('A' for Active; 'I' for Inactive)
REMARK    1  A    between atoms: N_1  and  S_2 
REMARK    2  A    between atoms: S_2  and  C_5 
REMARK    3  A    between atoms: C_5  and  C_6 
REMARK    4  A    between atoms: C_10  and  N_11 
REMARK       I    between atoms: N_11  and  C_12 
REMARK    5  A    between atoms: C_12  and  C_14 
REMARK    6  A    between atoms: C_16  and  N_17 
ROOT
ATOM      1  N   UNL d   1      26.361 -14.767  -1.934  0.00  0.00    -0.323 N 
ATOM      2  C   UNL d   1      26.192 -14.305  -3.217  0.00  0.00     0.259 C 
ATOM      3  O   UNL d   1      25.315 -14.719  -3.981  0.00  0.00    -0.267 OA
ATOM      4  H   UNL d   1      26.991 -14.262  -1.329  0.00  0.00     0.169 HD
ENDROOT
BRANCH   1   5
ATOM      5  C   UNL d   1      25.665 -15.874  -1.366  0.00  0.00     0.035 C 
ATOM      6  C   UNL d   1      26.442 -16.940  -0.911  0.00  0.00     0.029 C 
ATOM      7  C   UNL d   1      25.841 -18.093  -0.414  0.00  0.00     0.003 C 
ATOM      8  C   UNL d   1      24.456 -18.206  -0.390  0.00  0.00     0.008 C 
ATOM      9  C   UNL d   1      23.638 -17.118  -0.710  0.00  0.00    -0.041 C 
ATOM     10  C   UNL d   1      24.264 -15.972  -1.242  0.00  0.00     0.037 C 
BRANCH   9  11
ATOM     11  C   UNL d   1      22.131 -17.114  -0.515  0.00  0.00     0.195 C 
BRANCH  11  12
ATOM     12  S   UNL d   1      21.466 -18.792  -0.724  0.00  0.00     0.211 S 
ATOM     13  O   UNL d   1      21.639 -19.557   0.492  0.00  0.00    -0.211 OA
ATOM     14  O   UNL d   1      21.854 -19.325  -2.012  0.00  0.00    -0.211 OA
BRANCH  12  15
ATOM     15  N   UNL d   1      19.812 -18.576  -0.895  0.00  0.00    -0.229 NA
ATOM     16  H   UNL d   1      19.494 -19.308  -1.541  0.00  0.00     0.136 HD
ATOM     17  H   UNL d   1      19.604 -17.664  -1.305  0.00  0.00     0.136 HD
ENDBRANCH  12  15
ENDBRANCH  11  12
ENDBRANCH   9  11
ENDBRANCH   1   5
BRANCH   2  18
ATOM     18  C   UNL d   1      26.959 -13.107  -3.705  0.00  0.00     0.070 C 
ATOM     19  C   UNL d   1      28.157 -13.021  -2.825  0.00  0.00     0.056 C 
ATOM     20  C   UNL d   1      29.034 -11.929  -2.790  0.00  0.00     0.106 C 
ATOM     21  C   UNL d   1      28.879 -10.950  -3.718  0.00  0.00     0.075 C 
ATOM     22  C   UNL d   1      27.802 -10.995  -4.570  0.00  0.00     0.105 C 
ATOM     23  C   UNL d   1      26.730 -12.041  -4.648  0.00  0.00     0.118 C 
ATOM     24  O   UNL d   1      27.853  -9.784  -5.319  0.00  0.00    -0.346 OA
ATOM     25  O   UNL d   1      25.517 -11.785  -5.677  0.00  0.00    -0.345 OA
ATOM     26  C   UNL d   1      25.528 -10.323  -6.611  0.00  0.00     0.202 C 
ATOM     27  C   UNL d   1      26.733 -10.057  -5.939  0.00  0.00     0.202 C 
BRANCH  20  28
ATOM     28  N   UNL d   1      30.059 -11.683  -1.763  0.00  0.00    -0.116 N 
ATOM     29  O   UNL d   1      31.037 -12.435  -1.712  0.00  0.00    -0.532 OA
ATOM     30  O   UNL d   1      29.860 -10.737  -0.981  0.00  0.00    -0.532 OA
ENDBRANCH  20  28
ENDBRANCH   2  18
TORSDOF 6
ENDMDL
MODEL 6
REMARK VINA RESULT:   -30.200      1.813      2.061
REMARK INTER + INTRA:         -32.528
REMARK INTER:                 -31.989
REMARK INTRA:                  -0.538
REMARK CONF_INDEPENDENT:        1.790
REMARK UNBOUND:                -0.538
REMARK  6 active torsions:
REMARK  status: ('A' for Active; 'I' for Inactive)
REMARK    1  A    between atoms: N_1  and  S_2 
REMARK    2  A    between atoms: S_2  and  C_5 
REMARK    3  A    between atoms: C_5  and  C_6 
REMARK    4  A    between atoms: C_10  and  N_11 
REMARK       I    between atoms: N_11  and  C_12 
REMARK    5  A    between atoms: C_12  and  C_14 
REMARK    6  A    between atoms: C_16  and  N_17 
ROOT
ATOM      1  N   UNL d   1      25.982 -15.289  -1.978  0.00  0.00    -0.323 N 
ATOM      2  C   UNL d   1      27.297 -15.171  -2.358  0.00  0.00     0.259 C 
ATOM      3  O   UNL d   1      28.147 -16.041  -2.151  0.00  0.00    -0.267 OA
ATOM      4  H   UNL d   1      25.325 -14.608  -2.329  0.00  0.00     0.169 HD
ENDROOT
BRANCH   1   5
ATOM      5  C   UNL d   1      25.455 -16.342  -1.173  0.00  0.00     0.035 C 
ATOM      6  C   UNL d   1      26.374 -17.246  -0.638  0.00  0.00     0.029 C 
ATOM      7  C   UNL d   1      25.940 -18.347   0.094  0.00  0.00     0.003 C 
ATOM      8  C   UNL d   1      24.581 -18.574   0.279  0.00  0.00     0.008 C 
ATOM      9  C   UNL d   1      23.632 -17.629  -0.122  0.00  0.00    -0.041 C 
ATOM     10  C   UNL d   1      24.087 -16.538  -0.890  0.00  0.00     0.037 C 
BRANCH   9  11
ATOM     11  C   UNL d   1      22.155 -17.723   0.225  0.00  0.00     0.195 C 
BRANCH  11  12
ATOM     12  S   UNL d   1      21.388 -19.113  -0.659  0.00  0.00     0.211 S 
ATOM     13  O   UNL d   1      21.217 -20.241   0.230  0.00  0.00    -0.211 OA
ATOM     14  O   UNL d   1      21.991 -19.266  -1.966  0.00  0.00    -0.211 OA
BRANCH  12  15
ATOM     15  N   UNL d   1      19.841 -18.581  -1.025  0.00  0.00    -0.229 NA
ATOM     16  H   UNL d   1      19.538 -19.126  -1.841  0.00  0.00     0.136 HD
ATOM     17  H   UNL d   1      19.845 -17.592  -1.276  0.00  0.00     0.136 HD
ENDBRANCH  12  15
ENDBRANCH  11  12
ENDBRANCH   9  11
ENDBRANCH   1   5
BRANCH   2  18
ATOM     18  C   UNL d   1      27.739 -14.032  -3.236  0.00  0.00     0.070 C 
ATOM     19  C   UNL d   1      27.423 -12.796  -2.468  0.00  0.00     0.056 C 
ATOM     20  C   UNL d   1      27.474 -11.502  -3.000  0.00  0.00     0.106 C 
ATOM     21  C   UNL d   1      27.987 -11.339  -4.246  0.00  0.00     0.075 C 
ATOM     22  C   UNL d   1      28.317 -12.447  -4.988  0.00  0.00     0.105 C 
ATOM     23  C   UNL d   1      28.214 -13.890  -4.589  0.00  0.00     0.118 C 
ATOM     24  O   UNL d   1      28.698 -11.954  -6.270  0.00  0.00    -0.346 OA
ATOM     25  O   UNL d   1      28.571 -14.996  -5.705  0.00  0.00    -0.345 OA
ATOM     26  C   UNL d   1      29.036 -14.448  -7.284  0.00  0.00     0.202 C 
ATOM     27  C   UNL d   1      28.862 -13.161  -6.746  0.00  0.00     0.202 C 
BRANCH  20  28
ATOM     28  N   UNL d   1      26.920 -10.292  -2.371  0.00  0.00    -0.116 N 
ATOM     29  O   UNL d   1      27.132 -10.099  -1.171  0.00  0.00    -0.532 OA
ATOM     30  O   UNL d   1      26.238  -9.542  -3.092  0.00  0.00    -0.532 OA
ENDBRANCH  20  28
ENDBRANCH   2  18
TORSDOF 6
ENDMDL
MODEL 7
REMARK VINA RESULT:   -30.177      2.456      3.230
REMARK INTER + INTRA:         -32.724
REMARK INTER:                 -31.967
REMARK INTRA:                  -0.757
REMARK CONF_INDEPENDENT:        1.790
REMARK UNBOUND:                -0.757
REMARK  6 active torsions:
REMARK  status: ('A' for Active; 'I' for Inactive)
REMARK    1  A    between atoms: N_1  and  S_2 
REMARK    2  A    between atoms: S_2  and  C_5 
REMARK    3  A    between atoms: C_5  and  C_6 
REMARK    4  A    between atoms: C_10  and  N_11 
REMARK       I    between atoms: N_11  and  C_12 
REMARK    5  A    between atoms: C_12  and  C_14 
REMARK    6  A    between atoms: C_16  and  N_17 
ROOT
ATOM      1  N   UNL d   1      26.127 -14.558  -1.724  0.00  0.00    -0.323 N 
ATOM      2  C   UNL d   1      25.890 -13.952  -2.934  0.00  0.00     0.259 C 
ATOM      3  O   UNL d   1      24.966 -14.273  -3.687  0.00  0.00    -0.267 OA
ATOM      4  H   UNL d   1      26.797 -14.129  -1.103  0.00  0.00     0.169 HD
ENDROOT
BRANCH   1   5
ATOM      5  C   UNL d   1      25.451 -15.718  -1.244  0.00  0.00     0.035 C 
ATOM      6  C   UNL d   1      26.248 -16.795  -0.853  0.00  0.00     0.029 C 
ATOM      7  C   UNL d   1      25.668 -17.993  -0.447  0.00  0.00     0.003 C 
ATOM      8  C   UNL d   1      24.286 -18.141  -0.451  0.00  0.00     0.008 C 
ATOM      9  C   UNL d   1      23.446 -17.053  -0.706  0.00  0.00    -0.041 C 
ATOM     10  C   UNL d   1      24.051 -15.857  -1.148  0.00  0.00     0.037 C 
BRANCH   9  11
ATOM     11  C   UNL d   1      21.938 -17.098  -0.534  0.00  0.00     0.195 C 
BRANCH  11  12
ATOM     12  S   UNL d   1      21.332 -18.800  -0.731  0.00  0.00     0.211 S 
ATOM     13  O   UNL d   1      21.540 -19.552   0.487  0.00  0.00    -0.211 OA
ATOM     14  O   UNL d   1      21.733 -19.324  -2.020  0.00  0.00    -0.211 OA
BRANCH  12  15
ATOM     15  N   UNL d   1      19.671 -18.644  -0.895  0.00  0.00    -0.229 NA
ATOM     16  H   UNL d   1      19.423 -19.134  -1.762  0.00  0.00     0.136 HD
ATOM     17  H   UNL d   1      19.404 -17.663  -0.985  0.00  0.00     0.136 HD
ENDBRANCH  12  15
ENDBRANCH  11  12
ENDBRANCH   9  11
ENDBRANCH   1   5
BRANCH   2  18
ATOM     18  C   UNL d   1      26.644 -12.711  -3.328  0.00  0.00     0.070 C 
ATOM     19  C   UNL d   1      26.946 -12.011  -2.049  0.00  0.00     0.056 C 
ATOM     20  C   UNL d   1      27.448 -10.706  -1.964  0.00  0.00     0.106 C 
ATOM     21  C   UNL d   1      27.830 -10.088  -3.110  0.00  0.00     0.075 C 
ATOM     22  C   UNL d   1      27.595 -10.703  -4.317  0.00  0.00     0.105 C 
ATOM     23  C   UNL d   1      26.969 -12.044  -4.563  0.00  0.00     0.118 C 
ATOM     24  O   UNL d   1      27.985  -9.760  -5.312  0.00  0.00    -0.346 OA
ATOM     25  O   UNL d   1      26.715 -12.473  -6.095  0.00  0.00    -0.345 OA
ATOM     26  C   UNL d   1      27.167 -11.360  -7.346  0.00  0.00     0.202 C 
ATOM     27  C   UNL d   1      27.591 -10.542  -6.284  0.00  0.00     0.202 C 
BRANCH  20  28
ATOM     28  N   UNL d   1      27.507  -9.886  -0.743  0.00  0.00    -0.116 N 
ATOM     29  O   UNL d   1      27.553  -8.658  -0.857  0.00  0.00    -0.532 OA
ATOM     30  O   UNL d   1      27.536 -10.492   0.344  0.00  0.00    -0.532 OA
ENDBRANCH  20  28
ENDBRANCH   2  18
TORSDOF 6
ENDMDL
MODEL 8
REMARK VINA RESULT:   -30.136      2.383      3.303
REMARK INTER + INTRA:         -32.622
REMARK INTER:                 -31.925
REMARK INTRA:                  -0.697
REMARK CONF_INDEPENDENT:        1.790
REMARK UNBOUND:                -0.697
REMARK  6 active torsions:
REMARK  status: ('A' for Active; 'I' for Inactive)
REMARK    1  A    between atoms: N_1  and  S_2 
REMARK    2  A    between atoms: S_2  and  C_5 
REMARK    3  A    between atoms: C_5  and  C_6 
REMARK    4  A    between atoms: C_10  and  N_11 
REMARK       I    between atoms: N_11  and  C_12 
REMARK    5  A    between atoms: C_12  and  C_14 
REMARK    6  A    between atoms: C_16  and  N_17 
ROOT
ATOM      1  N   UNL d   1      26.707 -15.266  -1.660  0.00  0.00    -0.323 N 
ATOM      2  C   UNL d   1      26.325 -14.403  -2.659  0.00  0.00     0.259 C 
ATOM      3  O   UNL d   1      25.151 -14.231  -3.000  0.00  0.00    -0.267 OA
ATOM      4  H   UNL d   1      27.661 -15.223  -1.337  0.00  0.00     0.169 HD
ENDROOT
BRANCH   1   5
ATOM      5  C   UNL d   1      25.838 -16.182  -0.995  0.00  0.00     0.035 C 
ATOM      6  C   UNL d   1      26.437 -17.118  -0.151  0.00  0.00     0.029 C 
ATOM      7  C   UNL d   1      25.673 -18.097   0.476  0.00  0.00     0.003 C 
ATOM      8  C   UNL d   1      24.304 -18.171   0.247  0.00  0.00     0.008 C 
ATOM      9  C   UNL d   1      23.641 -17.179  -0.482  0.00  0.00    -0.041 C 
ATOM     10  C   UNL d   1      24.436 -16.215  -1.136  0.00  0.00     0.037 C 
BRANCH   9  11
ATOM     11  C   UNL d   1      22.129 -17.093  -0.601  0.00  0.00     0.195 C 
BRANCH  11  12
ATOM     12  S   UNL d   1      21.383 -18.729  -0.335  0.00  0.00     0.211 S 
ATOM     13  O   UNL d   1      21.273 -19.007   1.080  0.00  0.00    -0.211 OA
ATOM     14  O   UNL d   1      21.956 -19.692  -1.251  0.00  0.00    -0.211 OA
BRANCH  12  15
ATOM     15  N   UNL d   1      19.811 -18.576  -0.895  0.00  0.00    -0.229 NA
ATOM     16  H   UNL d   1      19.716 -19.248  -1.665  0.00  0.00     0.136 HD
ATOM     17  H   UNL d   1      19.642 -17.637  -1.257  0.00  0.00     0.136 HD
ENDBRANCH  12  15
ENDBRANCH  11  12
ENDBRANCH   9  11
ENDBRANCH   1   5
BRANCH   2  18
ATOM     18  C   UNL d   1      27.321 -13.457  -3.272  0.00  0.00     0.070 C 
ATOM     19  C   UNL d   1      27.585 -13.992  -4.636  0.00  0.00     0.056 C 
ATOM     20  C   UNL d   1      28.611 -13.541  -5.476  0.00  0.00     0.106 C 
ATOM     21  C   UNL d   1      29.318 -12.446  -5.096  0.00  0.00     0.075 C 
ATOM     22  C   UNL d   1      29.096 -11.899  -3.856  0.00  0.00     0.105 C 
ATOM     23  C   UNL d   1      28.111 -12.342  -2.814  0.00  0.00     0.118 C 
ATOM     24  O   UNL d   1      30.066 -10.865  -3.711  0.00  0.00    -0.346 OA
ATOM     25  O   UNL d   1      28.138 -11.579  -1.395  0.00  0.00    -0.345 OA
ATOM     26  C   UNL d   1      29.303 -10.314  -1.165  0.00  0.00     0.202 C 
ATOM     27  C   UNL d   1      29.686 -10.605  -2.486  0.00  0.00     0.202 C 
BRANCH  20  28
ATOM     28  N   UNL d   1      29.075 -14.211  -6.702  0.00  0.00    -0.116 N 
ATOM     29  O   UNL d   1      28.803 -15.404  -6.863  0.00  0.00    -0.532 OA
ATOM     30  O   UNL d   1      29.747 -13.531  -7.497  0.00  0.00    -0.532 OA
ENDBRANCH  20  28
ENDBRANCH   2  18
TORSDOF 6
ENDMDL
