MODEL 1
REMARK VINA RESULT:    -9.028      0.000      0.000
REMARK INTER + INTRA:         -14.371
REMARK INTER:                 -12.607
REMARK INTRA:                  -1.764
REMARK CONF_INDEPENDENT:        3.580
REMARK UNBOUND:                -1.764
REMARK  12 active torsions:
REMARK  status: ('A' for Active; 'I' for Inactive)
REMARK    1  A    between atoms: C_2  and  O_3 
REMARK    2  A    between atoms: O_3  and  C_4 
REMARK    3  A    between atoms: C_8  and  C_7 
REMARK    4  A    between atoms: C_8  and  C_10 
REMARK    5  A    between atoms: C_8  and  O_9 
REMARK    6  A    between atoms: C_10  and  C_11 
REMARK    7  A    between atoms: C_11  and  C_12 
REMARK       I    between atoms: C_12  and  N_14 
REMARK    8  A    between atoms: N_14  and  N_15 
REMARK    9  A    between atoms: C_16  and  C_17 
REMARK   10  A    between atoms: C_19  and  O_20 
REMARK   11  A    between atoms: O_20  and  C_21 
REMARK   12  A    between atoms: C_23  and  O_24 
ROOT
ATOM      1  C   UNL d   1      26.515 -14.639  -1.752  0.00  0.00     0.237 C 
ATOM      2  O   UNL d   1      26.562 -13.443  -1.464  0.00  0.00    -0.272 OA
ATOM      3  N   UNL d   1      25.621 -15.203  -2.646  0.00  0.00    -0.247 N 
ATOM      4  H   UNL d   1      25.532 -16.212  -2.657  0.00  0.00     0.192 HD
ENDROOT
BRANCH   1   5
ATOM      5  C   UNL d   1      27.447 -15.664  -1.122  0.00  0.00     0.107 C 
BRANCH   5   6
ATOM      6  C   UNL d   1      26.758 -16.328   0.070  0.00  0.00     0.046 C 
BRANCH   6   7
ATOM      7  C   UNL d   1      26.198 -17.711  -0.252  0.00  0.00     0.151 C 
BRANCH   7   8
ATOM      8  O   UNL d   1      26.573 -18.611   0.793  0.00  0.00    -0.391 OA
ATOM      9  H   UNL d   1      27.487 -18.894   0.623  0.00  0.00     0.210 HD
ENDBRANCH   7   8
BRANCH   7  10
ATOM     10  C   UNL d   1      24.693 -17.737  -0.385  0.00  0.00    -0.029 A 
ATOM     11  C   UNL d   1      23.995 -18.949  -0.502  0.00  0.00     0.012 A 
ATOM     12  C   UNL d   1      22.620 -18.957  -0.733  0.00  0.00     0.037 A 
ATOM     13  C   UNL d   1      21.909 -17.761  -0.783  0.00  0.00     0.068 A 
ATOM     14  C   UNL d   1      22.582 -16.552  -0.605  0.00  0.00     0.037 A 
ATOM     15  C   UNL d   1      23.967 -16.539  -0.416  0.00  0.00     0.012 A 
BRANCH  13  16
ATOM     16  O   UNL d   1      20.552 -17.882  -0.905  0.00  0.00    -0.352 OA
BRANCH  16  17
ATOM     17  C   UNL d   1      20.053 -19.219  -0.892  0.00  0.00     0.171 C 
ATOM     18  C   UNL d   1      19.534 -19.510   0.505  0.00  0.00     0.034 C 
ENDBRANCH  16  17
ENDBRANCH  13  16
ENDBRANCH   7  10
ENDBRANCH   6   7
ENDBRANCH   5   6
ENDBRANCH   1   5
BRANCH   3  19
ATOM     19  N   UNL d   1      24.619 -14.443  -3.182  0.00  0.00    -0.184 NA
ATOM     20  C   UNL d   1      24.854 -13.716  -4.236  0.00  0.00     0.151 C 
BRANCH  20  21
ATOM     21  C   UNL d   1      26.104 -13.610  -5.021  0.00  0.00     0.003 A 
ATOM     22  C   UNL d   1      26.815 -14.796  -5.315  0.00  0.00     0.054 A 
ATOM     23  C   UNL d   1      28.027 -14.751  -6.040  0.00  0.00     0.102 A 
ATOM     24  C   UNL d   1      28.428 -13.515  -6.564  0.00  0.00     0.100 A 
ATOM     25  C   UNL d   1      27.736 -12.352  -6.251  0.00  0.00     0.059 A 
ATOM     26  C   UNL d   1      26.616 -12.379  -5.438  0.00  0.00     0.025 A 
ATOM     27 BR   UNL d   1      25.938 -10.673  -4.952  0.00  0.00    -0.050 Br
BRANCH  23  28
ATOM     28  O   UNL d   1      28.702 -15.950  -6.106  0.00  0.00    -0.349 OA
BRANCH  28  29
ATOM     29  C   UNL d   1      30.064 -15.937  -5.682  0.00  0.00     0.171 C 
ATOM     30  C   UNL d   1      30.344 -16.898  -4.550  0.00  0.00     0.034 C 
ENDBRANCH  28  29
ENDBRANCH  23  28
BRANCH  24  31
ATOM     31  O   UNL d   1      29.494 -13.241  -7.372  0.00  0.00    -0.358 OA
ATOM     32  H   UNL d   1      29.649 -13.937  -8.018  0.00  0.00     0.217 HD
ENDBRANCH  24  31
ENDBRANCH  20  21
ENDBRANCH   3  19
TORSDOF 12
ENDMDL
MODEL 2
REMARK VINA RESULT:    -8.197      2.287      3.255
REMARK INTER + INTRA:         -13.984
REMARK INTER:                 -11.777
REMARK INTRA:                  -2.207
REMARK CONF_INDEPENDENT:        3.580
REMARK UNBOUND:                -2.207
REMARK  12 active torsions:
REMARK  status: ('A' for Active; 'I' for Inactive)
REMARK    1  A    between atoms: C_2  and  O_3 
REMARK    2  A    between atoms: O_3  and  C_4 
REMARK    3  A    between atoms: C_8  and  C_7 
REMARK    4  A    between atoms: C_8  and  C_10 
REMARK    5  A    between atoms: C_8  and  O_9 
REMARK    6  A    between atoms: C_10  and  C_11 
REMARK    7  A    between atoms: C_11  and  C_12 
REMARK       I    between atoms: C_12  and  N_14 
REMARK    8  A    between atoms: N_14  and  N_15 
REMARK    9  A    between atoms: C_16  and  C_17 
REMARK   10  A    between atoms: C_19  and  O_20 
REMARK   11  A    between atoms: O_20  and  C_21 
REMARK   12  A    between atoms: C_23  and  O_24 
ROOT
ATOM      1  C   UNL d   1      28.726 -17.228  -0.632  0.00  0.00     0.237 C 
ATOM      2  O   UNL d   1      29.237 -17.586  -1.694  0.00  0.00    -0.272 OA
ATOM      3  N   UNL d   1      28.950 -16.008  -0.018  0.00  0.00    -0.247 N 
ATOM      4  H   UNL d   1      28.646 -15.896   0.942  0.00  0.00     0.192 HD
ENDROOT
BRANCH   1   5
ATOM      5  C   UNL d   1      27.782 -18.123   0.158  0.00  0.00     0.107 C 
BRANCH   5   6
ATOM      6  C   UNL d   1      26.564 -17.319   0.613  0.00  0.00     0.046 C 
BRANCH   6   7
ATOM      7  C   UNL d   1      25.752 -16.747  -0.546  0.00  0.00     0.151 C 
BRANCH   7   8
ATOM      8  O   UNL d   1      26.382 -17.118  -1.773  0.00  0.00    -0.391 OA
ATOM      9  H   UNL d   1      27.053 -17.791  -1.567  0.00  0.00     0.210 HD
ENDBRANCH   7   8
BRANCH   7  10
ATOM     10  C   UNL d   1      24.321 -17.235  -0.579  0.00  0.00    -0.029 A 
ATOM     11  C   UNL d   1      24.014 -18.595  -0.419  0.00  0.00     0.012 A 
ATOM     12  C   UNL d   1      22.703 -19.048  -0.560  0.00  0.00     0.037 A 
ATOM     13  C   UNL d   1      21.669 -18.146  -0.795  0.00  0.00     0.068 A 
ATOM     14  C   UNL d   1      21.954 -16.784  -0.894  0.00  0.00     0.037 A 
ATOM     15  C   UNL d   1      23.273 -16.332  -0.795  0.00  0.00     0.012 A 
BRANCH  13  16
ATOM     16  O   UNL d   1      20.410 -18.678  -0.808  0.00  0.00    -0.352 OA
BRANCH  16  17
ATOM     17  C   UNL d   1      20.250 -19.895  -0.080  0.00  0.00     0.171 C 
ATOM     18  C   UNL d   1      18.785 -20.289  -0.146  0.00  0.00     0.034 C 
ENDBRANCH  16  17
ENDBRANCH  13  16
ENDBRANCH   7  10
ENDBRANCH   6   7
ENDBRANCH   5   6
ENDBRANCH   1   5
BRANCH   3  19
ATOM     19  N   UNL d   1      29.890 -15.151  -0.521  0.00  0.00    -0.184 NA
ATOM     20  C   UNL d   1      29.622 -14.454  -1.588  0.00  0.00     0.151 C 
BRANCH  20  21
ATOM     21  C   UNL d   1      28.364 -14.407  -2.364  0.00  0.00     0.003 A 
ATOM     22  C   UNL d   1      28.373 -14.897  -3.690  0.00  0.00     0.054 A 
ATOM     23  C   UNL d   1      27.205 -14.853  -4.485  0.00  0.00     0.102 A 
ATOM     24  C   UNL d   1      26.017 -14.430  -3.875  0.00  0.00     0.100 A 
ATOM     25  C   UNL d   1      26.022 -13.927  -2.580  0.00  0.00     0.059 A 
ATOM     26  C   UNL d   1      27.191 -13.856  -1.842  0.00  0.00     0.025 A 
ATOM     27 BR   UNL d   1      27.034 -12.946  -0.182  0.00  0.00    -0.050 Br
BRANCH  23  28
ATOM     28  O   UNL d   1      27.396 -15.200  -5.805  0.00  0.00    -0.349 OA
BRANCH  28  29
ATOM     29  C   UNL d   1      28.530 -14.629  -6.454  0.00  0.00     0.171 C 
ATOM     30  C   UNL d   1      28.309 -13.199  -6.889  0.00  0.00     0.034 C 
ENDBRANCH  28  29
ENDBRANCH  23  28
BRANCH  24  31
ATOM     31  O   UNL d   1      24.758 -14.397  -4.402  0.00  0.00    -0.358 OA
ATOM     32  H   UNL d   1      24.765 -14.253  -5.353  0.00  0.00     0.217 HD
ENDBRANCH  24  31
ENDBRANCH  20  21
ENDBRANCH   3  19
TORSDOF 12
ENDMDL
MODEL 3
REMARK VINA RESULT:    -7.742      2.176      3.654
REMARK INTER + INTRA:         -13.043
REMARK INTER:                 -11.322
REMARK INTRA:                  -1.721
REMARK CONF_INDEPENDENT:        3.580
REMARK UNBOUND:                -1.721
REMARK  12 active torsions:
REMARK  status: ('A' for Active; 'I' for Inactive)
REMARK    1  A    between atoms: C_2  and  O_3 
REMARK    2  A    between atoms: O_3  and  C_4 
REMARK    3  A    between atoms: C_8  and  C_7 
REMARK    4  A    between atoms: C_8  and  C_10 
REMARK    5  A    between atoms: C_8  and  O_9 
REMARK    6  A    between atoms: C_10  and  C_11 
REMARK    7  A    between atoms: C_11  and  C_12 
REMARK       I    between atoms: C_12  and  N_14 
REMARK    8  A    between atoms: N_14  and  N_15 
REMARK    9  A    between atoms: C_16  and  C_17 
REMARK   10  A    between atoms: C_19  and  O_20 
REMARK   11  A    between atoms: O_20  and  C_21 
REMARK   12  A    between atoms: C_23  and  O_24 
ROOT
ATOM      1  C   UNL d   1      26.745 -15.372  -2.327  0.00  0.00     0.237 C 
ATOM      2  O   UNL d   1      27.270 -15.947  -3.282  0.00  0.00    -0.272 OA
ATOM      3  N   UNL d   1      25.487 -14.795  -2.346  0.00  0.00    -0.247 N 
ATOM      4  H   UNL d   1      25.236 -14.177  -1.584  0.00  0.00     0.192 HD
ENDROOT
BRANCH   1   5
ATOM      5  C   UNL d   1      27.451 -15.207  -0.990  0.00  0.00     0.107 C 
BRANCH   5   6
ATOM      6  C   UNL d   1      26.631 -15.871   0.116  0.00  0.00     0.046 C 
BRANCH   6   7
ATOM      7  C   UNL d   1      26.271 -17.323  -0.190  0.00  0.00     0.151 C 
BRANCH   7   8
ATOM      8  O   UNL d   1      26.684 -18.138   0.908  0.00  0.00    -0.391 OA
ATOM      9  H   UNL d   1      27.500 -18.595   0.643  0.00  0.00     0.210 HD
ENDBRANCH   7   8
BRANCH   7  10
ATOM     10  C   UNL d   1      24.793 -17.544  -0.416  0.00  0.00    -0.029 A 
ATOM     11  C   UNL d   1      23.902 -16.463  -0.505  0.00  0.00     0.012 A 
ATOM     12  C   UNL d   1      22.529 -16.681  -0.605  0.00  0.00     0.037 A 
ATOM     13  C   UNL d   1      22.027 -17.978  -0.686  0.00  0.00     0.068 A 
ATOM     14  C   UNL d   1      22.909 -19.059  -0.662  0.00  0.00     0.037 A 
ATOM     15  C   UNL d   1      24.282 -18.844  -0.519  0.00  0.00     0.012 A 
BRANCH  13  16
ATOM     16  O   UNL d   1      20.679 -18.080  -0.891  0.00  0.00    -0.352 OA
BRANCH  16  17
ATOM     17  C   UNL d   1      20.168 -19.411  -0.953  0.00  0.00     0.171 C 
ATOM     18  C   UNL d   1      19.434 -19.690   0.347  0.00  0.00     0.034 C 
ENDBRANCH  16  17
ENDBRANCH  13  16
ENDBRANCH   7  10
ENDBRANCH   6   7
ENDBRANCH   5   6
ENDBRANCH   1   5
BRANCH   3  19
ATOM     19  N   UNL d   1      24.784 -14.724  -3.517  0.00  0.00    -0.184 NA
ATOM     20  C   UNL d   1      24.989 -13.730  -4.332  0.00  0.00     0.151 C 
BRANCH  20  21
ATOM     21  C   UNL d   1      25.955 -12.617  -4.203  0.00  0.00     0.003 A 
ATOM     22  C   UNL d   1      25.531 -11.429  -3.564  0.00  0.00     0.054 A 
ATOM     23  C   UNL d   1      26.406 -10.326  -3.436  0.00  0.00     0.102 A 
ATOM     24  C   UNL d   1      27.736 -10.497  -3.843  0.00  0.00     0.100 A 
ATOM     25  C   UNL d   1      28.137 -11.659  -4.491  0.00  0.00     0.059 A 
ATOM     26  C   UNL d   1      27.248 -12.693  -4.727  0.00  0.00     0.025 A 
ATOM     27 BR   UNL d   1      27.926 -14.099  -5.809  0.00  0.00    -0.050 Br
BRANCH  23  28
ATOM     28  O   UNL d   1      25.816  -9.179  -2.953  0.00  0.00    -0.349 OA
BRANCH  28  29
ATOM     29  C   UNL d   1      25.158  -8.351  -3.911  0.00  0.00     0.171 C 
ATOM     30  C   UNL d   1      25.326  -8.838  -5.332  0.00  0.00     0.034 C 
ENDBRANCH  28  29
ENDBRANCH  23  28
BRANCH  24  31
ATOM     31  O   UNL d   1      28.777  -9.623  -3.728  0.00  0.00    -0.358 OA
ATOM     32  H   UNL d   1      29.437  -9.925  -3.096  0.00  0.00     0.217 HD
ENDBRANCH  24  31
ENDBRANCH  20  21
ENDBRANCH   3  19
TORSDOF 12
ENDMDL
MODEL 4
REMARK VINA RESULT:    -7.605      1.333      1.800
REMARK INTER + INTRA:         -13.086
REMARK INTER:                 -11.185
REMARK INTRA:                  -1.901
REMARK CONF_INDEPENDENT:        3.580
REMARK UNBOUND:                -1.901
REMARK  12 active torsions:
REMARK  status: ('A' for Active; 'I' for Inactive)
REMARK    1  A    between atoms: C_2  and  O_3 
REMARK    2  A    between atoms: O_3  and  C_4 
REMARK    3  A    between atoms: C_8  and  C_7 
REMARK    4  A    between atoms: C_8  and  C_10 
REMARK    5  A    between atoms: C_8  and  O_9 
REMARK    6  A    between atoms: C_10  and  C_11 
REMARK    7  A    between atoms: C_11  and  C_12 
REMARK       I    between atoms: C_12  and  N_14 
REMARK    8  A    between atoms: N_14  and  N_15 
REMARK    9  A    between atoms: C_16  and  C_17 
REMARK   10  A    between atoms: C_19  and  O_20 
REMARK   11  A    between atoms: O_20  and  C_21 
REMARK   12  A    between atoms: C_23  and  O_24 
ROOT
ATOM      1  C   UNL d   1      27.087 -13.957  -0.270  0.00  0.00     0.237 C 
ATOM      2  O   UNL d   1      26.210 -13.965   0.594  0.00  0.00    -0.272 OA
ATOM      3  N   UNL d   1      26.902 -13.551  -1.581  0.00  0.00    -0.247 N 
ATOM      4  H   UNL d   1      27.625 -13.775  -2.254  0.00  0.00     0.192 HD
ENDROOT
BRANCH   1   5
ATOM      5  C   UNL d   1      28.507 -14.428   0.008  0.00  0.00     0.107 C 
BRANCH   5   6
ATOM      6  C   UNL d   1      28.493 -15.896   0.433  0.00  0.00     0.046 C 
BRANCH   6   7
ATOM      7  C   UNL d   1      28.079 -16.844  -0.689  0.00  0.00     0.151 C 
BRANCH   7   8
ATOM      8  O   UNL d   1      28.769 -18.083  -0.519  0.00  0.00    -0.391 OA
ATOM      9  H   UNL d   1      29.115 -18.104   0.389  0.00  0.00     0.210 HD
ENDBRANCH   7   8
BRANCH   7  10
ATOM     10  C   UNL d   1      26.594 -17.127  -0.724  0.00  0.00    -0.029 A 
ATOM     11  C   UNL d   1      25.764 -16.538  -1.689  0.00  0.00     0.012 A 
ATOM     12  C   UNL d   1      24.383 -16.720  -1.645  0.00  0.00     0.037 A 
ATOM     13  C   UNL d   1      23.814 -17.547  -0.680  0.00  0.00     0.068 A 
ATOM     14  C   UNL d   1      24.635 -18.189   0.247  0.00  0.00     0.037 A 
ATOM     15  C   UNL d   1      26.016 -17.974   0.231  0.00  0.00     0.012 A 
BRANCH  13  16
ATOM     16  O   UNL d   1      22.465 -17.745  -0.790  0.00  0.00    -0.352 OA
BRANCH  16  17
ATOM     17  C   UNL d   1      21.973 -18.950  -0.204  0.00  0.00     0.171 C 
ATOM     18  C   UNL d   1      20.660 -19.297  -0.884  0.00  0.00     0.034 C 
ENDBRANCH  16  17
ENDBRANCH  13  16
ENDBRANCH   7  10
ENDBRANCH   6   7
ENDBRANCH   5   6
ENDBRANCH   1   5
BRANCH   3  19
ATOM     19  N   UNL d   1      25.647 -13.244  -2.031  0.00  0.00    -0.184 NA
ATOM     20  C   UNL d   1      25.440 -13.087  -3.306  0.00  0.00     0.151 C 
BRANCH  20  21
ATOM     21  C   UNL d   1      26.400 -13.244  -4.420  0.00  0.00     0.003 A 
ATOM     22  C   UNL d   1      26.979 -14.516  -4.637  0.00  0.00     0.054 A 
ATOM     23  C   UNL d   1      27.920 -14.715  -5.672  0.00  0.00     0.102 A 
ATOM     24  C   UNL d   1      28.161 -13.649  -6.549  0.00  0.00     0.100 A 
ATOM     25  C   UNL d   1      27.607 -12.397  -6.314  0.00  0.00     0.059 A 
ATOM     26  C   UNL d   1      26.779 -12.169  -5.229  0.00  0.00     0.025 A 
ATOM     27 BR   UNL d   1      26.297 -10.352  -4.959  0.00  0.00    -0.050 Br
BRANCH  23  28
ATOM     28  O   UNL d   1      28.531 -15.950  -5.661  0.00  0.00    -0.349 OA
BRANCH  28  29
ATOM     29  C   UNL d   1      29.848 -16.003  -5.115  0.00  0.00     0.171 C 
ATOM     30  C   UNL d   1      30.668 -17.154  -5.648  0.00  0.00     0.034 C 
ENDBRANCH  28  29
ENDBRANCH  23  28
BRANCH  24  31
ATOM     31  O   UNL d   1      28.941 -13.632  -7.668  0.00  0.00    -0.358 OA
ATOM     32  H   UNL d   1      28.529 -14.092  -8.406  0.00  0.00     0.217 HD
ENDBRANCH  24  31
ENDBRANCH  20  21
ENDBRANCH   3  19
TORSDOF 12
ENDMDL
MODEL 5
REMARK VINA RESULT:    -7.537      4.682      7.183
REMARK INTER + INTRA:         -13.175
REMARK INTER:                 -11.116
REMARK INTRA:                  -2.058
REMARK CONF_INDEPENDENT:        3.580
REMARK UNBOUND:                -2.058
REMARK  12 active torsions:
REMARK  status: ('A' for Active; 'I' for Inactive)
REMARK    1  A    between atoms: C_2  and  O_3 
REMARK    2  A    between atoms: O_3  and  C_4 
REMARK    3  A    between atoms: C_8  and  C_7 
REMARK    4  A    between atoms: C_8  and  C_10 
REMARK    5  A    between atoms: C_8  and  O_9 
REMARK    6  A    between atoms: C_10  and  C_11 
REMARK    7  A    between atoms: C_11  and  C_12 
REMARK       I    between atoms: C_12  and  N_14 
REMARK    8  A    between atoms: N_14  and  N_15 
REMARK    9  A    between atoms: C_16  and  C_17 
REMARK   10  A    between atoms: C_19  and  O_20 
REMARK   11  A    between atoms: O_20  and  C_21 
REMARK   12  A    between atoms: C_23  and  O_24 
ROOT
ATOM      1  C   UNL d   1      29.336 -16.076  -0.632  0.00  0.00     0.237 C 
ATOM      2  O   UNL d   1      29.376 -15.339  -1.618  0.00  0.00    -0.272 OA
ATOM      3  N   UNL d   1      29.866 -17.353  -0.577  0.00  0.00    -0.247 N 
ATOM      4  H   UNL d   1      29.603 -17.944   0.202  0.00  0.00     0.192 HD
ENDROOT
BRANCH   1   5
ATOM      5  C   UNL d   1      28.658 -15.660   0.665  0.00  0.00     0.107 C 
BRANCH   5   6
ATOM      6  C   UNL d   1      27.156 -15.926   0.574  0.00  0.00     0.046 C 
BRANCH   6   7
ATOM      7  C   UNL d   1      26.805 -17.099  -0.337  0.00  0.00     0.151 C 
BRANCH   7   8
ATOM      8  O   UNL d   1      27.408 -18.283   0.188  0.00  0.00    -0.391 OA
ATOM      9  H   UNL d   1      28.097 -18.007   0.817  0.00  0.00     0.210 HD
ENDBRANCH   7   8
BRANCH   7  10
ATOM     10  C   UNL d   1      25.319 -17.339  -0.468  0.00  0.00    -0.029 A 
ATOM     11  C   UNL d   1      24.458 -16.332  -0.930  0.00  0.00     0.012 A 
ATOM     12  C   UNL d   1      23.078 -16.529  -0.944  0.00  0.00     0.037 A 
ATOM     13  C   UNL d   1      22.539 -17.754  -0.563  0.00  0.00     0.068 A 
ATOM     14  C   UNL d   1      23.390 -18.785  -0.161  0.00  0.00     0.037 A 
ATOM     15  C   UNL d   1      24.771 -18.576  -0.106  0.00  0.00     0.012 A 
BRANCH  13  16
ATOM     16  O   UNL d   1      21.186 -17.881  -0.716  0.00  0.00    -0.352 OA
BRANCH  16  17
ATOM     17  C   UNL d   1      20.731 -19.174  -1.113  0.00  0.00     0.171 C 
ATOM     18  C   UNL d   1      19.546 -19.541  -0.238  0.00  0.00     0.034 C 
ENDBRANCH  16  17
ENDBRANCH  13  16
ENDBRANCH   7  10
ENDBRANCH   6   7
ENDBRANCH   5   6
ENDBRANCH   1   5
BRANCH   3  19
ATOM     19  N   UNL d   1      30.374 -17.932  -1.707  0.00  0.00    -0.184 NA
ATOM     20  C   UNL d   1      31.200 -18.932  -1.604  0.00  0.00     0.151 C 
BRANCH  20  21
ATOM     21  C   UNL d   1      31.672 -19.613  -0.378  0.00  0.00     0.003 A 
ATOM     22  C   UNL d   1      31.061 -20.834  -0.010  0.00  0.00     0.054 A 
ATOM     23  C   UNL d   1      31.455 -21.514   1.165  0.00  0.00     0.102 A 
ATOM     24  C   UNL d   1      32.552 -21.008   1.875  0.00  0.00     0.100 A 
ATOM     25  C   UNL d   1      33.130 -19.796   1.519  0.00  0.00     0.059 A 
ATOM     26  C   UNL d   1      32.664 -19.067   0.439  0.00  0.00     0.025 A 
ATOM     27 BR   UNL d   1      33.439 -17.344   0.244  0.00  0.00    -0.050 Br
BRANCH  23  28
ATOM     28  O   UNL d   1      30.665 -22.593   1.496  0.00  0.00    -0.349 OA
BRANCH  28  29
ATOM     29  C   UNL d   1      29.278 -22.326   1.698  0.00  0.00     0.171 C 
ATOM     30  C   UNL d   1      28.946 -21.952   3.124  0.00  0.00     0.034 C 
ENDBRANCH  28  29
ENDBRANCH  23  28
BRANCH  24  31
ATOM     31  O   UNL d   1      33.173 -21.539   2.968  0.00  0.00    -0.358 OA
ATOM     32  H   UNL d   1      32.551 -21.949   3.576  0.00  0.00     0.217 HD
ENDBRANCH  24  31
ENDBRANCH  20  21
ENDBRANCH   3  19
TORSDOF 12
ENDMDL
MODEL 6
REMARK VINA RESULT:    -7.330      2.042      3.503
REMARK INTER + INTRA:         -13.361
REMARK INTER:                 -10.909
REMARK INTRA:                  -2.452
REMARK CONF_INDEPENDENT:        3.580
REMARK UNBOUND:                -2.452
REMARK  12 active torsions:
REMARK  status: ('A' for Active; 'I' for Inactive)
REMARK    1  A    between atoms: C_2  and  O_3 
REMARK    2  A    between atoms: O_3  and  C_4 
REMARK    3  A    between atoms: C_8  and  C_7 
REMARK    4  A    between atoms: C_8  and  C_10 
REMARK    5  A    between atoms: C_8  and  O_9 
REMARK    6  A    between atoms: C_10  and  C_11 
REMARK    7  A    between atoms: C_11  and  C_12 
REMARK       I    between atoms: C_12  and  N_14 
REMARK    8  A    between atoms: N_14  and  N_15 
REMARK    9  A    between atoms: C_16  and  C_17 
REMARK   10  A    between atoms: C_19  and  O_20 
REMARK   11  A    between atoms: O_20  and  C_21 
REMARK   12  A    between atoms: C_23  and  O_24 
ROOT
ATOM      1  C   UNL d   1      26.829 -15.487  -3.232  0.00  0.00     0.237 C 
ATOM      2  O   UNL d   1      27.290 -15.575  -4.370  0.00  0.00    -0.272 OA
ATOM      3  N   UNL d   1      25.569 -15.003  -2.924  0.00  0.00    -0.247 N 
ATOM      4  H   UNL d   1      25.368 -14.783  -1.956  0.00  0.00     0.192 HD
ENDROOT
BRANCH   1   5
ATOM      5  C   UNL d   1      27.624 -15.893  -1.999  0.00  0.00     0.107 C 
BRANCH   5   6
ATOM      6  C   UNL d   1      26.988 -17.124  -1.353  0.00  0.00     0.046 C 
BRANCH   6   7
ATOM      7  C   UNL d   1      26.051 -16.782  -0.198  0.00  0.00     0.151 C 
BRANCH   7   8
ATOM      8  O   UNL d   1      26.055 -15.365  -0.009  0.00  0.00    -0.391 OA
ATOM      9  H   UNL d   1      26.739 -15.160   0.651  0.00  0.00     0.210 HD
ENDBRANCH   7   8
BRANCH   7  10
ATOM     10  C   UNL d   1      24.624 -17.226  -0.425  0.00  0.00    -0.029 A 
ATOM     11  C   UNL d   1      23.627 -16.310  -0.794  0.00  0.00     0.012 A 
ATOM     12  C   UNL d   1      22.296 -16.711  -0.895  0.00  0.00     0.037 A 
ATOM     13  C   UNL d   1      21.947 -18.044  -0.697  0.00  0.00     0.068 A 
ATOM     14  C   UNL d   1      22.938 -18.977  -0.391  0.00  0.00     0.037 A 
ATOM     15  C   UNL d   1      24.268 -18.569  -0.247  0.00  0.00     0.012 A 
BRANCH  13  16
ATOM     16  O   UNL d   1      20.635 -18.353  -0.925  0.00  0.00    -0.352 OA
BRANCH  16  17
ATOM     17  C   UNL d   1      20.267 -19.705  -0.653  0.00  0.00     0.171 C 
ATOM     18  C   UNL d   1      19.670 -19.754   0.743  0.00  0.00     0.034 C 
ENDBRANCH  16  17
ENDBRANCH  13  16
ENDBRANCH   7  10
ENDBRANCH   6   7
ENDBRANCH   5   6
ENDBRANCH   1   5
BRANCH   3  19
ATOM     19  N   UNL d   1      24.789 -14.456  -3.905  0.00  0.00    -0.184 NA
ATOM     20  C   UNL d   1      24.960 -13.212  -4.248  0.00  0.00     0.151 C 
BRANCH  20  21
ATOM     21  C   UNL d   1      25.962 -12.248  -3.742  0.00  0.00     0.003 A 
ATOM     22  C   UNL d   1      26.364 -12.344  -2.390  0.00  0.00     0.054 A 
ATOM     23  C   UNL d   1      27.299 -11.433  -1.848  0.00  0.00     0.102 A 
ATOM     24  C   UNL d   1      27.904 -10.521  -2.723  0.00  0.00     0.100 A 
ATOM     25  C   UNL d   1      27.485 -10.418  -4.043  0.00  0.00     0.059 A 
ATOM     26  C   UNL d   1      26.482 -11.229  -4.544  0.00  0.00     0.025 A 
ATOM     27 BR   UNL d   1      25.904 -10.794  -6.300  0.00  0.00    -0.050 Br
BRANCH  23  28
ATOM     28  O   UNL d   1      27.470 -11.530  -0.484  0.00  0.00    -0.349 OA
BRANCH  28  29
ATOM     29  C   UNL d   1      26.955 -12.705   0.139  0.00  0.00     0.171 C 
ATOM     30  C   UNL d   1      26.672 -12.523   1.612  0.00  0.00     0.034 C 
ENDBRANCH  28  29
ENDBRANCH  23  28
BRANCH  24  31
ATOM     31  O   UNL d   1      28.896  -9.622  -2.458  0.00  0.00    -0.358 OA
ATOM     32  H   UNL d   1      29.751 -10.048  -2.338  0.00  0.00     0.217 HD
ENDBRANCH  24  31
ENDBRANCH  20  21
ENDBRANCH   3  19
TORSDOF 12
ENDMDL
MODEL 7
REMARK VINA RESULT:    -6.875      2.335      3.395
REMARK INTER + INTRA:         -13.266
REMARK INTER:                 -10.455
REMARK INTRA:                  -2.811
REMARK CONF_INDEPENDENT:        3.580
REMARK UNBOUND:                -2.811
REMARK  12 active torsions:
REMARK  status: ('A' for Active; 'I' for Inactive)
REMARK    1  A    between atoms: C_2  and  O_3 
REMARK    2  A    between atoms: O_3  and  C_4 
REMARK    3  A    between atoms: C_8  and  C_7 
REMARK    4  A    between atoms: C_8  and  C_10 
REMARK    5  A    between atoms: C_8  and  O_9 
REMARK    6  A    between atoms: C_10  and  C_11 
REMARK    7  A    between atoms: C_11  and  C_12 
REMARK       I    between atoms: C_12  and  N_14 
REMARK    8  A    between atoms: N_14  and  N_15 
REMARK    9  A    between atoms: C_16  and  C_17 
REMARK   10  A    between atoms: C_19  and  O_20 
REMARK   11  A    between atoms: O_20  and  C_21 
REMARK   12  A    between atoms: C_23  and  O_24 
ROOT
ATOM      1  C   UNL d   1      29.209 -16.748  -0.898  0.00  0.00     0.237 C 
ATOM      2  O   UNL d   1      30.364 -16.920  -0.508  0.00  0.00    -0.272 OA
ATOM      3  N   UNL d   1      28.765 -16.988  -2.187  0.00  0.00    -0.247 N 
ATOM      4  H   UNL d   1      27.859 -16.624  -2.454  0.00  0.00     0.192 HD
ENDROOT
BRANCH   1   5
ATOM      5  C   UNL d   1      28.115 -16.213   0.014  0.00  0.00     0.107 C 
BRANCH   5   6
ATOM      6  C   UNL d   1      26.846 -17.050  -0.152  0.00  0.00     0.046 C 
BRANCH   6   7
ATOM      7  C   UNL d   1      25.669 -16.255  -0.709  0.00  0.00     0.151 C 
BRANCH   7   8
ATOM      8  O   UNL d   1      25.945 -15.921  -2.071  0.00  0.00    -0.391 OA
ATOM      9  H   UNL d   1      25.093 -15.778  -2.517  0.00  0.00     0.210 HD
ENDBRANCH   7   8
BRANCH   7  10
ATOM     10  C   UNL d   1      24.357 -17.005  -0.661  0.00  0.00    -0.029 A 
ATOM     11  C   UNL d   1      24.319 -18.388  -0.430  0.00  0.00     0.012 A 
ATOM     12  C   UNL d   1      23.114 -19.087  -0.495  0.00  0.00     0.037 A 
ATOM     13  C   UNL d   1      21.920 -18.408  -0.724  0.00  0.00     0.068 A 
ATOM     14  C   UNL d   1      21.938 -17.023  -0.894  0.00  0.00     0.037 A 
ATOM     15  C   UNL d   1      23.149 -16.327  -0.871  0.00  0.00     0.012 A 
BRANCH  13  16
ATOM     16  O   UNL d   1      20.785 -19.167  -0.661  0.00  0.00    -0.352 OA
BRANCH  16  17
ATOM     17  C   UNL d   1      20.593 -19.884   0.558  0.00  0.00     0.171 C 
ATOM     18  C   UNL d   1      19.165 -20.400   0.576  0.00  0.00     0.034 C 
ENDBRANCH  16  17
ENDBRANCH  13  16
ENDBRANCH   7  10
ENDBRANCH   6   7
ENDBRANCH   5   6
ENDBRANCH   1   5
BRANCH   3  19
ATOM     19  N   UNL d   1      29.659 -17.326  -3.166  0.00  0.00    -0.184 NA
ATOM     20  C   UNL d   1      29.641 -16.692  -4.302  0.00  0.00     0.151 C 
BRANCH  20  21
ATOM     21  C   UNL d   1      28.780 -15.560  -4.711  0.00  0.00     0.003 A 
ATOM     22  C   UNL d   1      27.421 -15.573  -4.321  0.00  0.00     0.054 A 
ATOM     23  C   UNL d   1      26.549 -14.530  -4.705  0.00  0.00     0.102 A 
ATOM     24  C   UNL d   1      27.102 -13.428  -5.370  0.00  0.00     0.100 A 
ATOM     25  C   UNL d   1      28.433 -13.435  -5.770  0.00  0.00     0.059 A 
ATOM     26  C   UNL d   1      29.259 -14.512  -5.501  0.00  0.00     0.025 A 
ATOM     27 BR   UNL d   1      30.975 -14.426  -6.312  0.00  0.00    -0.050 Br
BRANCH  23  28
ATOM     28  O   UNL d   1      25.222 -14.753  -4.408  0.00  0.00    -0.349 OA
BRANCH  28  29
ATOM     29  C   UNL d   1      24.563 -13.744  -3.645  0.00  0.00     0.171 C 
ATOM     30  C   UNL d   1      25.503 -12.962  -2.756  0.00  0.00     0.034 C 
ENDBRANCH  28  29
ENDBRANCH  23  28
BRANCH  24  31
ATOM     31  O   UNL d   1      26.489 -12.269  -5.748  0.00  0.00    -0.358 OA
ATOM     32  H   UNL d   1      26.227 -12.282  -6.674  0.00  0.00     0.217 HD
ENDBRANCH  24  31
ENDBRANCH  20  21
ENDBRANCH   3  19
TORSDOF 12
ENDMDL
MODEL 8
REMARK VINA RESULT:    -6.820      2.432      3.225
REMARK INTER + INTRA:         -13.396
REMARK INTER:                 -10.400
REMARK INTRA:                  -2.997
REMARK CONF_INDEPENDENT:        3.580
REMARK UNBOUND:                -2.997
REMARK  12 active torsions:
REMARK  status: ('A' for Active; 'I' for Inactive)
REMARK    1  A    between atoms: C_2  and  O_3 
REMARK    2  A    between atoms: O_3  and  C_4 
REMARK    3  A    between atoms: C_8  and  C_7 
REMARK    4  A    between atoms: C_8  and  C_10 
REMARK    5  A    between atoms: C_8  and  O_9 
REMARK    6  A    between atoms: C_10  and  C_11 
REMARK    7  A    between atoms: C_11  and  C_12 
REMARK       I    between atoms: C_12  and  N_14 
REMARK    8  A    between atoms: N_14  and  N_15 
REMARK    9  A    between atoms: C_16  and  C_17 
REMARK   10  A    between atoms: C_19  and  O_20 
REMARK   11  A    between atoms: O_20  and  C_21 
REMARK   12  A    between atoms: C_23  and  O_24 
ROOT
ATOM      1  C   UNL d   1      29.034 -14.422  -0.641  0.00  0.00     0.237 C 
ATOM      2  O   UNL d   1      29.839 -13.597  -1.075  0.00  0.00    -0.272 OA
ATOM      3  N   UNL d   1      27.953 -14.122   0.169  0.00  0.00    -0.247 N 
ATOM      4  H   UNL d   1      27.479 -14.888   0.632  0.00  0.00     0.192 HD
ENDROOT
BRANCH   1   5
ATOM      5  C   UNL d   1      29.157 -15.910  -0.937  0.00  0.00     0.107 C 
BRANCH   5   6
ATOM      6  C   UNL d   1      27.799 -16.467  -1.365  0.00  0.00     0.046 C 
BRANCH   6   7
ATOM      7  C   UNL d   1      27.103 -17.266  -0.266  0.00  0.00     0.151 C 
BRANCH   7   8
ATOM      8  O   UNL d   1      27.339 -16.623   0.987  0.00  0.00    -0.391 OA
ATOM      9  H   UNL d   1      28.167 -16.982   1.350  0.00  0.00     0.210 HD
ENDBRANCH   7   8
BRANCH   7  10
ATOM     10  C   UNL d   1      25.609 -17.389  -0.463  0.00  0.00    -0.029 A 
ATOM     11  C   UNL d   1      24.853 -16.322  -0.970  0.00  0.00     0.012 A 
ATOM     12  C   UNL d   1      23.463 -16.408  -1.045  0.00  0.00     0.037 A 
ATOM     13  C   UNL d   1      22.812 -17.584  -0.681  0.00  0.00     0.068 A 
ATOM     14  C   UNL d   1      23.559 -18.674  -0.235  0.00  0.00     0.037 A 
ATOM     15  C   UNL d   1      24.948 -18.575  -0.118  0.00  0.00     0.012 A 
BRANCH  13  16
ATOM     16  O   UNL d   1      21.462 -17.604  -0.894  0.00  0.00    -0.352 OA
BRANCH  16  17
ATOM     17  C   UNL d   1      20.913 -18.876  -1.237  0.00  0.00     0.171 C 
ATOM     18  C   UNL d   1      20.112 -19.375  -0.047  0.00  0.00     0.034 C 
ENDBRANCH  16  17
ENDBRANCH  13  16
ENDBRANCH   7  10
ENDBRANCH   6   7
ENDBRANCH   5   6
ENDBRANCH   1   5
BRANCH   3  19
ATOM     19  N   UNL d   1      27.791 -12.852   0.650  0.00  0.00    -0.184 NA
ATOM     20  C   UNL d   1      27.330 -11.919  -0.132  0.00  0.00     0.151 C 
BRANCH  20  21
ATOM     21  C   UNL d   1      26.883 -12.035  -1.538  0.00  0.00     0.003 A 
ATOM     22  C   UNL d   1      26.100 -13.153  -1.904  0.00  0.00     0.054 A 
ATOM     23  C   UNL d   1      25.667 -13.326  -3.239  0.00  0.00     0.102 A 
ATOM     24  C   UNL d   1      25.929 -12.294  -4.149  0.00  0.00     0.100 A 
ATOM     25  C   UNL d   1      26.720 -11.211  -3.786  0.00  0.00     0.059 A 
ATOM     26  C   UNL d   1      27.247 -11.101  -2.510  0.00  0.00     0.025 A 
ATOM     27 BR   UNL d   1      28.472  -9.669  -2.272  0.00  0.00    -0.050 Br
BRANCH  23  28
ATOM     28  O   UNL d   1      25.063 -14.538  -3.494  0.00  0.00    -0.349 OA
BRANCH  28  29
ATOM     29  C   UNL d   1      25.905 -15.574  -3.998  0.00  0.00     0.171 C 
ATOM     30  C   UNL d   1      26.601 -15.201  -5.286  0.00  0.00     0.034 C 
ENDBRANCH  28  29
ENDBRANCH  23  28
BRANCH  24  31
ATOM     31  O   UNL d   1      25.530 -12.187  -5.449  0.00  0.00    -0.358 OA
ATOM     32  H   UNL d   1      24.672 -12.597  -5.601  0.00  0.00     0.217 HD
ENDBRANCH  24  31
ENDBRANCH  20  21
ENDBRANCH   3  19
TORSDOF 12
ENDMDL
MODEL 9
REMARK VINA RESULT:    -6.381      2.273      3.055
REMARK INTER + INTRA:         -13.189
REMARK INTER:                  -9.961
REMARK INTRA:                  -3.228
REMARK CONF_INDEPENDENT:        3.580
REMARK UNBOUND:                -3.228
REMARK  12 active torsions:
REMARK  status: ('A' for Active; 'I' for Inactive)
REMARK    1  A    between atoms: C_2  and  O_3 
REMARK    2  A    between atoms: O_3  and  C_4 
REMARK    3  A    between atoms: C_8  and  C_7 
REMARK    4  A    between atoms: C_8  and  C_10 
REMARK    5  A    between atoms: C_8  and  O_9 
REMARK    6  A    between atoms: C_10  and  C_11 
REMARK    7  A    between atoms: C_11  and  C_12 
REMARK       I    between atoms: C_12  and  N_14 
REMARK    8  A    between atoms: N_14  and  N_15 
REMARK    9  A    between atoms: C_16  and  C_17 
REMARK   10  A    between atoms: C_19  and  O_20 
REMARK   11  A    between atoms: O_20  and  C_21 
REMARK   12  A    between atoms: C_23  and  O_24 
ROOT
ATOM      1  C   UNL d   1      28.117 -12.503  -0.387  0.00  0.00     0.237 C 
ATOM      2  O   UNL d   1      27.332 -11.554  -0.371  0.00  0.00    -0.272 OA
ATOM      3  N   UNL d   1      29.294 -12.544  -1.115  0.00  0.00    -0.247 N 
ATOM      4  H   UNL d   1      29.758 -13.438  -1.219  0.00  0.00     0.192 HD
ENDROOT
BRANCH   1   5
ATOM      5  C   UNL d   1      27.863 -13.782   0.398  0.00  0.00     0.107 C 
BRANCH   5   6
ATOM      6  C   UNL d   1      28.403 -14.983  -0.379  0.00  0.00     0.046 C 
BRANCH   6   7
ATOM      7  C   UNL d   1      27.544 -15.359  -1.582  0.00  0.00     0.151 C 
BRANCH   7   8
ATOM      8  O   UNL d   1      28.294 -16.235  -2.425  0.00  0.00    -0.391 OA
ATOM      9  H   UNL d   1      27.829 -16.292  -3.277  0.00  0.00     0.210 HD
ENDBRANCH   7   8
BRANCH   7  10
ATOM     10  C   UNL d   1      26.251 -16.049  -1.210  0.00  0.00    -0.029 A 
ATOM     11  C   UNL d   1      25.016 -15.587  -1.688  0.00  0.00     0.012 A 
ATOM     12  C   UNL d   1      23.824 -16.164  -1.252  0.00  0.00     0.037 A 
ATOM     13  C   UNL d   1      23.847 -17.254  -0.386  0.00  0.00     0.068 A 
ATOM     14  C   UNL d   1      25.072 -17.763   0.047  0.00  0.00     0.037 A 
ATOM     15  C   UNL d   1      26.267 -17.159  -0.355  0.00  0.00     0.012 A 
BRANCH  13  16
ATOM     16  O   UNL d   1      22.632 -17.813  -0.106  0.00  0.00    -0.352 OA
BRANCH  16  17
ATOM     17  C   UNL d   1      22.321 -19.001  -0.833  0.00  0.00     0.171 C 
ATOM     18  C   UNL d   1      20.819 -19.029  -1.061  0.00  0.00     0.034 C 
ENDBRANCH  16  17
ENDBRANCH  13  16
ENDBRANCH   7  10
ENDBRANCH   6   7
ENDBRANCH   5   6
ENDBRANCH   1   5
BRANCH   3  19
ATOM     19  N   UNL d   1      29.591 -11.536  -1.990  0.00  0.00    -0.184 NA
ATOM     20  C   UNL d   1      28.967 -11.466  -3.130  0.00  0.00     0.151 C 
BRANCH  20  21
ATOM     21  C   UNL d   1      27.886 -12.336  -3.642  0.00  0.00     0.003 A 
ATOM     22  C   UNL d   1      28.234 -13.598  -4.177  0.00  0.00     0.054 A 
ATOM     23  C   UNL d   1      27.243 -14.459  -4.702  0.00  0.00     0.102 A 
ATOM     24  C   UNL d   1      25.903 -14.076  -4.557  0.00  0.00     0.100 A 
ATOM     25  C   UNL d   1      25.572 -12.825  -4.052  0.00  0.00     0.059 A 
ATOM     26  C   UNL d   1      26.549 -11.931  -3.650  0.00  0.00     0.025 A 
ATOM     27 BR   UNL d   1      25.911 -10.201  -3.193  0.00  0.00    -0.050 Br
BRANCH  23  28
ATOM     28  O   UNL d   1      27.735 -15.574  -5.345  0.00  0.00    -0.349 OA
BRANCH  28  29
ATOM     29  C   UNL d   1      29.136 -15.588  -5.612  0.00  0.00     0.171 C 
ATOM     30  C   UNL d   1      29.812 -16.866  -5.175  0.00  0.00     0.034 C 
ENDBRANCH  28  29
ENDBRANCH  23  28
BRANCH  24  31
ATOM     31  O   UNL d   1      24.781 -14.777  -4.889  0.00  0.00    -0.358 OA
ATOM     32  H   UNL d   1      24.027 -14.202  -5.050  0.00  0.00     0.217 HD
ENDBRANCH  24  31
ENDBRANCH  20  21
ENDBRANCH   3  19
TORSDOF 12
ENDMDL
