MODEL 1
REMARK VINA RESULT:   -30.727      0.000      0.000
REMARK INTER + INTRA:         -34.485
REMARK INTER:                 -33.412
REMARK INTRA:                  -1.073
REMARK CONF_INDEPENDENT:        2.685
REMARK UNBOUND:                -1.073
REMARK  9 active torsions:
REMARK  status: ('A' for Active; 'I' for Inactive)
REMARK    1  A    between atoms: C_2  and  C_3 
REMARK    2  A    between atoms: C_3  and  S_4 
REMARK    3  A    between atoms: S_4  and  C_5 
REMARK    4  A    between atoms: C_10  and  N_11 
REMARK       I    between atoms: N_11  and  C_12 
REMARK    5  A    between atoms: C_12  and  C_14 
REMARK    6  A    between atoms: C_14  and  S_15 
REMARK    7  A    between atoms: S_15  and  C_16 
REMARK    8  A    between atoms: C_19  and  C_20 
REMARK    9  A    between atoms: N_26  and  N_27 
ROOT
ATOM      1  N   UNL d   1      25.189 -17.077   0.074  0.00  0.00    -0.326 N 
ATOM      2  C   UNL d   1      26.172 -16.947  -0.917  0.00  0.00     0.231 C 
ATOM      3  O   UNL d   1      25.969 -17.167  -2.116  0.00  0.00    -0.272 OA
ATOM      4  H   UNL d   1      25.426 -16.871   1.039  0.00  0.00     0.169 HD
ENDROOT
BRANCH   2   5
ATOM      5  C   UNL d   1      27.573 -16.520  -0.474  0.00  0.00     0.185 C 
BRANCH   5   6
ATOM      6  S   UNL d   1      27.640 -14.692  -0.450  0.00  0.00    -0.080 SA
BRANCH   6   7
ATOM      7  C   UNL d   1      27.375 -14.079   1.133  0.00  0.00     0.206 A 
ATOM      8  N   UNL d   1      26.258 -13.465   1.466  0.00  0.00    -0.121 NA
ATOM      9  N   UNL d   1      26.321 -13.149   2.798  0.00  0.00    -0.127 NA
ATOM     10  C   UNL d   1      27.494 -13.545   3.258  0.00  0.00     0.179 A 
ATOM     11  N   UNL d   1      28.198 -14.152   2.230  0.00  0.00    -0.235 N 
BRANCH  10  12
ATOM     12  C   UNL d   1      27.972 -13.350   4.620  0.00  0.00     0.013 A 
ATOM     13  C   UNL d   1      28.060 -12.062   5.164  0.00  0.00     0.015 A 
ATOM     14  C   UNL d   1      28.642 -11.870   6.420  0.00  0.00     0.001 A 
ATOM     15  C   UNL d   1      29.077 -12.967   7.163  0.00  0.00     0.000 A 
ATOM     16  C   UNL d   1      28.968 -14.252   6.639  0.00  0.00     0.001 A 
ATOM     17  C   UNL d   1      28.430 -14.442   5.367  0.00  0.00     0.015 A 
ENDBRANCH  10  12
BRANCH  11  18
ATOM     18  N   UNL d   1      29.474 -14.819   2.350  0.00  0.00    -0.239 NA
ATOM     19  H   UNL d   1      29.482 -15.702   1.844  0.00  0.00     0.143 HD
ATOM     20  H   UNL d   1      29.686 -15.058   3.310  0.00  0.00     0.143 HD
ENDBRANCH  11  18
ENDBRANCH   6   7
ENDBRANCH   5   6
ENDBRANCH   2   5
BRANCH   1  21
ATOM     21  C   UNL d   1      23.833 -17.479  -0.194  0.00  0.00     0.036 A 
ATOM     22  C   UNL d   1      22.962 -16.639  -0.890  0.00  0.00     0.032 A 
ATOM     23  C   UNL d   1      21.636 -16.962  -1.165  0.00  0.00     0.035 A 
ATOM     24  C   UNL d   1      21.117 -18.176  -0.723  0.00  0.00     0.076 A 
ATOM     25  N   UNL d   1      19.804 -18.576  -0.895  0.00  0.00    -0.233 NA
ATOM     26  C   UNL d   1      21.967 -19.052  -0.039  0.00  0.00     0.038 A 
ATOM     27  C   UNL d   1      19.629 -19.753  -0.353  0.00  0.00     0.136 A 
ATOM     28  S   UNL d   1      21.035 -20.464   0.346  0.00  0.00    -0.061 SA
ATOM     29  C   UNL d   1      23.333 -18.727   0.236  0.00  0.00     0.051 A 
BRANCH  27  30
ATOM     30  S   UNL d   1      18.073 -20.565  -0.418  0.00  0.00    -0.099 SA
BRANCH  30  31
ATOM     31  C   UNL d   1      17.998 -21.411   1.199  0.00  0.00     0.107 C 
BRANCH  31  32
ATOM     32  C   UNL d   1      18.357 -20.446   2.307  0.00  0.00    -0.026 C 
ATOM     33  C   UNL d   1      19.536 -20.450   2.948  0.00  0.00     0.007 C 
ENDBRANCH  31  32
ENDBRANCH  30  31
ENDBRANCH  27  30
ENDBRANCH   1  21
TORSDOF 9
ENDMDL
MODEL 2
REMARK VINA RESULT:   -29.562      3.733      6.027
REMARK INTER + INTRA:         -34.172
REMARK INTER:                 -32.246
REMARK INTRA:                  -1.926
REMARK CONF_INDEPENDENT:        2.685
REMARK UNBOUND:                -1.926
REMARK  9 active torsions:
REMARK  status: ('A' for Active; 'I' for Inactive)
REMARK    1  A    between atoms: C_2  and  C_3 
REMARK    2  A    between atoms: C_3  and  S_4 
REMARK    3  A    between atoms: S_4  and  C_5 
REMARK    4  A    between atoms: C_10  and  N_11 
REMARK       I    between atoms: N_11  and  C_12 
REMARK    5  A    between atoms: C_12  and  C_14 
REMARK    6  A    between atoms: C_14  and  S_15 
REMARK    7  A    between atoms: S_15  and  C_16 
REMARK    8  A    between atoms: C_19  and  C_20 
REMARK    9  A    between atoms: N_26  and  N_27 
ROOT
ATOM      1  N   UNL d   1      25.061 -16.928  -0.047  0.00  0.00    -0.326 N 
ATOM      2  C   UNL d   1      26.145 -17.783   0.195  0.00  0.00     0.231 C 
ATOM      3  O   UNL d   1      26.050 -19.016   0.229  0.00  0.00    -0.272 OA
ATOM      4  H   UNL d   1      25.216 -15.925  -0.070  0.00  0.00     0.169 HD
ENDROOT
BRANCH   2   5
ATOM      5  C   UNL d   1      27.513 -17.144   0.438  0.00  0.00     0.185 C 
BRANCH   5   6
ATOM      6  S   UNL d   1      27.370 -15.344   0.149  0.00  0.00    -0.080 SA
BRANCH   6   7
ATOM      7  C   UNL d   1      27.012 -15.002  -1.496  0.00  0.00     0.206 A 
ATOM      8  N   UNL d   1      25.780 -15.022  -1.960  0.00  0.00    -0.121 NA
ATOM      9  N   UNL d   1      25.812 -14.652  -3.280  0.00  0.00    -0.127 NA
ATOM     10  C   UNL d   1      27.071 -14.442  -3.617  0.00  0.00     0.179 A 
ATOM     11  N   UNL d   1      27.873 -14.647  -2.506  0.00  0.00    -0.235 N 
BRANCH  10  12
ATOM     12  C   UNL d   1      27.535 -14.078  -4.949  0.00  0.00     0.013 A 
ATOM     13  C   UNL d   1      28.321 -14.967  -5.694  0.00  0.00     0.015 A 
ATOM     14  C   UNL d   1      28.873 -14.562  -6.912  0.00  0.00     0.001 A 
ATOM     15  C   UNL d   1      28.590 -13.295  -7.421  0.00  0.00     0.000 A 
ATOM     16  C   UNL d   1      27.787 -12.417  -6.697  0.00  0.00     0.001 A 
ATOM     17  C   UNL d   1      27.273 -12.801  -5.459  0.00  0.00     0.015 A 
ENDBRANCH  10  12
BRANCH  11  18
ATOM     18  N   UNL d   1      29.296 -14.409  -2.426  0.00  0.00    -0.239 NA
ATOM     19  H   UNL d   1      29.826 -15.268  -2.551  0.00  0.00     0.143 HD
ATOM     20  H   UNL d   1      29.569 -14.054  -1.518  0.00  0.00     0.143 HD
ENDBRANCH  11  18
ENDBRANCH   6   7
ENDBRANCH   5   6
ENDBRANCH   2   5
BRANCH   1  21
ATOM     21  C   UNL d   1      23.717 -17.387  -0.283  0.00  0.00     0.036 A 
ATOM     22  C   UNL d   1      22.812 -16.609  -1.007  0.00  0.00     0.032 A 
ATOM     23  C   UNL d   1      21.496 -16.990  -1.254  0.00  0.00     0.035 A 
ATOM     24  C   UNL d   1      21.023 -18.200  -0.754  0.00  0.00     0.076 A 
ATOM     25  N   UNL d   1      19.724 -18.652  -0.895  0.00  0.00    -0.233 NA
ATOM     26  C   UNL d   1      21.909 -19.015  -0.040  0.00  0.00     0.038 A 
ATOM     27  C   UNL d   1      19.594 -19.809  -0.300  0.00  0.00     0.136 A 
ATOM     28  S   UNL d   1      21.030 -20.440   0.415  0.00  0.00    -0.061 SA
ATOM     29  C   UNL d   1      23.265 -18.631   0.206  0.00  0.00     0.051 A 
BRANCH  27  30
ATOM     30  S   UNL d   1      18.067 -20.676  -0.314  0.00  0.00    -0.099 SA
BRANCH  30  31
ATOM     31  C   UNL d   1      17.903 -21.220   1.422  0.00  0.00     0.107 C 
BRANCH  31  32
ATOM     32  C   UNL d   1      18.536 -20.204   2.346  0.00  0.00    -0.026 C 
ATOM     33  C   UNL d   1      19.623 -20.451   3.095  0.00  0.00     0.007 C 
ENDBRANCH  31  32
ENDBRANCH  30  31
ENDBRANCH  27  30
ENDBRANCH   1  21
TORSDOF 9
ENDMDL
MODEL 3
REMARK VINA RESULT:   -28.923      3.751      6.362
REMARK INTER + INTRA:         -32.756
REMARK INTER:                 -31.608
REMARK INTRA:                  -1.148
REMARK CONF_INDEPENDENT:        2.685
REMARK UNBOUND:                -1.148
REMARK  9 active torsions:
REMARK  status: ('A' for Active; 'I' for Inactive)
REMARK    1  A    between atoms: C_2  and  C_3 
REMARK    2  A    between atoms: C_3  and  S_4 
REMARK    3  A    between atoms: S_4  and  C_5 
REMARK    4  A    between atoms: C_10  and  N_11 
REMARK       I    between atoms: N_11  and  C_12 
REMARK    5  A    between atoms: C_12  and  C_14 
REMARK    6  A    between atoms: C_14  and  S_15 
REMARK    7  A    between atoms: S_15  and  C_16 
REMARK    8  A    between atoms: C_19  and  C_20 
REMARK    9  A    between atoms: N_26  and  N_27 
ROOT
ATOM      1  N   UNL d   1      25.119 -16.983   0.029  0.00  0.00    -0.326 N 
ATOM      2  C   UNL d   1      26.190 -17.861   0.248  0.00  0.00     0.231 C 
ATOM      3  O   UNL d   1      26.077 -19.093   0.244  0.00  0.00    -0.272 OA
ATOM      4  H   UNL d   1      25.288 -15.983   0.037  0.00  0.00     0.169 HD
ENDROOT
BRANCH   2   5
ATOM      5  C   UNL d   1      27.565 -17.249   0.517  0.00  0.00     0.185 C 
BRANCH   5   6
ATOM      6  S   UNL d   1      27.817 -15.857  -0.643  0.00  0.00    -0.080 SA
BRANCH   6   7
ATOM      7  C   UNL d   1      28.708 -16.351  -2.026  0.00  0.00     0.206 A 
ATOM      8  N   UNL d   1      28.513 -15.810  -3.212  0.00  0.00    -0.121 NA
ATOM      9  N   UNL d   1      29.408 -16.365  -4.090  0.00  0.00    -0.127 NA
ATOM     10  C   UNL d   1      30.118 -17.266  -3.437  0.00  0.00     0.179 A 
ATOM     11  N   UNL d   1      29.711 -17.286  -2.113  0.00  0.00    -0.235 N 
BRANCH  10  12
ATOM     12  C   UNL d   1      31.145 -18.115  -4.026  0.00  0.00     0.013 A 
ATOM     13  C   UNL d   1      32.081 -17.579  -4.920  0.00  0.00     0.015 A 
ATOM     14  C   UNL d   1      32.979 -18.420  -5.582  0.00  0.00     0.001 A 
ATOM     15  C   UNL d   1      32.989 -19.787  -5.306  0.00  0.00     0.000 A 
ATOM     16  C   UNL d   1      32.079 -20.322  -4.398  0.00  0.00     0.001 A 
ATOM     17  C   UNL d   1      31.151 -19.491  -3.771  0.00  0.00     0.015 A 
ENDBRANCH  10  12
BRANCH  11  18
ATOM     18  N   UNL d   1      30.315 -18.050  -1.046  0.00  0.00    -0.239 NA
ATOM     19  H   UNL d   1      29.646 -18.256  -0.308  0.00  0.00     0.143 HD
ATOM     20  H   UNL d   1      31.065 -17.541  -0.595  0.00  0.00     0.143 HD
ENDBRANCH  11  18
ENDBRANCH   6   7
ENDBRANCH   5   6
ENDBRANCH   2   5
BRANCH   1  21
ATOM     21  C   UNL d   1      23.770 -17.416  -0.228  0.00  0.00     0.036 A 
ATOM     22  C   UNL d   1      22.881 -16.607  -0.939  0.00  0.00     0.032 A 
ATOM     23  C   UNL d   1      21.562 -16.962  -1.204  0.00  0.00     0.035 A 
ATOM     24  C   UNL d   1      21.067 -18.176  -0.735  0.00  0.00     0.076 A 
ATOM     25  N   UNL d   1      19.762 -18.605  -0.896  0.00  0.00    -0.233 NA
ATOM     26  C   UNL d   1      21.935 -19.021  -0.035  0.00  0.00     0.038 A 
ATOM     27  C   UNL d   1      19.610 -19.773  -0.328  0.00  0.00     0.136 A 
ATOM     28  S   UNL d   1      21.031 -20.443   0.381  0.00  0.00    -0.061 SA
ATOM     29  C   UNL d   1      23.295 -18.664   0.230  0.00  0.00     0.051 A 
BRANCH  27  30
ATOM     30  S   UNL d   1      18.070 -20.616  -0.373  0.00  0.00    -0.099 SA
BRANCH  30  31
ATOM     31  C   UNL d   1      17.923 -21.264   1.328  0.00  0.00     0.107 C 
BRANCH  31  32
ATOM     32  C   UNL d   1      18.450 -20.250   2.318  0.00  0.00    -0.026 C 
ATOM     33  C   UNL d   1      19.537 -20.445   3.080  0.00  0.00     0.007 C 
ENDBRANCH  31  32
ENDBRANCH  30  31
ENDBRANCH  27  30
ENDBRANCH   1  21
TORSDOF 9
ENDMDL
MODEL 4
REMARK VINA RESULT:   -28.886      3.644      5.650
REMARK INTER + INTRA:         -33.987
REMARK INTER:                 -31.571
REMARK INTRA:                  -2.416
REMARK CONF_INDEPENDENT:        2.685
REMARK UNBOUND:                -2.416
REMARK  9 active torsions:
REMARK  status: ('A' for Active; 'I' for Inactive)
REMARK    1  A    between atoms: C_2  and  C_3 
REMARK    2  A    between atoms: C_3  and  S_4 
REMARK    3  A    between atoms: S_4  and  C_5 
REMARK    4  A    between atoms: C_10  and  N_11 
REMARK       I    between atoms: N_11  and  C_12 
REMARK    5  A    between atoms: C_12  and  C_14 
REMARK    6  A    between atoms: C_14  and  S_15 
REMARK    7  A    between atoms: S_15  and  C_16 
REMARK    8  A    between atoms: C_19  and  C_20 
REMARK    9  A    between atoms: N_26  and  N_27 
ROOT
ATOM      1  N   UNL d   1      25.096 -16.999  -0.109  0.00  0.00    -0.326 N 
ATOM      2  C   UNL d   1      25.933 -16.512  -1.123  0.00  0.00     0.231 C 
ATOM      3  O   UNL d   1      25.588 -16.410  -2.305  0.00  0.00    -0.272 OA
ATOM      4  H   UNL d   1      25.445 -17.046   0.843  0.00  0.00     0.169 HD
ENDROOT
BRANCH   2   5
ATOM      5  C   UNL d   1      27.354 -16.099  -0.732  0.00  0.00     0.185 C 
BRANCH   5   6
ATOM      6  S   UNL d   1      27.264 -14.526   0.197  0.00  0.00    -0.080 SA
BRANCH   6   7
ATOM      7  C   UNL d   1      27.241 -13.175  -0.864  0.00  0.00     0.206 A 
ATOM      8  N   UNL d   1      28.074 -12.164  -0.725  0.00  0.00    -0.121 NA
ATOM      9  N   UNL d   1      27.851 -11.280  -1.749  0.00  0.00    -0.127 NA
ATOM     10  C   UNL d   1      26.859 -11.745  -2.485  0.00  0.00     0.179 A 
ATOM     11  N   UNL d   1      26.442 -12.959  -1.961  0.00  0.00    -0.235 N 
BRANCH  10  12
ATOM     12  C   UNL d   1      26.285 -11.075  -3.643  0.00  0.00     0.013 A 
ATOM     13  C   UNL d   1      26.335 -11.676  -4.908  0.00  0.00     0.015 A 
ATOM     14  C   UNL d   1      25.904 -10.972  -6.035  0.00  0.00     0.001 A 
ATOM     15  C   UNL d   1      25.361  -9.695  -5.897  0.00  0.00     0.000 A 
ATOM     16  C   UNL d   1      25.285  -9.102  -4.639  0.00  0.00     0.001 A 
ATOM     17  C   UNL d   1      25.758  -9.784  -3.518  0.00  0.00     0.015 A 
ENDBRANCH  10  12
BRANCH  11  18
ATOM     18  N   UNL d   1      25.459 -13.844  -2.540  0.00  0.00    -0.239 NA
ATOM     19  H   UNL d   1      24.985 -14.394  -1.827  0.00  0.00     0.143 HD
ATOM     20  H   UNL d   1      25.881 -14.520  -3.164  0.00  0.00     0.143 HD
ENDBRANCH  11  18
ENDBRANCH   6   7
ENDBRANCH   5   6
ENDBRANCH   2   5
BRANCH   1  21
ATOM     21  C   UNL d   1      23.741 -17.432  -0.330  0.00  0.00     0.036 A 
ATOM     22  C   UNL d   1      22.837 -16.626  -1.025  0.00  0.00     0.032 A 
ATOM     23  C   UNL d   1      21.511 -16.980  -1.256  0.00  0.00     0.035 A 
ATOM     24  C   UNL d   1      21.026 -18.191  -0.769  0.00  0.00     0.076 A 
ATOM     25  N   UNL d   1      19.717 -18.619  -0.895  0.00  0.00    -0.233 NA
ATOM     26  C   UNL d   1      21.910 -19.033  -0.084  0.00  0.00     0.038 A 
ATOM     27  C   UNL d   1      19.578 -19.784  -0.318  0.00  0.00     0.136 A 
ATOM     28  S   UNL d   1      21.015 -20.451   0.361  0.00  0.00    -0.061 SA
ATOM     29  C   UNL d   1      23.276 -18.676   0.145  0.00  0.00     0.051 A 
BRANCH  27  30
ATOM     30  S   UNL d   1      18.036 -20.625  -0.320  0.00  0.00    -0.099 SA
BRANCH  30  31
ATOM     31  C   UNL d   1      17.925 -21.256   1.390  0.00  0.00     0.107 C 
BRANCH  31  32
ATOM     32  C   UNL d   1      18.488 -20.239   2.356  0.00  0.00    -0.026 C 
ATOM     33  C   UNL d   1      19.580 -20.448   3.109  0.00  0.00     0.007 C 
ENDBRANCH  31  32
ENDBRANCH  30  31
ENDBRANCH  27  30
ENDBRANCH   1  21
TORSDOF 9
ENDMDL
MODEL 5
REMARK VINA RESULT:   -28.432      3.767      6.558
REMARK INTER + INTRA:         -32.431
REMARK INTER:                 -31.117
REMARK INTRA:                  -1.314
REMARK CONF_INDEPENDENT:        2.685
REMARK UNBOUND:                -1.314
REMARK  9 active torsions:
REMARK  status: ('A' for Active; 'I' for Inactive)
REMARK    1  A    between atoms: C_2  and  C_3 
REMARK    2  A    between atoms: C_3  and  S_4 
REMARK    3  A    between atoms: S_4  and  C_5 
REMARK    4  A    between atoms: C_10  and  N_11 
REMARK       I    between atoms: N_11  and  C_12 
REMARK    5  A    between atoms: C_12  and  C_14 
REMARK    6  A    between atoms: C_14  and  S_15 
REMARK    7  A    between atoms: S_15  and  C_16 
REMARK    8  A    between atoms: C_19  and  C_20 
REMARK    9  A    between atoms: N_26  and  N_27 
ROOT
ATOM      1  N   UNL d   1      25.119 -16.986  -0.014  0.00  0.00    -0.326 N 
ATOM      2  C   UNL d   1      25.757 -15.946  -0.704  0.00  0.00     0.231 C 
ATOM      3  O   UNL d   1      25.222 -15.295  -1.608  0.00  0.00    -0.272 OA
ATOM      4  H   UNL d   1      25.618 -17.472   0.724  0.00  0.00     0.169 HD
ENDROOT
BRANCH   2   5
ATOM      5  C   UNL d   1      27.199 -15.617  -0.314  0.00  0.00     0.185 C 
BRANCH   5   6
ATOM      6  S   UNL d   1      28.168 -17.168  -0.312  0.00  0.00    -0.080 SA
BRANCH   6   7
ATOM      7  C   UNL d   1      29.278 -17.212  -1.622  0.00  0.00     0.206 A 
ATOM      8  N   UNL d   1      30.387 -17.923  -1.574  0.00  0.00    -0.121 NA
ATOM      9  N   UNL d   1      31.027 -17.803  -2.780  0.00  0.00    -0.127 NA
ATOM     10  C   UNL d   1      30.317 -16.992  -3.543  0.00  0.00     0.179 A 
ATOM     11  N   UNL d   1      29.186 -16.596  -2.847  0.00  0.00    -0.235 N 
BRANCH  10  12
ATOM     12  C   UNL d   1      30.682 -16.569  -4.888  0.00  0.00     0.013 A 
ATOM     13  C   UNL d   1      29.746 -15.926  -5.708  0.00  0.00     0.015 A 
ATOM     14  C   UNL d   1      30.059 -15.643  -7.040  0.00  0.00     0.001 A 
ATOM     15  C   UNL d   1      31.328 -15.939  -7.538  0.00  0.00     0.000 A 
ATOM     16  C   UNL d   1      32.272 -16.555  -6.720  0.00  0.00     0.001 A 
ATOM     17  C   UNL d   1      31.946 -16.881  -5.404  0.00  0.00     0.015 A 
ENDBRANCH  10  12
BRANCH  11  18
ATOM     18  N   UNL d   1      28.098 -15.802  -3.369  0.00  0.00    -0.239 NA
ATOM     19  H   UNL d   1      28.303 -14.807  -3.317  0.00  0.00     0.143 HD
ATOM     20  H   UNL d   1      27.248 -15.929  -2.834  0.00  0.00     0.143 HD
ENDBRANCH  11  18
ENDBRANCH   6   7
ENDBRANCH   5   6
ENDBRANCH   2   5
BRANCH   1  21
ATOM     21  C   UNL d   1      23.769 -17.411  -0.279  0.00  0.00     0.036 A 
ATOM     22  C   UNL d   1      22.882 -16.585  -0.972  0.00  0.00     0.032 A 
ATOM     23  C   UNL d   1      21.561 -16.930  -1.244  0.00  0.00     0.035 A 
ATOM     24  C   UNL d   1      21.064 -18.153  -0.802  0.00  0.00     0.076 A 
ATOM     25  N   UNL d   1      19.758 -18.575  -0.971  0.00  0.00    -0.233 NA
ATOM     26  C   UNL d   1      21.931 -19.015  -0.120  0.00  0.00     0.038 A 
ATOM     27  C   UNL d   1      19.604 -19.756  -0.429  0.00  0.00     0.136 A 
ATOM     28  S   UNL d   1      21.024 -20.443   0.265  0.00  0.00    -0.061 SA
ATOM     29  C   UNL d   1      23.292 -18.667   0.151  0.00  0.00     0.051 A 
BRANCH  27  30
ATOM     30  S   UNL d   1      18.062 -20.594  -0.491  0.00  0.00    -0.099 SA
BRANCH  30  31
ATOM     31  C   UNL d   1      17.964 -21.369   1.160  0.00  0.00     0.107 C 
BRANCH  31  32
ATOM     32  C   UNL d   1      18.377 -20.377   2.224  0.00  0.00    -0.026 C 
ATOM     33  C   UNL d   1      19.529 -20.453   2.909  0.00  0.00     0.007 C 
ENDBRANCH  31  32
ENDBRANCH  30  31
ENDBRANCH  27  30
ENDBRANCH   1  21
TORSDOF 9
ENDMDL
MODEL 6
REMARK VINA RESULT:   -28.326      4.039      6.528
REMARK INTER + INTRA:         -32.635
REMARK INTER:                 -31.011
REMARK INTRA:                  -1.624
REMARK CONF_INDEPENDENT:        2.685
REMARK UNBOUND:                -1.624
REMARK  9 active torsions:
REMARK  status: ('A' for Active; 'I' for Inactive)
REMARK    1  A    between atoms: C_2  and  C_3 
REMARK    2  A    between atoms: C_3  and  S_4 
REMARK    3  A    between atoms: S_4  and  C_5 
REMARK    4  A    between atoms: C_10  and  N_11 
REMARK       I    between atoms: N_11  and  C_12 
REMARK    5  A    between atoms: C_12  and  C_14 
REMARK    6  A    between atoms: C_14  and  S_15 
REMARK    7  A    between atoms: S_15  and  C_16 
REMARK    8  A    between atoms: C_19  and  C_20 
REMARK    9  A    between atoms: N_26  and  N_27 
ROOT
ATOM      1  N   UNL d   1      25.202 -17.152   0.030  0.00  0.00    -0.326 N 
ATOM      2  C   UNL d   1      25.922 -16.254  -0.770  0.00  0.00     0.231 C 
ATOM      3  O   UNL d   1      25.454 -15.705  -1.775  0.00  0.00    -0.272 OA
ATOM      4  H   UNL d   1      25.648 -17.557   0.846  0.00  0.00     0.169 HD
ENDROOT
BRANCH   2   5
ATOM      5  C   UNL d   1      27.368 -15.953  -0.373  0.00  0.00     0.185 C 
BRANCH   5   6
ATOM      6  S   UNL d   1      28.473 -17.036  -1.348  0.00  0.00    -0.080 SA
BRANCH   6   7
ATOM      7  C   UNL d   1      29.243 -16.165  -2.614  0.00  0.00     0.206 A 
ATOM      8  N   UNL d   1      30.555 -16.104  -2.722  0.00  0.00    -0.121 NA
ATOM      9  N   UNL d   1      30.860 -15.395  -3.854  0.00  0.00    -0.127 NA
ATOM     10  C   UNL d   1      29.729 -15.000  -4.409  0.00  0.00     0.179 A 
ATOM     11  N   UNL d   1      28.669 -15.476  -3.654  0.00  0.00    -0.235 N 
BRANCH  10  12
ATOM     12  C   UNL d   1      29.623 -14.179  -5.607  0.00  0.00     0.013 A 
ATOM     13  C   UNL d   1      30.367 -12.998  -5.726  0.00  0.00     0.015 A 
ATOM     14  C   UNL d   1      30.161 -12.147  -6.815  0.00  0.00     0.001 A 
ATOM     15  C   UNL d   1      29.263 -12.504  -7.821  0.00  0.00     0.000 A 
ATOM     16  C   UNL d   1      28.539 -13.689  -7.721  0.00  0.00     0.001 A 
ATOM     17  C   UNL d   1      28.708 -14.517  -6.612  0.00  0.00     0.015 A 
ENDBRANCH  10  12
BRANCH  11  18
ATOM     18  N   UNL d   1      27.268 -15.361  -3.986  0.00  0.00    -0.239 NA
ATOM     19  H   UNL d   1      26.928 -14.412  -3.849  0.00  0.00     0.143 HD
ATOM     20  H   UNL d   1      26.690 -15.941  -3.390  0.00  0.00     0.143 HD
ENDBRANCH  11  18
ENDBRANCH   6   7
ENDBRANCH   5   6
ENDBRANCH   2   5
BRANCH   1  21
ATOM     21  C   UNL d   1      23.838 -17.535  -0.227  0.00  0.00     0.036 A 
ATOM     22  C   UNL d   1      22.975 -16.685  -0.923  0.00  0.00     0.032 A 
ATOM     23  C   UNL d   1      21.643 -16.990  -1.187  0.00  0.00     0.035 A 
ATOM     24  C   UNL d   1      21.108 -18.194  -0.735  0.00  0.00     0.076 A 
ATOM     25  N   UNL d   1      19.788 -18.575  -0.896  0.00  0.00    -0.233 NA
ATOM     26  C   UNL d   1      21.949 -19.078  -0.050  0.00  0.00     0.038 A 
ATOM     27  C   UNL d   1      19.599 -19.746  -0.345  0.00  0.00     0.136 A 
ATOM     28  S   UNL d   1      20.999 -20.474   0.349  0.00  0.00    -0.061 SA
ATOM     29  C   UNL d   1      23.322 -18.772   0.214  0.00  0.00     0.051 A 
BRANCH  27  30
ATOM     30  S   UNL d   1      18.031 -20.534  -0.395  0.00  0.00    -0.099 SA
BRANCH  30  31
ATOM     31  C   UNL d   1      17.909 -21.284   1.266  0.00  0.00     0.107 C 
BRANCH  31  32
ATOM     32  C   UNL d   1      18.421 -20.317   2.310  0.00  0.00    -0.026 C 
ATOM     33  C   UNL d   1      19.603 -20.447   2.933  0.00  0.00     0.007 C 
ENDBRANCH  31  32
ENDBRANCH  30  31
ENDBRANCH  27  30
ENDBRANCH   1  21
TORSDOF 9
ENDMDL
MODEL 7
REMARK VINA RESULT:   -27.866      1.339      2.173
REMARK INTER + INTRA:         -31.465
REMARK INTER:                 -30.550
REMARK INTRA:                  -0.914
REMARK CONF_INDEPENDENT:        2.685
REMARK UNBOUND:                -0.914
REMARK  9 active torsions:
REMARK  status: ('A' for Active; 'I' for Inactive)
REMARK    1  A    between atoms: C_2  and  C_3 
REMARK    2  A    between atoms: C_3  and  S_4 
REMARK    3  A    between atoms: S_4  and  C_5 
REMARK    4  A    between atoms: C_10  and  N_11 
REMARK       I    between atoms: N_11  and  C_12 
REMARK    5  A    between atoms: C_12  and  C_14 
REMARK    6  A    between atoms: C_14  and  S_15 
REMARK    7  A    between atoms: S_15  and  C_16 
REMARK    8  A    between atoms: C_19  and  C_20 
REMARK    9  A    between atoms: N_26  and  N_27 
ROOT
ATOM      1  N   UNL d   1      25.299 -17.261  -0.029  0.00  0.00    -0.326 N 
ATOM      2  C   UNL d   1      26.133 -16.680  -0.994  0.00  0.00     0.231 C 
ATOM      3  O   UNL d   1      25.769 -16.420  -2.146  0.00  0.00    -0.272 OA
ATOM      4  H   UNL d   1      25.664 -17.438   0.901  0.00  0.00     0.169 HD
ENDROOT
BRANCH   2   5
ATOM      5  C   UNL d   1      27.574 -16.366  -0.589  0.00  0.00     0.185 C 
BRANCH   5   6
ATOM      6  S   UNL d   1      27.904 -14.602  -0.941  0.00  0.00    -0.080 SA
BRANCH   6   7
ATOM      7  C   UNL d   1      28.483 -13.785   0.454  0.00  0.00     0.206 A 
ATOM      8  N   UNL d   1      29.641 -14.083   1.008  0.00  0.00    -0.121 NA
ATOM      9  N   UNL d   1      29.849 -13.225   2.057  0.00  0.00    -0.127 NA
ATOM     10  C   UNL d   1      28.798 -12.432   2.153  0.00  0.00     0.179 A 
ATOM     11  N   UNL d   1      27.902 -12.748   1.144  0.00  0.00    -0.235 N 
BRANCH  10  12
ATOM     12  C   UNL d   1      28.607 -11.409   3.173  0.00  0.00     0.013 A 
ATOM     13  C   UNL d   1      28.453 -11.768   4.518  0.00  0.00     0.015 A 
ATOM     14  C   UNL d   1      28.139 -10.796   5.471  0.00  0.00     0.001 A 
ATOM     15  C   UNL d   1      28.043  -9.456   5.097  0.00  0.00     0.000 A 
ATOM     16  C   UNL d   1      28.222  -9.089   3.765  0.00  0.00     0.001 A 
ATOM     17  C   UNL d   1      28.489 -10.064   2.804  0.00  0.00     0.015 A 
ENDBRANCH  10  12
BRANCH  11  18
ATOM     18  N   UNL d   1      26.682 -12.039   0.834  0.00  0.00    -0.239 NA
ATOM     19  H   UNL d   1      26.725 -11.070   1.141  0.00  0.00     0.143 HD
ATOM     20  H   UNL d   1      25.883 -12.437   1.312  0.00  0.00     0.143 HD
ENDBRANCH  11  18
ENDBRANCH   6   7
ENDBRANCH   5   6
ENDBRANCH   2   5
BRANCH   1  21
ATOM     21  C   UNL d   1      23.925 -17.617  -0.270  0.00  0.00     0.036 A 
ATOM     22  C   UNL d   1      23.084 -16.774  -1.000  0.00  0.00     0.032 A 
ATOM     23  C   UNL d   1      21.744 -17.054  -1.252  0.00  0.00     0.035 A 
ATOM     24  C   UNL d   1      21.178 -18.223  -0.750  0.00  0.00     0.076 A 
ATOM     25  N   UNL d   1      19.848 -18.575  -0.895  0.00  0.00    -0.233 NA
ATOM     26  C   UNL d   1      21.996 -19.100  -0.029  0.00  0.00     0.038 A 
ATOM     27  C   UNL d   1      19.628 -19.717  -0.296  0.00  0.00     0.136 A 
ATOM     28  S   UNL d   1      21.009 -20.453   0.427  0.00  0.00    -0.061 SA
ATOM     29  C   UNL d   1      23.376 -18.821   0.222  0.00  0.00     0.051 A 
BRANCH  27  30
ATOM     30  S   UNL d   1      18.039 -20.464  -0.314  0.00  0.00    -0.099 SA
BRANCH  30  31
ATOM     31  C   UNL d   1      17.925 -21.194   1.356  0.00  0.00     0.107 C 
BRANCH  31  32
ATOM     32  C   UNL d   1      18.434 -20.212   2.387  0.00  0.00    -0.026 C 
ATOM     33  C   UNL d   1      19.452 -20.469   3.224  0.00  0.00     0.007 C 
ENDBRANCH  31  32
ENDBRANCH  30  31
ENDBRANCH  27  30
ENDBRANCH   1  21
TORSDOF 9
ENDMDL
