MODEL 1
REMARK VINA RESULT:    -8.036      0.000      0.000
REMARK INTER + INTRA:         -15.545
REMARK INTER:                 -11.019
REMARK INTRA:                  -4.525
REMARK CONF_INDEPENDENT:        2.983
REMARK UNBOUND:                -4.525
REMARK  10 active torsions:
REMARK  status: ('A' for Active; 'I' for Inactive)
REMARK    1  A    between atoms: C_2  and  C_3 
REMARK    2  A    between atoms: C_2  and  C_17 
REMARK    3  A    between atoms: C_3  and  O_4 
REMARK    4  A    between atoms: O_4  and  C_5 
REMARK    5  A    between atoms: C_5  and  C_7 
REMARK    6  A    between atoms: C_12  and  N_13 
REMARK    7  A    between atoms: N_13  and  C_14 
REMARK    8  A    between atoms: C_14  and  C_15 
REMARK    9  A    between atoms: C_15  and  O_16 
REMARK   10  A    between atoms: C_25  and  C_26 
ROOT
ATOM      1  O   UNL d   1      26.903 -13.191  -2.170  0.00  0.00    -0.290 OA
ATOM      2  C   UNL d   1      26.054 -14.077  -2.247  0.00  0.00     0.182 C 
ENDROOT
BRANCH   2   3
ATOM      3  C   UNL d   1      24.742 -13.934  -3.137  0.00  0.00     0.262 C 
BRANCH   3   4
ATOM      4  O   UNL d   1      24.779 -14.078  -4.559  0.00  0.00    -0.310 OA
BRANCH   4   5
ATOM      5  C   UNL d   1      25.700 -14.994  -5.026  0.00  0.00     0.296 C 
ATOM      6  O   UNL d   1      25.531 -16.183  -5.099  0.00  0.00    -0.259 OA
BRANCH   5   7
ATOM      7  C   UNL d   1      26.976 -14.296  -5.394  0.00  0.00     0.065 A 
ATOM      8  C   UNL d   1      28.122 -15.114  -5.331  0.00  0.00     0.020 A 
ATOM      9  C   UNL d   1      29.396 -14.573  -5.519  0.00  0.00     0.001 A 
ATOM     10  C   UNL d   1      29.532 -13.230  -5.842  0.00  0.00     0.002 A 
ATOM     11  C   UNL d   1      28.401 -12.414  -5.917  0.00  0.00     0.030 A 
ATOM     12  C   UNL d   1      27.098 -12.905  -5.686  0.00  0.00     0.044 A 
BRANCH  12  13
ATOM     13  N   UNL d   1      26.101 -11.902  -5.600  0.00  0.00    -0.387 N 
ATOM     14  H   UNL d   1      25.242 -12.221  -5.159  0.00  0.00     0.159 HD
BRANCH  13  15
ATOM     15  C   UNL d   1      26.510 -10.575  -5.227  0.00  0.00     0.146 C 
BRANCH  15  16
ATOM     16  C   UNL d   1      26.071 -10.033  -3.889  0.00  0.00     0.183 C 
BRANCH  16  17
ATOM     17  O   UNL d   1      25.436 -11.089  -3.143  0.00  0.00    -0.399 OA
ATOM     18  H   UNL d   1      25.797 -11.899  -3.552  0.00  0.00     0.209 HD
ENDBRANCH  16  17
ENDBRANCH  15  16
ENDBRANCH  13  15
ENDBRANCH  12  13
ENDBRANCH   5   7
ENDBRANCH   4   5
ENDBRANCH   3   4
ENDBRANCH   2   3
BRANCH   2  19
ATOM     19  C   UNL d   1      26.404 -15.390  -1.612  0.00  0.00     0.029 C 
ATOM     20  C   UNL d   1      27.703 -15.662  -1.367  0.00  0.00     0.003 C 
ATOM     21  C   UNL d   1      28.962 -15.028  -1.613  0.00  0.00     0.014 C 
ATOM     22  C   UNL d   1      27.712 -16.939  -0.640  0.00  0.00     0.040 C 
ATOM     23  C   UNL d   1      30.092 -15.730  -1.579  0.00  0.00     0.001 C 
ATOM     24  C   UNL d   1      30.109 -17.054  -1.020  0.00  0.00     0.002 C 
ATOM     25  C   UNL d   1      29.010 -17.654  -0.520  0.00  0.00     0.030 C 
ATOM     26  N   UNL d   1      26.542 -17.264  -0.253  0.00  0.00    -0.376 N 
ATOM     27  C   UNL d   1      25.497 -16.274  -0.736  0.00  0.00     0.153 C 
ATOM     28  H   UNL d   1      26.343 -18.150   0.214  0.00  0.00     0.160 HD
BRANCH  27  29
ATOM     29  C   UNL d   1      24.158 -17.021  -0.665  0.00  0.00    -0.031 C 
ATOM     30  C   UNL d   1      24.307 -18.432  -0.403  0.00  0.00     0.009 C 
ATOM     31  C   UNL d   1      23.270 -19.361  -0.519  0.00  0.00     0.001 C 
ATOM     32  C   UNL d   1      21.992 -18.900  -0.769  0.00  0.00     0.000 C 
ATOM     33  C   UNL d   1      21.778 -17.521  -0.894  0.00  0.00     0.001 C 
ATOM     34  C   UNL d   1      22.848 -16.583  -0.849  0.00  0.00     0.009 C 
ENDBRANCH  27  29
ENDBRANCH   2  19
TORSDOF 10
ENDMDL
MODEL 2
REMARK VINA RESULT:    -8.029      2.636      3.683
REMARK INTER + INTRA:         -14.561
REMARK INTER:                 -11.012
REMARK INTRA:                  -3.549
REMARK CONF_INDEPENDENT:        2.983
REMARK UNBOUND:                -3.549
REMARK  10 active torsions:
REMARK  status: ('A' for Active; 'I' for Inactive)
REMARK    1  A    between atoms: C_2  and  C_3 
REMARK    2  A    between atoms: C_2  and  C_17 
REMARK    3  A    between atoms: C_3  and  O_4 
REMARK    4  A    between atoms: O_4  and  C_5 
REMARK    5  A    between atoms: C_5  and  C_7 
REMARK    6  A    between atoms: C_12  and  N_13 
REMARK    7  A    between atoms: N_13  and  C_14 
REMARK    8  A    between atoms: C_14  and  C_15 
REMARK    9  A    between atoms: C_15  and  O_16 
REMARK   10  A    between atoms: C_25  and  C_26 
ROOT
ATOM      1  O   UNL d   1      24.625 -14.269  -3.970  0.00  0.00    -0.290 OA
ATOM      2  C   UNL d   1      25.815 -14.577  -3.954  0.00  0.00     0.182 C 
ENDROOT
BRANCH   2   3
ATOM      3  C   UNL d   1      26.814 -14.208  -5.136  0.00  0.00     0.262 C 
BRANCH   3   4
ATOM      4  O   UNL d   1      27.369 -15.210  -5.992  0.00  0.00    -0.310 OA
BRANCH   4   5
ATOM      5  C   UNL d   1      28.577 -14.878  -6.569  0.00  0.00     0.296 C 
ATOM      6  O   UNL d   1      28.752 -13.997  -7.370  0.00  0.00    -0.259 OA
BRANCH   5   7
ATOM      7  C   UNL d   1      29.650 -15.810  -6.087  0.00  0.00     0.065 A 
ATOM      8  C   UNL d   1      29.349 -16.461  -4.874  0.00  0.00     0.020 A 
ATOM      9  C   UNL d   1      30.301 -17.258  -4.236  0.00  0.00     0.001 A 
ATOM     10  C   UNL d   1      31.536 -17.468  -4.837  0.00  0.00     0.002 A 
ATOM     11  C   UNL d   1      31.840 -16.834  -6.044  0.00  0.00     0.030 A 
ATOM     12  C   UNL d   1      30.926 -15.981  -6.700  0.00  0.00     0.044 A 
BRANCH  12  13
ATOM     13  N   UNL d   1      31.474 -15.268  -7.795  0.00  0.00    -0.387 N 
ATOM     14  H   UNL d   1      30.801 -15.076  -8.532  0.00  0.00     0.159 HD
BRANCH  13  15
ATOM     15  C   UNL d   1      32.377 -14.186  -7.510  0.00  0.00     0.146 C 
BRANCH  15  16
ATOM     16  C   UNL d   1      32.146 -12.855  -8.185  0.00  0.00     0.183 C 
BRANCH  16  17
ATOM     17  O   UNL d   1      31.043 -12.983  -9.103  0.00  0.00    -0.399 OA
ATOM     18  H   UNL d   1      30.466 -13.640  -8.667  0.00  0.00     0.209 HD
ENDBRANCH  16  17
ENDBRANCH  15  16
ENDBRANCH  13  15
ENDBRANCH  12  13
ENDBRANCH   5   7
ENDBRANCH   4   5
ENDBRANCH   3   4
ENDBRANCH   2   3
BRANCH   2  19
ATOM     19  C   UNL d   1      26.334 -15.153  -2.669  0.00  0.00     0.029 C 
ATOM     20  C   UNL d   1      27.596 -14.856  -2.292  0.00  0.00     0.003 C 
ATOM     21  C   UNL d   1      28.703 -14.134  -2.842  0.00  0.00     0.014 C 
ATOM     22  C   UNL d   1      27.763 -15.452  -0.960  0.00  0.00     0.040 C 
ATOM     23  C   UNL d   1      29.937 -14.339  -2.391  0.00  0.00     0.001 C 
ATOM     24  C   UNL d   1      30.153 -15.062  -1.167  0.00  0.00     0.002 C 
ATOM     25  C   UNL d   1      29.146 -15.572  -0.428  0.00  0.00     0.030 C 
ATOM     26  N   UNL d   1      26.648 -15.830  -0.474  0.00  0.00    -0.376 N 
ATOM     27  C   UNL d   1      25.510 -15.622  -1.456  0.00  0.00     0.153 C 
ATOM     28  H   UNL d   1      26.574 -16.322   0.418  0.00  0.00     0.160 HD
BRANCH  27  29
ATOM     29  C   UNL d   1      24.384 -16.554  -0.986  0.00  0.00    -0.031 C 
ATOM     30  C   UNL d   1      24.835 -17.895  -0.705  0.00  0.00     0.009 C 
ATOM     31  C   UNL d   1      23.978 -18.977  -0.488  0.00  0.00     0.001 C 
ATOM     32  C   UNL d   1      22.620 -18.740  -0.402  0.00  0.00     0.000 C 
ATOM     33  C   UNL d   1      22.149 -17.428  -0.531  0.00  0.00     0.001 C 
ATOM     34  C   UNL d   1      23.016 -16.338  -0.826  0.00  0.00     0.009 C 
ENDBRANCH  27  29
ENDBRANCH   2  19
TORSDOF 10
ENDMDL
MODEL 3
REMARK VINA RESULT:    -7.947      1.869      4.162
REMARK INTER + INTRA:         -14.646
REMARK INTER:                 -10.930
REMARK INTRA:                  -3.716
REMARK CONF_INDEPENDENT:        2.983
REMARK UNBOUND:                -3.716
REMARK  10 active torsions:
REMARK  status: ('A' for Active; 'I' for Inactive)
REMARK    1  A    between atoms: C_2  and  C_3 
REMARK    2  A    between atoms: C_2  and  C_17 
REMARK    3  A    between atoms: C_3  and  O_4 
REMARK    4  A    between atoms: O_4  and  C_5 
REMARK    5  A    between atoms: C_5  and  C_7 
REMARK    6  A    between atoms: C_12  and  N_13 
REMARK    7  A    between atoms: N_13  and  C_14 
REMARK    8  A    between atoms: C_14  and  C_15 
REMARK    9  A    between atoms: C_15  and  O_16 
REMARK   10  A    between atoms: C_25  and  C_26 
ROOT
ATOM      1  O   UNL d   1      27.190 -13.709  -2.397  0.00  0.00    -0.290 OA
ATOM      2  C   UNL d   1      26.149 -14.269  -2.057  0.00  0.00     0.182 C 
ENDROOT
BRANCH   2   3
ATOM      3  C   UNL d   1      24.785 -14.109  -2.861  0.00  0.00     0.262 C 
BRANCH   3   4
ATOM      4  O   UNL d   1      24.763 -13.990  -4.286  0.00  0.00    -0.310 OA
BRANCH   4   5
ATOM      5  C   UNL d   1      25.659 -14.802  -4.951  0.00  0.00     0.296 C 
ATOM      6  O   UNL d   1      25.530 -15.983  -5.136  0.00  0.00    -0.259 OA
BRANCH   5   7
ATOM      7  C   UNL d   1      26.854 -14.003  -5.379  0.00  0.00     0.065 A 
ATOM      8  C   UNL d   1      28.080 -14.690  -5.268  0.00  0.00     0.020 A 
ATOM      9  C   UNL d   1      29.290 -14.035  -5.506  0.00  0.00     0.001 A 
ATOM     10  C   UNL d   1      29.284 -12.711  -5.925  0.00  0.00     0.002 A 
ATOM     11  C   UNL d   1      28.074 -12.025  -6.047  0.00  0.00     0.030 A 
ATOM     12  C   UNL d   1      26.830 -12.632  -5.770  0.00  0.00     0.044 A 
BRANCH  12  13
ATOM     13  N   UNL d   1      25.733 -11.734  -5.747  0.00  0.00    -0.387 N 
ATOM     14  H   UNL d   1      24.864 -12.164  -5.441  0.00  0.00     0.159 HD
BRANCH  13  15
ATOM     15  C   UNL d   1      25.958 -10.409  -5.236  0.00  0.00     0.146 C 
BRANCH  15  16
ATOM     16  C   UNL d   1      25.669 -10.135  -3.780  0.00  0.00     0.183 C 
BRANCH  16  17
ATOM     17  O   UNL d   1      25.208 -11.351  -3.160  0.00  0.00    -0.399 OA
ATOM     18  H   UNL d   1      24.772 -11.824  -3.895  0.00  0.00     0.209 HD
ENDBRANCH  16  17
ENDBRANCH  15  16
ENDBRANCH  13  15
ENDBRANCH  12  13
ENDBRANCH   5   7
ENDBRANCH   4   5
ENDBRANCH   3   4
ENDBRANCH   2   3
BRANCH   2  19
ATOM     19  C   UNL d   1      26.268 -15.273  -0.948  0.00  0.00     0.029 C 
ATOM     20  C   UNL d   1      25.503 -16.384  -1.000  0.00  0.00     0.003 C 
ATOM     21  C   UNL d   1      24.476 -16.900  -1.853  0.00  0.00     0.014 C 
ATOM     22  C   UNL d   1      25.930 -17.214   0.135  0.00  0.00     0.040 C 
ATOM     23  C   UNL d   1      23.657 -17.857  -1.424  0.00  0.00     0.001 C 
ATOM     24  C   UNL d   1      23.957 -18.587  -0.223  0.00  0.00     0.002 C 
ATOM     25  C   UNL d   1      25.051 -18.346   0.529  0.00  0.00     0.030 C 
ATOM     26  N   UNL d   1      27.010 -16.779   0.651  0.00  0.00    -0.376 N 
ATOM     27  C   UNL d   1      27.472 -15.495  -0.015  0.00  0.00     0.153 C 
ATOM     28  H   UNL d   1      27.426 -17.191   1.487  0.00  0.00     0.160 HD
BRANCH  27  29
ATOM     29  C   UNL d   1      28.425 -14.829   0.988  0.00  0.00    -0.031 C 
ATOM     30  C   UNL d   1      27.781 -14.461   2.226  0.00  0.00     0.009 C 
ATOM     31  C   UNL d   1      28.366 -13.644   3.196  0.00  0.00     0.001 C 
ATOM     32  C   UNL d   1      29.685 -13.268   3.039  0.00  0.00     0.000 C 
ATOM     33  C   UNL d   1      30.392 -13.719   1.917  0.00  0.00     0.001 C 
ATOM     34  C   UNL d   1      29.773 -14.489   0.892  0.00  0.00     0.009 C 
ENDBRANCH  27  29
ENDBRANCH   2  19
TORSDOF 10
ENDMDL
MODEL 4
REMARK VINA RESULT:    -7.877      0.825      4.121
REMARK INTER + INTRA:         -15.068
REMARK INTER:                 -10.860
REMARK INTRA:                  -4.208
REMARK CONF_INDEPENDENT:        2.983
REMARK UNBOUND:                -4.208
REMARK  10 active torsions:
REMARK  status: ('A' for Active; 'I' for Inactive)
REMARK    1  A    between atoms: C_2  and  C_3 
REMARK    2  A    between atoms: C_2  and  C_17 
REMARK    3  A    between atoms: C_3  and  O_4 
REMARK    4  A    between atoms: O_4  and  C_5 
REMARK    5  A    between atoms: C_5  and  C_7 
REMARK    6  A    between atoms: C_12  and  N_13 
REMARK    7  A    between atoms: N_13  and  C_14 
REMARK    8  A    between atoms: C_14  and  C_15 
REMARK    9  A    between atoms: C_15  and  O_16 
REMARK   10  A    between atoms: C_25  and  C_26 
ROOT
ATOM      1  O   UNL d   1      26.427 -13.463  -1.827  0.00  0.00    -0.290 OA
ATOM      2  C   UNL d   1      25.583 -14.326  -2.064  0.00  0.00     0.182 C 
ENDROOT
BRANCH   2   3
ATOM      3  C   UNL d   1      24.431 -14.128  -3.144  0.00  0.00     0.262 C 
BRANCH   3   4
ATOM      4  O   UNL d   1      24.723 -13.994  -4.538  0.00  0.00    -0.310 OA
BRANCH   4   5
ATOM      5  C   UNL d   1      25.672 -14.872  -5.019  0.00  0.00     0.296 C 
ATOM      6  O   UNL d   1      25.529 -16.060  -5.144  0.00  0.00    -0.259 OA
BRANCH   5   7
ATOM      7  C   UNL d   1      26.942 -14.136  -5.329  0.00  0.00     0.065 A 
ATOM      8  C   UNL d   1      28.116 -14.878  -5.086  0.00  0.00     0.020 A 
ATOM      9  C   UNL d   1      29.373 -14.282  -5.204  0.00  0.00     0.001 A 
ATOM     10  C   UNL d   1      29.473 -12.965  -5.632  0.00  0.00     0.002 A 
ATOM     11  C   UNL d   1      28.316 -12.225  -5.884  0.00  0.00     0.030 A 
ATOM     12  C   UNL d   1      27.023 -12.770  -5.731  0.00  0.00     0.044 A 
BRANCH  12  13
ATOM     13  N   UNL d   1      25.974 -11.822  -5.829  0.00  0.00    -0.387 N 
ATOM     14  H   UNL d   1      25.059 -12.205  -5.603  0.00  0.00     0.159 HD
BRANCH  13  15
ATOM     15  C   UNL d   1      26.212 -10.499  -5.319  0.00  0.00     0.146 C 
BRANCH  15  16
ATOM     16  C   UNL d   1      25.655 -10.135  -3.964  0.00  0.00     0.183 C 
BRANCH  16  17
ATOM     17  O   UNL d   1      25.158 -11.328  -3.328  0.00  0.00    -0.399 OA
ATOM     18  H   UNL d   1      24.779 -11.835  -4.072  0.00  0.00     0.209 HD
ENDBRANCH  16  17
ENDBRANCH  15  16
ENDBRANCH  13  15
ENDBRANCH  12  13
ENDBRANCH   5   7
ENDBRANCH   4   5
ENDBRANCH   3   4
ENDBRANCH   2   3
BRANCH   2  19
ATOM     19  C   UNL d   1      25.804 -15.664  -1.422  0.00  0.00     0.029 C 
ATOM     20  C   UNL d   1      24.726 -16.411  -1.100  0.00  0.00     0.003 C 
ATOM     21  C   UNL d   1      23.304 -16.257  -1.145  0.00  0.00     0.014 C 
ATOM     22  C   UNL d   1      25.260 -17.691  -0.616  0.00  0.00     0.040 C 
ATOM     23  C   UNL d   1      22.515 -17.033  -0.406  0.00  0.00     0.001 C 
ATOM     24  C   UNL d   1      23.040 -18.215   0.222  0.00  0.00     0.002 C 
ATOM     25  C   UNL d   1      24.330 -18.593   0.114  0.00  0.00     0.030 C 
ATOM     26  N   UNL d   1      26.503 -17.805  -0.870  0.00  0.00    -0.376 N 
ATOM     27  C   UNL d   1      27.060 -16.550  -1.518  0.00  0.00     0.153 C 
ATOM     28  H   UNL d   1      27.060 -18.601  -0.554  0.00  0.00     0.160 HD
BRANCH  27  29
ATOM     29  C   UNL d   1      28.577 -16.609  -1.295  0.00  0.00    -0.031 C 
ATOM     30  C   UNL d   1      29.329 -16.721  -2.522  0.00  0.00     0.009 C 
ATOM     31  C   UNL d   1      30.692 -17.020  -2.577  0.00  0.00     0.001 C 
ATOM     32  C   UNL d   1      31.405 -17.084  -1.396  0.00  0.00     0.000 C 
ATOM     33  C   UNL d   1      30.741 -16.845  -0.186  0.00  0.00     0.001 C 
ATOM     34  C   UNL d   1      29.337 -16.613  -0.127  0.00  0.00     0.009 C 
ENDBRANCH  27  29
ENDBRANCH   2  19
TORSDOF 10
ENDMDL
MODEL 5
REMARK VINA RESULT:    -7.691      1.273      3.076
REMARK INTER + INTRA:         -15.048
REMARK INTER:                 -10.674
REMARK INTRA:                  -4.375
REMARK CONF_INDEPENDENT:        2.983
REMARK UNBOUND:                -4.375
REMARK  10 active torsions:
REMARK  status: ('A' for Active; 'I' for Inactive)
REMARK    1  A    between atoms: C_2  and  C_3 
REMARK    2  A    between atoms: C_2  and  C_17 
REMARK    3  A    between atoms: C_3  and  O_4 
REMARK    4  A    between atoms: O_4  and  C_5 
REMARK    5  A    between atoms: C_5  and  C_7 
REMARK    6  A    between atoms: C_12  and  N_13 
REMARK    7  A    between atoms: N_13  and  C_14 
REMARK    8  A    between atoms: C_14  and  C_15 
REMARK    9  A    between atoms: C_15  and  O_16 
REMARK   10  A    between atoms: C_25  and  C_26 
ROOT
ATOM      1  O   UNL d   1      25.536 -15.251  -5.021  0.00  0.00    -0.290 OA
ATOM      2  C   UNL d   1      25.520 -14.787  -3.882  0.00  0.00     0.182 C 
ENDROOT
BRANCH   2   3
ATOM      3  C   UNL d   1      24.783 -13.424  -3.520  0.00  0.00     0.262 C 
BRANCH   3   4
ATOM      4  O   UNL d   1      25.257 -12.566  -2.478  0.00  0.00    -0.310 OA
BRANCH   4   5
ATOM      5  C   UNL d   1      26.442 -11.917  -2.756  0.00  0.00     0.296 C 
ATOM      6  O   UNL d   1      27.382 -11.825  -2.011  0.00  0.00    -0.259 OA
BRANCH   5   7
ATOM      7  C   UNL d   1      26.377 -11.292  -4.118  0.00  0.00     0.065 A 
ATOM      8  C   UNL d   1      25.610 -10.111  -4.178  0.00  0.00     0.020 A 
ATOM      9  C   UNL d   1      25.352  -9.488  -5.400  0.00  0.00     0.001 A 
ATOM     10  C   UNL d   1      25.914  -9.998  -6.564  0.00  0.00     0.002 A 
ATOM     11  C   UNL d   1      26.684 -11.162  -6.513  0.00  0.00     0.030 A 
ATOM     12  C   UNL d   1      26.931 -11.852  -5.307  0.00  0.00     0.044 A 
BRANCH  12  13
ATOM     13  N   UNL d   1      27.552 -13.115  -5.472  0.00  0.00    -0.387 N 
ATOM     14  H   UNL d   1      26.896 -13.892  -5.473  0.00  0.00     0.159 HD
BRANCH  13  15
ATOM     15  C   UNL d   1      28.611 -13.223  -6.438  0.00  0.00     0.146 C 
BRANCH  15  16
ATOM     16  C   UNL d   1      28.997 -14.594  -6.938  0.00  0.00     0.183 C 
BRANCH  16  17
ATOM     17  O   UNL d   1      28.147 -15.575  -6.313  0.00  0.00    -0.399 OA
ATOM     18  H   UNL d   1      27.282 -15.124  -6.269  0.00  0.00     0.209 HD
ENDBRANCH  16  17
ENDBRANCH  15  16
ENDBRANCH  13  15
ENDBRANCH  12  13
ENDBRANCH   5   7
ENDBRANCH   4   5
ENDBRANCH   3   4
ENDBRANCH   2   3
BRANCH   2  19
ATOM     19  C   UNL d   1      26.068 -15.669  -2.798  0.00  0.00     0.029 C 
ATOM     20  C   UNL d   1      27.401 -15.677  -2.585  0.00  0.00     0.003 C 
ATOM     21  C   UNL d   1      28.553 -15.077  -3.186  0.00  0.00     0.014 C 
ATOM     22  C   UNL d   1      27.609 -16.523  -1.402  0.00  0.00     0.040 C 
ATOM     23  C   UNL d   1      29.767 -15.580  -2.972  0.00  0.00     0.001 C 
ATOM     24  C   UNL d   1      29.983 -16.538  -1.923  0.00  0.00     0.002 C 
ATOM     25  C   UNL d   1      28.994 -16.983  -1.120  0.00  0.00     0.030 C 
ATOM     26  N   UNL d   1      26.510 -16.775  -0.809  0.00  0.00    -0.376 N 
ATOM     27  C   UNL d   1      25.324 -16.193  -1.556  0.00  0.00     0.153 C 
ATOM     28  H   UNL d   1      26.450 -17.399  -0.003  0.00  0.00     0.160 HD
BRANCH  27  29
ATOM     29  C   UNL d   1      24.100 -16.976  -1.061  0.00  0.00    -0.031 C 
ATOM     30  C   UNL d   1      24.390 -18.357  -0.763  0.00  0.00     0.009 C 
ATOM     31  C   UNL d   1      23.413 -19.326  -0.521  0.00  0.00     0.001 C 
ATOM     32  C   UNL d   1      22.094 -18.927  -0.427  0.00  0.00     0.000 C 
ATOM     33  C   UNL d   1      21.781 -17.570  -0.573  0.00  0.00     0.001 C 
ATOM     34  C   UNL d   1      22.769 -16.596  -0.893  0.00  0.00     0.009 C 
ENDBRANCH  27  29
ENDBRANCH   2  19
TORSDOF 10
ENDMDL
MODEL 6
REMARK VINA RESULT:    -7.116      1.521      4.846
REMARK INTER + INTRA:         -14.684
REMARK INTER:                 -10.099
REMARK INTRA:                  -4.584
REMARK CONF_INDEPENDENT:        2.983
REMARK UNBOUND:                -4.584
REMARK  10 active torsions:
REMARK  status: ('A' for Active; 'I' for Inactive)
REMARK    1  A    between atoms: C_2  and  C_3 
REMARK    2  A    between atoms: C_2  and  C_17 
REMARK    3  A    between atoms: C_3  and  O_4 
REMARK    4  A    between atoms: O_4  and  C_5 
REMARK    5  A    between atoms: C_5  and  C_7 
REMARK    6  A    between atoms: C_12  and  N_13 
REMARK    7  A    between atoms: N_13  and  C_14 
REMARK    8  A    between atoms: C_14  and  C_15 
REMARK    9  A    between atoms: C_15  and  O_16 
REMARK   10  A    between atoms: C_25  and  C_26 
ROOT
ATOM      1  O   UNL d   1      26.435 -13.563  -1.335  0.00  0.00    -0.290 OA
ATOM      2  C   UNL d   1      25.721 -14.452  -1.796  0.00  0.00     0.182 C 
ENDROOT
BRANCH   2   3
ATOM      3  C   UNL d   1      24.895 -14.277  -3.145  0.00  0.00     0.262 C 
BRANCH   3   4
ATOM      4  O   UNL d   1      25.212 -15.024  -4.322  0.00  0.00    -0.310 OA
BRANCH   4   5
ATOM      5  C   UNL d   1      26.312 -14.568  -5.020  0.00  0.00     0.296 C 
ATOM      6  O   UNL d   1      26.978 -15.220  -5.780  0.00  0.00    -0.259 OA
BRANCH   5   7
ATOM      7  C   UNL d   1      26.592 -13.139  -4.660  0.00  0.00     0.065 A 
ATOM      8  C   UNL d   1      25.823 -12.200  -5.376  0.00  0.00     0.020 A 
ATOM      9  C   UNL d   1      26.063 -10.831  -5.243  0.00  0.00     0.001 A 
ATOM     10  C   UNL d   1      27.022 -10.385  -4.344  0.00  0.00     0.002 A 
ATOM     11  C   UNL d   1      27.782 -11.308  -3.623  0.00  0.00     0.030 A 
ATOM     12  C   UNL d   1      27.609 -12.702  -3.761  0.00  0.00     0.044 A 
BRANCH  12  13
ATOM     13  N   UNL d   1      28.599 -13.482  -3.113  0.00  0.00    -0.387 N 
ATOM     14  H   UNL d   1      28.220 -14.127  -2.425  0.00  0.00     0.159 HD
BRANCH  13  15
ATOM     15  C   UNL d   1      29.665 -14.019  -3.915  0.00  0.00     0.146 C 
BRANCH  15  16
ATOM     16  C   UNL d   1      29.653 -15.493  -4.241  0.00  0.00     0.183 C 
BRANCH  16  17
ATOM     17  O   UNL d   1      28.591 -16.125  -3.502  0.00  0.00    -0.399 OA
ATOM     18  H   UNL d   1      27.795 -15.905  -4.023  0.00  0.00     0.209 HD
ENDBRANCH  16  17
ENDBRANCH  15  16
ENDBRANCH  13  15
ENDBRANCH  12  13
ENDBRANCH   5   7
ENDBRANCH   4   5
ENDBRANCH   3   4
ENDBRANCH   2   3
BRANCH   2  19
ATOM     19  C   UNL d   1      25.815 -15.792  -1.127  0.00  0.00     0.029 C 
ATOM     20  C   UNL d   1      24.682 -16.501  -0.942  0.00  0.00     0.003 C 
ATOM     21  C   UNL d   1      23.282 -16.302  -1.166  0.00  0.00     0.014 C 
ATOM     22  C   UNL d   1      25.108 -17.795  -0.391  0.00  0.00     0.040 C 
ATOM     23  C   UNL d   1      22.382 -17.047  -0.530  0.00  0.00     0.001 C 
ATOM     24  C   UNL d   1      22.784 -18.240   0.162  0.00  0.00     0.002 C 
ATOM     25  C   UNL d   1      24.065 -18.661   0.219  0.00  0.00     0.030 C 
ATOM     26  N   UNL d   1      26.369 -17.950  -0.486  0.00  0.00    -0.376 N 
ATOM     27  C   UNL d   1      27.044 -16.718  -1.062  0.00  0.00     0.153 C 
ATOM     28  H   UNL d   1      26.855 -18.762  -0.100  0.00  0.00     0.160 HD
BRANCH  27  29
ATOM     29  C   UNL d   1      28.518 -16.824  -0.649  0.00  0.00    -0.031 C 
ATOM     30  C   UNL d   1      28.987 -15.675   0.086  0.00  0.00     0.009 C 
ATOM     31  C   UNL d   1      30.332 -15.426   0.370  0.00  0.00     0.001 C 
ATOM     32  C   UNL d   1      31.266 -16.392   0.052  0.00  0.00     0.000 C 
ATOM     33  C   UNL d   1      30.836 -17.586  -0.539  0.00  0.00     0.001 C 
ATOM     34  C   UNL d   1      29.476 -17.807  -0.895  0.00  0.00     0.009 C 
ENDBRANCH  27  29
ENDBRANCH   2  19
TORSDOF 10
ENDMDL
MODEL 7
REMARK VINA RESULT:    -7.018      2.532      7.232
REMARK INTER + INTRA:         -14.577
REMARK INTER:                 -10.001
REMARK INTRA:                  -4.576
REMARK CONF_INDEPENDENT:        2.983
REMARK UNBOUND:                -4.576
REMARK  10 active torsions:
REMARK  status: ('A' for Active; 'I' for Inactive)
REMARK    1  A    between atoms: C_2  and  C_3 
REMARK    2  A    between atoms: C_2  and  C_17 
REMARK    3  A    between atoms: C_3  and  O_4 
REMARK    4  A    between atoms: O_4  and  C_5 
REMARK    5  A    between atoms: C_5  and  C_7 
REMARK    6  A    between atoms: C_12  and  N_13 
REMARK    7  A    between atoms: N_13  and  C_14 
REMARK    8  A    between atoms: C_14  and  C_15 
REMARK    9  A    between atoms: C_15  and  O_16 
REMARK   10  A    between atoms: C_25  and  C_26 
ROOT
ATOM      1  O   UNL d   1      28.751 -15.909  -3.090  0.00  0.00    -0.290 OA
ATOM      2  C   UNL d   1      28.121 -15.105  -3.775  0.00  0.00     0.182 C 
ENDROOT
BRANCH   2   3
ATOM      3  C   UNL d   1      27.019 -14.134  -3.164  0.00  0.00     0.262 C 
BRANCH   3   4
ATOM      4  O   UNL d   1      26.209 -14.522  -2.052  0.00  0.00    -0.310 OA
BRANCH   4   5
ATOM      5  C   UNL d   1      24.948 -14.975  -2.380  0.00  0.00     0.296 C 
ATOM      6  O   UNL d   1      24.202 -14.459  -3.171  0.00  0.00    -0.259 OA
BRANCH   5   7
ATOM      7  C   UNL d   1      24.613 -16.193  -1.571  0.00  0.00     0.065 A 
ATOM      8  C   UNL d   1      23.243 -16.329  -1.270  0.00  0.00     0.020 A 
ATOM      9  C   UNL d   1      22.797 -17.341  -0.417  0.00  0.00     0.001 A 
ATOM     10  C   UNL d   1      23.703 -18.265   0.086  0.00  0.00     0.002 A 
ATOM     11  C   UNL d   1      25.062 -18.143  -0.214  0.00  0.00     0.030 A 
ATOM     12  C   UNL d   1      25.565 -17.108  -1.032  0.00  0.00     0.044 A 
BRANCH  12  13
ATOM     13  N   UNL d   1      26.979 -17.019  -1.060  0.00  0.00    -0.387 N 
ATOM     14  H   UNL d   1      27.329 -16.335  -1.725  0.00  0.00     0.159 HD
BRANCH  13  15
ATOM     15  C   UNL d   1      27.680 -17.048   0.195  0.00  0.00     0.146 C 
BRANCH  15  16
ATOM     16  C   UNL d   1      28.549 -15.871   0.565  0.00  0.00     0.183 C 
BRANCH  16  17
ATOM     17  O   UNL d   1      28.484 -14.893  -0.491  0.00  0.00    -0.399 OA
ATOM     18  H   UNL d   1      27.947 -15.339  -1.174  0.00  0.00     0.209 HD
ENDBRANCH  16  17
ENDBRANCH  15  16
ENDBRANCH  13  15
ENDBRANCH  12  13
ENDBRANCH   5   7
ENDBRANCH   4   5
ENDBRANCH   3   4
ENDBRANCH   2   3
BRANCH   2  19
ATOM     19  C   UNL d   1      28.579 -14.942  -5.195  0.00  0.00     0.029 C 
ATOM     20  C   UNL d   1      28.336 -13.770  -5.821  0.00  0.00     0.003 C 
ATOM     21  C   UNL d   1      27.655 -12.550  -5.513  0.00  0.00     0.014 C 
ATOM     22  C   UNL d   1      29.002 -13.872  -7.126  0.00  0.00     0.040 C 
ATOM     23  C   UNL d   1      27.274 -11.724  -6.485  0.00  0.00     0.001 C 
ATOM     24  C   UNL d   1      27.780 -11.889  -7.820  0.00  0.00     0.002 C 
ATOM     25  C   UNL d   1      28.640 -12.870  -8.163  0.00  0.00     0.030 C 
ATOM     26  N   UNL d   1      29.783 -14.877  -7.175  0.00  0.00    -0.376 N 
ATOM     27  C   UNL d   1      29.717 -15.700  -5.902  0.00  0.00     0.153 C 
ATOM     28  H   UNL d   1      30.285 -15.144  -8.024  0.00  0.00     0.160 HD
BRANCH  27  29
ATOM     29  C   UNL d   1      30.262 -17.085  -6.277  0.00  0.00    -0.031 C 
ATOM     30  C   UNL d   1      30.055 -18.076  -5.248  0.00  0.00     0.009 C 
ATOM     31  C   UNL d   1      30.655 -19.338  -5.248  0.00  0.00     0.001 C 
ATOM     32  C   UNL d   1      31.385 -19.725  -6.355  0.00  0.00     0.000 C 
ATOM     33  C   UNL d   1      31.497 -18.844  -7.438  0.00  0.00     0.001 C 
ATOM     34  C   UNL d   1      30.948 -17.531  -7.406  0.00  0.00     0.009 C 
ENDBRANCH  27  29
ENDBRANCH   2  19
TORSDOF 10
ENDMDL
MODEL 8
REMARK VINA RESULT:    -6.996      3.613      5.655
REMARK INTER + INTRA:         -14.861
REMARK INTER:                  -9.979
REMARK INTRA:                  -4.882
REMARK CONF_INDEPENDENT:        2.983
REMARK UNBOUND:                -4.882
REMARK  10 active torsions:
REMARK  status: ('A' for Active; 'I' for Inactive)
REMARK    1  A    between atoms: C_2  and  C_3 
REMARK    2  A    between atoms: C_2  and  C_17 
REMARK    3  A    between atoms: C_3  and  O_4 
REMARK    4  A    between atoms: O_4  and  C_5 
REMARK    5  A    between atoms: C_5  and  C_7 
REMARK    6  A    between atoms: C_12  and  N_13 
REMARK    7  A    between atoms: N_13  and  C_14 
REMARK    8  A    between atoms: C_14  and  C_15 
REMARK    9  A    between atoms: C_15  and  O_16 
REMARK   10  A    between atoms: C_25  and  C_26 
ROOT
ATOM      1  O   UNL d   1      28.124 -15.552  -5.966  0.00  0.00    -0.290 OA
ATOM      2  C   UNL d   1      28.138 -15.575  -4.736  0.00  0.00     0.182 C 
ENDROOT
BRANCH   2   3
ATOM      3  C   UNL d   1      29.291 -16.289  -3.903  0.00  0.00     0.262 C 
BRANCH   3   4
ATOM      4  O   UNL d   1      30.454 -16.827  -4.538  0.00  0.00    -0.310 OA
BRANCH   4   5
ATOM      5  C   UNL d   1      30.672 -18.170  -4.309  0.00  0.00     0.296 C 
ATOM      6  O   UNL d   1      30.780 -18.688  -3.229  0.00  0.00    -0.259 OA
BRANCH   5   7
ATOM      7  C   UNL d   1      30.805 -18.898  -5.614  0.00  0.00     0.065 A 
ATOM      8  C   UNL d   1      31.224 -20.238  -5.490  0.00  0.00     0.020 A 
ATOM      9  C   UNL d   1      31.516 -21.002  -6.621  0.00  0.00     0.001 A 
ATOM     10  C   UNL d   1      31.326 -20.460  -7.886  0.00  0.00     0.002 A 
ATOM     11  C   UNL d   1      30.901 -19.136  -8.019  0.00  0.00     0.030 A 
ATOM     12  C   UNL d   1      30.641 -18.310  -6.903  0.00  0.00     0.044 A 
BRANCH  12  13
ATOM     13  N   UNL d   1      30.422 -16.947  -7.223  0.00  0.00    -0.387 N 
ATOM     14  H   UNL d   1      29.794 -16.475  -6.578  0.00  0.00     0.159 HD
BRANCH  13  15
ATOM     15  C   UNL d   1      31.553 -16.163  -7.640  0.00  0.00     0.146 C 
BRANCH  15  16
ATOM     16  C   UNL d   1      31.582 -14.694  -7.293  0.00  0.00     0.183 C 
BRANCH  16  17
ATOM     17  O   UNL d   1      30.466 -14.396  -6.434  0.00  0.00    -0.399 OA
ATOM     18  H   UNL d   1      30.277 -15.254  -6.007  0.00  0.00     0.209 HD
ENDBRANCH  16  17
ENDBRANCH  15  16
ENDBRANCH  13  15
ENDBRANCH  12  13
ENDBRANCH   5   7
ENDBRANCH   4   5
ENDBRANCH   3   4
ENDBRANCH   2   3
BRANCH   2  19
ATOM     19  C   UNL d   1      27.114 -14.724  -4.044  0.00  0.00     0.029 C 
ATOM     20  C   UNL d   1      26.906 -13.469  -4.497  0.00  0.00     0.003 C 
ATOM     21  C   UNL d   1      27.472 -12.618  -5.499  0.00  0.00     0.014 C 
ATOM     22  C   UNL d   1      25.779 -12.946  -3.713  0.00  0.00     0.040 C 
ATOM     23  C   UNL d   1      27.294 -11.300  -5.447  0.00  0.00     0.001 C 
ATOM     24  C   UNL d   1      26.307 -10.734  -4.569  0.00  0.00     0.002 C 
ATOM     25  C   UNL d   1      25.531 -11.481  -3.757  0.00  0.00     0.030 C 
ATOM     26  N   UNL d   1      25.199 -13.869  -3.054  0.00  0.00    -0.376 N 
ATOM     27  C   UNL d   1      25.905 -15.203  -3.220  0.00  0.00     0.153 C 
ATOM     28  H   UNL d   1      24.433 -13.685  -2.404  0.00  0.00     0.160 HD
BRANCH  27  29
ATOM     29  C   UNL d   1      25.455 -16.059  -2.028  0.00  0.00    -0.031 C 
ATOM     30  C   UNL d   1      26.550 -16.492  -1.194  0.00  0.00     0.009 C 
ATOM     31  C   UNL d   1      26.433 -17.459  -0.192  0.00  0.00     0.001 C 
ATOM     32  C   UNL d   1      25.178 -17.942   0.119  0.00  0.00     0.000 C 
ATOM     33  C   UNL d   1      24.066 -17.445  -0.574  0.00  0.00     0.001 C 
ATOM     34  C   UNL d   1      24.196 -16.516  -1.644  0.00  0.00     0.009 C 
ENDBRANCH  27  29
ENDBRANCH   2  19
TORSDOF 10
ENDMDL
MODEL 9
REMARK VINA RESULT:    -6.958      2.185      7.089
REMARK INTER + INTRA:         -14.680
REMARK INTER:                  -9.941
REMARK INTRA:                  -4.739
REMARK CONF_INDEPENDENT:        2.983
REMARK UNBOUND:                -4.739
REMARK  10 active torsions:
REMARK  status: ('A' for Active; 'I' for Inactive)
REMARK    1  A    between atoms: C_2  and  C_3 
REMARK    2  A    between atoms: C_2  and  C_17 
REMARK    3  A    between atoms: C_3  and  O_4 
REMARK    4  A    between atoms: O_4  and  C_5 
REMARK    5  A    between atoms: C_5  and  C_7 
REMARK    6  A    between atoms: C_12  and  N_13 
REMARK    7  A    between atoms: N_13  and  C_14 
REMARK    8  A    between atoms: C_14  and  C_15 
REMARK    9  A    between atoms: C_15  and  O_16 
REMARK   10  A    between atoms: C_25  and  C_26 
ROOT
ATOM      1  O   UNL d   1      28.733 -16.307  -2.920  0.00  0.00    -0.290 OA
ATOM      2  C   UNL d   1      28.207 -15.502  -3.687  0.00  0.00     0.182 C 
ENDROOT
BRANCH   2   3
ATOM      3  C   UNL d   1      27.032 -14.528  -3.236  0.00  0.00     0.262 C 
BRANCH   3   4
ATOM      4  O   UNL d   1      26.258 -14.778  -2.060  0.00  0.00    -0.310 OA
BRANCH   4   5
ATOM      5  C   UNL d   1      24.954 -15.163  -2.294  0.00  0.00     0.296 C 
ATOM      6  O   UNL d   1      24.181 -14.608  -3.030  0.00  0.00    -0.259 OA
BRANCH   5   7
ATOM      7  C   UNL d   1      24.614 -16.360  -1.457  0.00  0.00     0.065 A 
ATOM      8  C   UNL d   1      23.232 -16.557  -1.262  0.00  0.00     0.020 A 
ATOM      9  C   UNL d   1      22.768 -17.553  -0.400  0.00  0.00     0.001 A 
ATOM     10  C   UNL d   1      23.674 -18.404   0.219  0.00  0.00     0.002 A 
ATOM     11  C   UNL d   1      25.045 -18.223   0.024  0.00  0.00     0.030 A 
ATOM     12  C   UNL d   1      25.562 -17.199  -0.799  0.00  0.00     0.044 A 
BRANCH  12  13
ATOM     13  N   UNL d   1      26.967 -17.035  -0.717  0.00  0.00    -0.387 N 
ATOM     14  H   UNL d   1      27.358 -16.494  -1.483  0.00  0.00     0.159 HD
BRANCH  13  15
ATOM     15  C   UNL d   1      27.536 -16.747   0.572  0.00  0.00     0.146 C 
BRANCH  15  16
ATOM     16  C   UNL d   1      28.483 -15.578   0.699  0.00  0.00     0.183 C 
BRANCH  16  17
ATOM     17  O   UNL d   1      28.441 -14.810  -0.519  0.00  0.00    -0.399 OA
ATOM     18  H   UNL d   1      28.109 -15.451  -1.176  0.00  0.00     0.209 HD
ENDBRANCH  16  17
ENDBRANCH  15  16
ENDBRANCH  13  15
ENDBRANCH  12  13
ENDBRANCH   5   7
ENDBRANCH   4   5
ENDBRANCH   3   4
ENDBRANCH   2   3
BRANCH   2  19
ATOM     19  C   UNL d   1      28.859 -15.340  -5.029  0.00  0.00     0.029 C 
ATOM     20  C   UNL d   1      29.657 -16.330  -5.482  0.00  0.00     0.003 C 
ATOM     21  C   UNL d   1      30.152 -17.577  -4.983  0.00  0.00     0.014 C 
ATOM     22  C   UNL d   1      30.036 -15.942  -6.847  0.00  0.00     0.040 C 
ATOM     23  C   UNL d   1      31.222 -18.148  -5.530  0.00  0.00     0.001 C 
ATOM     24  C   UNL d   1      31.725 -17.688  -6.795  0.00  0.00     0.002 C 
ATOM     25  C   UNL d   1      31.167 -16.669  -7.481  0.00  0.00     0.030 C 
ATOM     26  N   UNL d   1      29.333 -14.966  -7.268  0.00  0.00    -0.376 N 
ATOM     27  C   UNL d   1      28.382 -14.459  -6.198  0.00  0.00     0.153 C 
ATOM     28  H   UNL d   1      29.494 -14.519  -8.171  0.00  0.00     0.160 HD
BRANCH  27  29
ATOM     29  C   UNL d   1      28.002 -13.035  -6.626  0.00  0.00    -0.031 C 
ATOM     30  C   UNL d   1      27.026 -12.421  -5.757  0.00  0.00     0.009 C 
ATOM     31  C   UNL d   1      26.353 -11.234  -6.056  0.00  0.00     0.001 C 
ATOM     32  C   UNL d   1      26.727 -10.525  -7.180  0.00  0.00     0.000 C 
ATOM     33  C   UNL d   1      27.767 -11.015  -7.980  0.00  0.00     0.001 C 
ATOM     34  C   UNL d   1      28.401 -12.262  -7.715  0.00  0.00     0.009 C 
ENDBRANCH  27  29
ENDBRANCH   2  19
TORSDOF 10
ENDMDL
