MODEL 1
REMARK VINA RESULT:    -8.306      0.000      0.000
REMARK INTER + INTRA:         -11.621
REMARK INTER:                  -9.798
REMARK INTRA:                  -1.823
REMARK CONF_INDEPENDENT:        1.492
REMARK UNBOUND:                -1.823
REMARK  5 active torsions:
REMARK  status: ('A' for Active; 'I' for Inactive)
REMARK    1  A    between atoms: C_10  and  C_11 
REMARK       I    between atoms: C_11  and  N_13 
REMARK    2  A    between atoms: N_13  and  C_14 
REMARK    3  A    between atoms: C_14  and  C_15 
REMARK    4  A    between atoms: C_15  and  N_16 
REMARK    5  A    between atoms: C_20  and  N_21 
ROOT
ATOM      1  N   UNL d   1      28.679 -14.714  -4.633  0.00  0.00    -0.250 N 
ATOM      2  N   UNL d   1      29.257 -15.694  -3.915  0.00  0.00    -0.182 NA
ATOM      3  C   UNL d   1      28.258 -16.198  -3.212  0.00  0.00     0.158 A 
ATOM      4  C   UNL d   1      27.023 -15.557  -3.435  0.00  0.00     0.076 A 
ATOM      5  C   UNL d   1      25.699 -15.688  -2.946  0.00  0.00     0.142 A 
ATOM      6  N   UNL d   1      24.787 -14.823  -3.471  0.00  0.00    -0.224 NA
ATOM      7  C   UNL d   1      25.206 -13.894  -4.373  0.00  0.00     0.237 A 
ATOM      8  N   UNL d   1      26.447 -13.697  -4.889  0.00  0.00    -0.222 NA
ATOM      9  C   UNL d   1      27.326 -14.578  -4.374  0.00  0.00     0.163 A 
ENDROOT
BRANCH   1  10
ATOM     10  C   UNL d   1      29.536 -14.000  -5.565  0.00  0.00     0.172 C 
BRANCH  10  11
ATOM     11  C   UNL d   1      29.950 -14.852  -6.797  0.00  0.00     0.145 C 
BRANCH  11  12
ATOM     12  N   UNL d   1      30.030 -16.283  -6.534  0.00  0.00    -0.355 N 
ATOM     13  C   UNL d   1      30.936 -17.109  -7.178  0.00  0.00     0.254 C 
ATOM     14  O   UNL d   1      31.720 -16.649  -8.014  0.00  0.00    -0.268 OA
ATOM     15  H   UNL d   1      29.402 -16.663  -5.855  0.00  0.00     0.162 HD
BRANCH  13  16
ATOM     16  C   UNL d   1      30.926 -18.550  -6.836  0.00  0.00     0.066 A 
ATOM     17  C   UNL d   1      31.008 -19.097  -5.495  0.00  0.00     0.008 A 
ATOM     18  C   UNL d   1      31.091 -18.522  -4.207  0.00  0.00     0.015 A 
ATOM     19  C   UNL d   1      30.998 -20.489  -5.580  0.00  0.00     0.043 A 
ATOM     20  C   UNL d   1      31.155 -19.337  -3.070  0.00  0.00     0.001 A 
ATOM     21  C   UNL d   1      31.158 -20.722  -3.194  0.00  0.00     0.002 A 
ATOM     22  C   UNL d   1      31.085 -21.327  -4.455  0.00  0.00     0.030 A 
ATOM     23  N   UNL d   1      30.889 -20.797  -6.914  0.00  0.00    -0.358 N 
ATOM     24  C   UNL d   1      30.842 -19.655  -7.685  0.00  0.00     0.022 A 
ATOM     25  H   UNL d   1      30.843 -21.743  -7.270  0.00  0.00     0.166 HD
ATOM     26  C   UNL d   1      30.728 -19.748  -9.161  0.00  0.00     0.069 C 
ENDBRANCH  13  16
ENDBRANCH  11  12
ENDBRANCH  10  11
ENDBRANCH   1  10
BRANCH   5  27
ATOM     27  N   UNL d   1      25.345 -16.529  -1.888  0.00  0.00    -0.360 N 
ATOM     28  C   UNL d   1      24.059 -16.237  -1.241  0.00  0.00     0.156 C 
ATOM     29  C   UNL d   1      23.539 -17.464  -0.516  0.00  0.00     0.136 C 
ATOM     30  O   UNL d   1      24.467 -17.850   0.506  0.00  0.00    -0.378 OA
ATOM     31  C   UNL d   1      23.278 -18.576  -1.528  0.00  0.00     0.041 C 
ATOM     32  C   UNL d   1      25.763 -18.165  -0.048  0.00  0.00     0.136 C 
ATOM     33  C   UNL d   1      26.655 -18.575   1.113  0.00  0.00     0.041 C 
ATOM     34  C   UNL d   1      26.354 -16.992  -0.905  0.00  0.00     0.156 C 
ENDBRANCH   5  27
TORSDOF 5
ENDMDL
MODEL 2
REMARK VINA RESULT:    -8.242      1.038      2.275
REMARK INTER + INTRA:         -11.341
REMARK INTER:                  -9.734
REMARK INTRA:                  -1.607
REMARK CONF_INDEPENDENT:        1.492
REMARK UNBOUND:                -1.607
REMARK  5 active torsions:
REMARK  status: ('A' for Active; 'I' for Inactive)
REMARK    1  A    between atoms: C_10  and  C_11 
REMARK       I    between atoms: C_11  and  N_13 
REMARK    2  A    between atoms: N_13  and  C_14 
REMARK    3  A    between atoms: C_14  and  C_15 
REMARK    4  A    between atoms: C_15  and  N_16 
REMARK    5  A    between atoms: C_20  and  N_21 
ROOT
ATOM      1  N   UNL d   1      28.209 -14.357  -4.646  0.00  0.00    -0.250 N 
ATOM      2  N   UNL d   1      28.859 -15.367  -4.040  0.00  0.00    -0.182 NA
ATOM      3  C   UNL d   1      27.923 -15.950  -3.312  0.00  0.00     0.158 A 
ATOM      4  C   UNL d   1      26.660 -15.334  -3.407  0.00  0.00     0.076 A 
ATOM      5  C   UNL d   1      25.375 -15.540  -2.844  0.00  0.00     0.142 A 
ATOM      6  N   UNL d   1      24.408 -14.668  -3.244  0.00  0.00    -0.224 NA
ATOM      7  C   UNL d   1      24.741 -13.666  -4.101  0.00  0.00     0.237 A 
ATOM      8  N   UNL d   1      25.939 -13.394  -4.681  0.00  0.00    -0.222 NA
ATOM      9  C   UNL d   1      26.873 -14.282  -4.290  0.00  0.00     0.163 A 
ENDROOT
BRANCH   1  10
ATOM     10  C   UNL d   1      28.982 -13.552  -5.577  0.00  0.00     0.172 C 
BRANCH  10  11
ATOM     11  C   UNL d   1      29.474 -14.349  -6.817  0.00  0.00     0.145 C 
BRANCH  11  12
ATOM     12  N   UNL d   1      29.721 -15.762  -6.560  0.00  0.00    -0.355 N 
ATOM     13  C   UNL d   1      30.764 -16.456  -7.151  0.00  0.00     0.254 C 
ATOM     14  O   UNL d   1      31.533 -15.886  -7.932  0.00  0.00    -0.268 OA
ATOM     15  H   UNL d   1      29.106 -16.229  -5.925  0.00  0.00     0.162 HD
BRANCH  13  16
ATOM     16  C   UNL d   1      30.919 -17.891  -6.821  0.00  0.00     0.066 A 
ATOM     17  C   UNL d   1      31.279 -18.937  -7.759  0.00  0.00     0.008 A 
ATOM     18  C   UNL d   1      31.592 -18.950  -9.137  0.00  0.00     0.015 A 
ATOM     19  C   UNL d   1      31.297 -20.156  -7.081  0.00  0.00     0.043 A 
ATOM     20  C   UNL d   1      31.911 -20.152  -9.779  0.00  0.00     0.001 A 
ATOM     21  C   UNL d   1      31.905 -21.351  -9.075  0.00  0.00     0.002 A 
ATOM     22  C   UNL d   1      31.593 -21.378  -7.710  0.00  0.00     0.030 A 
ATOM     23  N   UNL d   1      30.989 -19.879  -5.772  0.00  0.00    -0.358 N 
ATOM     24  C   UNL d   1      30.760 -18.532  -5.590  0.00  0.00     0.022 A 
ATOM     25  H   UNL d   1      30.944 -20.582  -5.045  0.00  0.00     0.166 HD
ATOM     26  C   UNL d   1      30.405 -18.003  -4.251  0.00  0.00     0.069 C 
ENDBRANCH  13  16
ENDBRANCH  11  12
ENDBRANCH  10  11
ENDBRANCH   1  10
BRANCH   5  27
ATOM     27  N   UNL d   1      25.115 -16.464  -1.830  0.00  0.00    -0.360 N 
ATOM     28  C   UNL d   1      23.824 -16.317  -1.145  0.00  0.00     0.156 C 
ATOM     29  C   UNL d   1      23.423 -17.621  -0.481  0.00  0.00     0.136 C 
ATOM     30  O   UNL d   1      24.402 -17.983   0.501  0.00  0.00    -0.378 OA
ATOM     31  C   UNL d   1      23.233 -18.694  -1.550  0.00  0.00     0.041 C 
ATOM     32  C   UNL d   1      25.707 -18.158  -0.091  0.00  0.00     0.136 C 
ATOM     33  C   UNL d   1      26.655 -18.554   1.029  0.00  0.00     0.041 C 
ATOM     34  C   UNL d   1      26.180 -16.894  -0.891  0.00  0.00     0.156 C 
ENDBRANCH   5  27
TORSDOF 5
ENDMDL
MODEL 3
REMARK VINA RESULT:    -7.964      5.400      7.902
REMARK INTER + INTRA:         -11.054
REMARK INTER:                  -9.455
REMARK INTRA:                  -1.599
REMARK CONF_INDEPENDENT:        1.492
REMARK UNBOUND:                -1.599
REMARK  5 active torsions:
REMARK  status: ('A' for Active; 'I' for Inactive)
REMARK    1  A    between atoms: C_10  and  C_11 
REMARK       I    between atoms: C_11  and  N_13 
REMARK    2  A    between atoms: N_13  and  C_14 
REMARK    3  A    between atoms: C_14  and  C_15 
REMARK    4  A    between atoms: C_15  and  N_16 
REMARK    5  A    between atoms: C_20  and  N_21 
ROOT
ATOM      1  N   UNL d   1      27.543 -11.711  -0.292  0.00  0.00    -0.250 N 
ATOM      2  N   UNL d   1      28.111 -12.912  -0.086  0.00  0.00    -0.182 NA
ATOM      3  C   UNL d   1      28.120 -13.034   1.230  0.00  0.00     0.158 A 
ATOM      4  C   UNL d   1      27.583 -11.922   1.909  0.00  0.00     0.076 A 
ATOM      5  C   UNL d   1      27.380 -11.549   3.261  0.00  0.00     0.142 A 
ATOM      6  N   UNL d   1      26.796 -10.334   3.458  0.00  0.00    -0.224 NA
ATOM      7  C   UNL d   1      26.493  -9.569   2.375  0.00  0.00     0.237 A 
ATOM      8  N   UNL d   1      26.656  -9.844   1.055  0.00  0.00    -0.222 NA
ATOM      9  C   UNL d   1      27.213 -11.059   0.885  0.00  0.00     0.163 A 
ENDROOT
BRANCH   1  10
ATOM     10  C   UNL d   1      27.341 -11.316  -1.675  0.00  0.00     0.172 C 
BRANCH  10  11
ATOM     11  C   UNL d   1      26.575 -12.378  -2.512  0.00  0.00     0.145 C 
BRANCH  11  12
ATOM     12  N   UNL d   1      26.498 -13.691  -1.885  0.00  0.00    -0.355 N 
ATOM     13  C   UNL d   1      25.621 -14.673  -2.317  0.00  0.00     0.254 C 
ATOM     14  O   UNL d   1      24.860 -14.460  -3.267  0.00  0.00    -0.268 OA
ATOM     15  H   UNL d   1      27.114 -13.873  -1.119  0.00  0.00     0.162 HD
BRANCH  13  16
ATOM     16  C   UNL d   1      25.625 -15.970  -1.603  0.00  0.00     0.066 A 
ATOM     17  C   UNL d   1      24.452 -16.654  -1.094  0.00  0.00     0.008 A 
ATOM     18  C   UNL d   1      23.067 -16.372  -1.119  0.00  0.00     0.015 A 
ATOM     19  C   UNL d   1      24.860 -17.828  -0.460  0.00  0.00     0.043 A 
ATOM     20  C   UNL d   1      22.154 -17.255  -0.528  0.00  0.00     0.001 A 
ATOM     21  C   UNL d   1      22.599 -18.408   0.108  0.00  0.00     0.002 A 
ATOM     22  C   UNL d   1      23.964 -18.716   0.159  0.00  0.00     0.030 A 
ATOM     23  N   UNL d   1      26.226 -17.886  -0.591  0.00  0.00    -0.358 N 
ATOM     24  C   UNL d   1      26.707 -16.788  -1.272  0.00  0.00     0.022 A 
ATOM     25  H   UNL d   1      26.792 -18.645  -0.234  0.00  0.00     0.166 HD
ATOM     26  C   UNL d   1      28.160 -16.638  -1.526  0.00  0.00     0.069 C 
ENDBRANCH  13  16
ENDBRANCH  11  12
ENDBRANCH  10  11
ENDBRANCH   1  10
BRANCH   5  27
ATOM     27  N   UNL d   1      27.871 -12.279   4.347  0.00  0.00    -0.360 N 
ATOM     28  C   UNL d   1      27.465 -13.689   4.405  0.00  0.00     0.156 C 
ATOM     29  C   UNL d   1      28.434 -14.485   5.259  0.00  0.00     0.136 C 
ATOM     30  O   UNL d   1      28.431 -13.972   6.598  0.00  0.00    -0.378 OA
ATOM     31  C   UNL d   1      29.818 -14.452   4.617  0.00  0.00     0.041 C 
ATOM     32  C   UNL d   1      28.829 -12.584   6.634  0.00  0.00     0.136 C 
ATOM     33  C   UNL d   1      28.807 -12.152   8.091  0.00  0.00     0.041 C 
ATOM     34  C   UNL d   1      27.947 -11.681   5.702  0.00  0.00     0.156 C 
ENDBRANCH   5  27
TORSDOF 5
ENDMDL
MODEL 4
REMARK VINA RESULT:    -7.882      5.680      9.163
REMARK INTER + INTRA:         -11.256
REMARK INTER:                  -9.374
REMARK INTRA:                  -1.882
REMARK CONF_INDEPENDENT:        1.492
REMARK UNBOUND:                -1.882
REMARK  5 active torsions:
REMARK  status: ('A' for Active; 'I' for Inactive)
REMARK    1  A    between atoms: C_10  and  C_11 
REMARK       I    between atoms: C_11  and  N_13 
REMARK    2  A    between atoms: N_13  and  C_14 
REMARK    3  A    between atoms: C_14  and  C_15 
REMARK    4  A    between atoms: C_15  and  N_16 
REMARK    5  A    between atoms: C_20  and  N_21 
ROOT
ATOM      1  N   UNL d   1      26.936 -11.280  -1.873  0.00  0.00    -0.250 N 
ATOM      2  N   UNL d   1      27.417 -11.758  -0.711  0.00  0.00    -0.182 NA
ATOM      3  C   UNL d   1      27.075 -13.034  -0.732  0.00  0.00     0.158 A 
ATOM      4  C   UNL d   1      26.355 -13.414  -1.882  0.00  0.00     0.076 A 
ATOM      5  C   UNL d   1      25.763 -14.605  -2.372  0.00  0.00     0.142 A 
ATOM      6  N   UNL d   1      25.151 -14.505  -3.585  0.00  0.00    -0.224 NA
ATOM      7  C   UNL d   1      25.118 -13.295  -4.206  0.00  0.00     0.237 A 
ATOM      8  N   UNL d   1      25.652 -12.110  -3.808  0.00  0.00    -0.222 NA
ATOM      9  C   UNL d   1      26.271 -12.239  -2.619  0.00  0.00     0.163 A 
ENDROOT
BRANCH   1  10
ATOM     10  C   UNL d   1      27.212  -9.884  -2.166  0.00  0.00     0.172 C 
BRANCH  10  11
ATOM     11  C   UNL d   1      26.753  -8.917  -1.039  0.00  0.00     0.145 C 
BRANCH  11  12
ATOM     12  N   UNL d   1      27.162  -9.322   0.300  0.00  0.00    -0.355 N 
ATOM     13  C   UNL d   1      26.504  -8.894   1.441  0.00  0.00     0.254 C 
ATOM     14  O   UNL d   1      25.530  -8.139   1.357  0.00  0.00    -0.268 OA
ATOM     15  H   UNL d   1      27.946  -9.937   0.376  0.00  0.00     0.162 HD
BRANCH  13  16
ATOM     16  C   UNL d   1      27.008  -9.365   2.751  0.00  0.00     0.066 A 
ATOM     17  C   UNL d   1      27.213 -10.751   3.125  0.00  0.00     0.008 A 
ATOM     18  C   UNL d   1      27.048 -11.981   2.449  0.00  0.00     0.015 A 
ATOM     19  C   UNL d   1      27.670 -10.795   4.442  0.00  0.00     0.043 A 
ATOM     20  C   UNL d   1      27.342 -13.189   3.095  0.00  0.00     0.001 A 
ATOM     21  C   UNL d   1      27.780 -13.194   4.414  0.00  0.00     0.002 A 
ATOM     22  C   UNL d   1      27.949 -11.996   5.117  0.00  0.00     0.030 A 
ATOM     23  N   UNL d   1      27.770  -9.491   4.863  0.00  0.00    -0.358 N 
ATOM     24  C   UNL d   1      27.382  -8.618   3.869  0.00  0.00     0.022 A 
ATOM     25  H   UNL d   1      28.093  -9.222   5.783  0.00  0.00     0.166 HD
ATOM     26  C   UNL d   1      27.405  -7.154   4.104  0.00  0.00     0.069 C 
ENDBRANCH  13  16
ENDBRANCH  11  12
ENDBRANCH  10  11
ENDBRANCH   1  10
BRANCH   5  27
ATOM     27  N   UNL d   1      25.658 -15.781  -1.625  0.00  0.00    -0.360 N 
ATOM     28  C   UNL d   1      26.800 -16.700  -1.714  0.00  0.00     0.156 C 
ATOM     29  C   UNL d   1      26.832 -17.626  -0.513  0.00  0.00     0.136 C 
ATOM     30  O   UNL d   1      25.635 -18.415  -0.481  0.00  0.00    -0.378 OA
ATOM     31  C   UNL d   1      27.030 -16.801   0.755  0.00  0.00     0.041 C 
ATOM     32  C   UNL d   1      24.457 -17.586  -0.384  0.00  0.00     0.136 C 
ATOM     33  C   UNL d   1      23.258 -18.519  -0.339  0.00  0.00     0.041 C 
ATOM     34  C   UNL d   1      24.375 -16.519  -1.531  0.00  0.00     0.156 C 
ENDBRANCH   5  27
TORSDOF 5
ENDMDL
MODEL 5
REMARK VINA RESULT:    -7.766      1.657      2.956
REMARK INTER + INTRA:         -11.189
REMARK INTER:                  -9.258
REMARK INTRA:                  -1.931
REMARK CONF_INDEPENDENT:        1.492
REMARK UNBOUND:                -1.931
REMARK  5 active torsions:
REMARK  status: ('A' for Active; 'I' for Inactive)
REMARK    1  A    between atoms: C_10  and  C_11 
REMARK       I    between atoms: C_11  and  N_13 
REMARK    2  A    between atoms: N_13  and  C_14 
REMARK    3  A    between atoms: C_14  and  C_15 
REMARK    4  A    between atoms: C_15  and  N_16 
REMARK    5  A    between atoms: C_20  and  N_21 
ROOT
ATOM      1  N   UNL d   1      27.226 -13.863  -5.320  0.00  0.00    -0.250 N 
ATOM      2  N   UNL d   1      26.803 -15.096  -5.652  0.00  0.00    -0.182 NA
ATOM      3  C   UNL d   1      26.310 -15.573  -4.523  0.00  0.00     0.158 A 
ATOM      4  C   UNL d   1      26.413 -14.684  -3.435  0.00  0.00     0.076 A 
ATOM      5  C   UNL d   1      26.069 -14.706  -2.060  0.00  0.00     0.142 A 
ATOM      6  N   UNL d   1      26.360 -13.574  -1.360  0.00  0.00    -0.224 NA
ATOM      7  C   UNL d   1      26.976 -12.545  -2.002  0.00  0.00     0.237 A 
ATOM      8  N   UNL d   1      27.343 -12.443  -3.307  0.00  0.00    -0.222 NA
ATOM      9  C   UNL d   1      27.025 -13.563  -3.983  0.00  0.00     0.163 A 
ENDROOT
BRANCH   1  10
ATOM     10  C   UNL d   1      27.778 -13.054  -6.393  0.00  0.00     0.172 C 
BRANCH  10  11
ATOM     11  C   UNL d   1      28.906 -13.770  -7.185  0.00  0.00     0.145 C 
BRANCH  11  12
ATOM     12  N   UNL d   1      29.131 -15.154  -6.786  0.00  0.00    -0.355 N 
ATOM     13  C   UNL d   1      30.301 -15.573  -6.174  0.00  0.00     0.254 C 
ATOM     14  O   UNL d   1      31.210 -14.769  -5.943  0.00  0.00    -0.268 OA
ATOM     15  H   UNL d   1      28.398 -15.810  -6.965  0.00  0.00     0.162 HD
BRANCH  13  16
ATOM     16  C   UNL d   1      30.422 -17.004  -5.815  0.00  0.00     0.066 A 
ATOM     17  C   UNL d   1      30.809 -18.069  -6.721  0.00  0.00     0.008 A 
ATOM     18  C   UNL d   1      31.181 -18.107  -8.084  0.00  0.00     0.015 A 
ATOM     19  C   UNL d   1      30.782 -19.278  -6.025  0.00  0.00     0.043 A 
ATOM     20  C   UNL d   1      31.512 -19.323  -8.693  0.00  0.00     0.001 A 
ATOM     21  C   UNL d   1      31.460 -20.511  -7.972  0.00  0.00     0.002 A 
ATOM     22  C   UNL d   1      31.088 -20.513  -6.623  0.00  0.00     0.030 A 
ATOM     23  N   UNL d   1      30.420 -18.977  -4.735  0.00  0.00    -0.358 N 
ATOM     24  C   UNL d   1      30.202 -17.624  -4.584  0.00  0.00     0.022 A 
ATOM     25  H   UNL d   1      30.335 -19.667  -4.000  0.00  0.00     0.166 HD
ATOM     26  C   UNL d   1      29.796 -17.070  -3.269  0.00  0.00     0.069 C 
ENDBRANCH  13  16
ENDBRANCH  11  12
ENDBRANCH  10  11
ENDBRANCH   1  10
BRANCH   5  27
ATOM     27  N   UNL d   1      25.606 -15.845  -1.396  0.00  0.00    -0.360 N 
ATOM     28  C   UNL d   1      26.379 -17.074  -1.619  0.00  0.00     0.156 C 
ATOM     29  C   UNL d   1      26.140 -18.062  -0.493  0.00  0.00     0.136 C 
ATOM     30  O   UNL d   1      24.752 -18.418  -0.449  0.00  0.00    -0.378 OA
ATOM     31  C   UNL d   1      26.637 -17.462   0.820  0.00  0.00     0.041 C 
ATOM     32  C   UNL d   1      23.916 -17.263  -0.224  0.00  0.00     0.136 C 
ATOM     33  C   UNL d   1      22.478 -17.755  -0.179  0.00  0.00     0.041 C 
ATOM     34  C   UNL d   1      24.155 -16.131  -1.283  0.00  0.00     0.156 C 
ENDBRANCH   5  27
TORSDOF 5
ENDMDL
MODEL 6
REMARK VINA RESULT:    -7.627      2.026      7.173
REMARK INTER + INTRA:         -10.879
REMARK INTER:                  -9.119
REMARK INTRA:                  -1.761
REMARK CONF_INDEPENDENT:        1.492
REMARK UNBOUND:                -1.761
REMARK  5 active torsions:
REMARK  status: ('A' for Active; 'I' for Inactive)
REMARK    1  A    between atoms: C_10  and  C_11 
REMARK       I    between atoms: C_11  and  N_13 
REMARK    2  A    between atoms: N_13  and  C_14 
REMARK    3  A    between atoms: C_14  and  C_15 
REMARK    4  A    between atoms: C_15  and  N_16 
REMARK    5  A    between atoms: C_20  and  N_21 
ROOT
ATOM      1  N   UNL d   1      27.298 -13.287  -4.925  0.00  0.00    -0.250 N 
ATOM      2  N   UNL d   1      26.717 -14.244  -5.671  0.00  0.00    -0.182 NA
ATOM      3  C   UNL d   1      27.630 -15.197  -5.723  0.00  0.00     0.158 A 
ATOM      4  C   UNL d   1      28.822 -14.885  -5.040  0.00  0.00     0.076 A 
ATOM      5  C   UNL d   1      30.067 -15.521  -4.809  0.00  0.00     0.142 A 
ATOM      6  N   UNL d   1      30.958 -14.821  -4.054  0.00  0.00    -0.224 NA
ATOM      7  C   UNL d   1      30.616 -13.578  -3.618  0.00  0.00     0.237 A 
ATOM      8  N   UNL d   1      29.455 -12.895  -3.795  0.00  0.00    -0.222 NA
ATOM      9  C   UNL d   1      28.581 -13.617  -4.524  0.00  0.00     0.163 A 
ENDROOT
BRANCH   1  10
ATOM     10  C   UNL d   1      26.495 -12.109  -4.640  0.00  0.00     0.172 C 
BRANCH  10  11
ATOM     11  C   UNL d   1      26.012 -12.038  -3.164  0.00  0.00     0.145 C 
BRANCH  11  12
ATOM     12  N   UNL d   1      26.171 -13.282  -2.422  0.00  0.00    -0.355 N 
ATOM     13  C   UNL d   1      25.483 -14.439  -2.751  0.00  0.00     0.254 C 
ATOM     14  O   UNL d   1      24.696 -14.451  -3.703  0.00  0.00    -0.268 OA
ATOM     15  H   UNL d   1      26.810 -13.281  -1.654  0.00  0.00     0.162 HD
BRANCH  13  16
ATOM     16  C   UNL d   1      25.719 -15.645  -1.925  0.00  0.00     0.066 A 
ATOM     17  C   UNL d   1      24.690 -16.438  -1.280  0.00  0.00     0.008 A 
ATOM     18  C   UNL d   1      23.279 -16.363  -1.239  0.00  0.00     0.015 A 
ATOM     19  C   UNL d   1      25.303 -17.472  -0.572  0.00  0.00     0.043 A 
ATOM     20  C   UNL d   1      22.542 -17.305  -0.512  0.00  0.00     0.001 A 
ATOM     21  C   UNL d   1      23.187 -18.313   0.195  0.00  0.00     0.002 A 
ATOM     22  C   UNL d   1      24.583 -18.414   0.183  0.00  0.00     0.030 A 
ATOM     23  N   UNL d   1      26.653 -17.345  -0.787  0.00  0.00    -0.358 N 
ATOM     24  C   UNL d   1      26.927 -16.261  -1.594  0.00  0.00     0.022 A 
ATOM     25  H   UNL d   1      27.345 -17.975  -0.401  0.00  0.00     0.166 HD
ATOM     26  C   UNL d   1      28.326 -15.929  -1.956  0.00  0.00     0.069 C 
ENDBRANCH  13  16
ENDBRANCH  11  12
ENDBRANCH  10  11
ENDBRANCH   1  10
BRANCH   5  27
ATOM     27  N   UNL d   1      30.450 -16.716  -5.424  0.00  0.00    -0.360 N 
ATOM     28  C   UNL d   1      30.407 -16.722  -6.892  0.00  0.00     0.156 C 
ATOM     29  C   UNL d   1      31.312 -17.807  -7.446  0.00  0.00     0.136 C 
ATOM     30  O   UNL d   1      30.862 -19.089  -6.988  0.00  0.00    -0.378 OA
ATOM     31  C   UNL d   1      32.755 -17.512  -7.050  0.00  0.00     0.041 C 
ATOM     32  C   UNL d   1      30.881 -19.173  -5.546  0.00  0.00     0.136 C 
ATOM     33  C   UNL d   1      30.406 -20.569  -5.175  0.00  0.00     0.041 C 
ATOM     34  C   UNL d   1      30.051 -18.030  -4.865  0.00  0.00     0.156 C 
ENDBRANCH   5  27
TORSDOF 5
ENDMDL
MODEL 7
REMARK VINA RESULT:    -7.404      2.174      3.384
REMARK INTER + INTRA:         -11.253
REMARK INTER:                  -8.896
REMARK INTRA:                  -2.357
REMARK CONF_INDEPENDENT:        1.492
REMARK UNBOUND:                -2.357
REMARK  5 active torsions:
REMARK  status: ('A' for Active; 'I' for Inactive)
REMARK    1  A    between atoms: C_10  and  C_11 
REMARK       I    between atoms: C_11  and  N_13 
REMARK    2  A    between atoms: N_13  and  C_14 
REMARK    3  A    between atoms: C_14  and  C_15 
REMARK    4  A    between atoms: C_15  and  N_16 
REMARK    5  A    between atoms: C_20  and  N_21 
ROOT
ATOM      1  N   UNL d   1      26.311 -13.356  -4.252  0.00  0.00    -0.250 N 
ATOM      2  N   UNL d   1      25.668 -14.425  -4.755  0.00  0.00    -0.182 NA
ATOM      3  C   UNL d   1      25.420 -15.170  -3.692  0.00  0.00     0.158 A 
ATOM      4  C   UNL d   1      25.904 -14.624  -2.486  0.00  0.00     0.076 A 
ATOM      5  C   UNL d   1      25.918 -15.007  -1.122  0.00  0.00     0.142 A 
ATOM      6  N   UNL d   1      26.514 -14.129  -0.268  0.00  0.00    -0.224 NA
ATOM      7  C   UNL d   1      27.072 -12.996  -0.774  0.00  0.00     0.237 A 
ATOM      8  N   UNL d   1      27.107 -12.556  -2.059  0.00  0.00    -0.222 NA
ATOM      9  C   UNL d   1      26.492 -13.428  -2.881  0.00  0.00     0.163 A 
ENDROOT
BRANCH   1  10
ATOM     10  C   UNL d   1      26.671 -12.311  -5.195  0.00  0.00     0.172 C 
BRANCH  10  11
ATOM     11  C   UNL d   1      28.088 -12.496  -5.805  0.00  0.00     0.145 C 
BRANCH  11  12
ATOM     12  N   UNL d   1      28.845 -13.603  -5.235  0.00  0.00    -0.355 N 
ATOM     13  C   UNL d   1      28.648 -14.918  -5.622  0.00  0.00     0.254 C 
ATOM     14  O   UNL d   1      27.805 -15.200  -6.479  0.00  0.00    -0.268 OA
ATOM     15  H   UNL d   1      29.534 -13.383  -4.544  0.00  0.00     0.162 HD
BRANCH  13  16
ATOM     16  C   UNL d   1      29.472 -15.964  -4.973  0.00  0.00     0.066 A 
ATOM     17  C   UNL d   1      29.559 -16.200  -3.544  0.00  0.00     0.008 A 
ATOM     18  C   UNL d   1      28.948 -15.608  -2.416  0.00  0.00     0.015 A 
ATOM     19  C   UNL d   1      30.453 -17.246  -3.320  0.00  0.00     0.043 A 
ATOM     20  C   UNL d   1      29.240 -16.073  -1.128  0.00  0.00     0.001 A 
ATOM     21  C   UNL d   1      30.149 -17.109  -0.940  0.00  0.00     0.002 A 
ATOM     22  C   UNL d   1      30.779 -17.714  -2.035  0.00  0.00     0.030 A 
ATOM     23  N   UNL d   1      30.885 -17.662  -4.555  0.00  0.00    -0.358 N 
ATOM     24  C   UNL d   1      30.311 -16.912  -5.559  0.00  0.00     0.022 A 
ATOM     25  H   UNL d   1      31.536 -18.424  -4.696  0.00  0.00     0.166 HD
ATOM     26  C   UNL d   1      30.638 -17.183  -6.981  0.00  0.00     0.069 C 
ENDBRANCH  13  16
ENDBRANCH  11  12
ENDBRANCH  10  11
ENDBRANCH   1  10
BRANCH   5  27
ATOM     27  N   UNL d   1      25.499 -16.259  -0.666  0.00  0.00    -0.360 N 
ATOM     28  C   UNL d   1      26.322 -17.401  -1.085  0.00  0.00     0.156 C 
ATOM     29  C   UNL d   1      26.119 -18.575  -0.145  0.00  0.00     0.136 C 
ATOM     30  O   UNL d   1      24.747 -18.988  -0.178  0.00  0.00    -0.378 OA
ATOM     31  C   UNL d   1      26.585 -18.187   1.255  0.00  0.00     0.041 C 
ATOM     32  C   UNL d   1      23.863 -17.921   0.230  0.00  0.00     0.136 C 
ATOM     33  C   UNL d   1      22.447 -18.471   0.175  0.00  0.00     0.041 C 
ATOM     34  C   UNL d   1      24.060 -16.617  -0.619  0.00  0.00     0.156 C 
ENDBRANCH   5  27
TORSDOF 5
ENDMDL
MODEL 8
REMARK VINA RESULT:    -7.352      3.850      7.896
REMARK INTER + INTRA:         -10.642
REMARK INTER:                  -8.843
REMARK INTRA:                  -1.798
REMARK CONF_INDEPENDENT:        1.492
REMARK UNBOUND:                -1.798
REMARK  5 active torsions:
REMARK  status: ('A' for Active; 'I' for Inactive)
REMARK    1  A    between atoms: C_10  and  C_11 
REMARK       I    between atoms: C_11  and  N_13 
REMARK    2  A    between atoms: N_13  and  C_14 
REMARK    3  A    between atoms: C_14  and  C_15 
REMARK    4  A    between atoms: C_15  and  N_16 
REMARK    5  A    between atoms: C_20  and  N_21 
ROOT
ATOM      1  N   UNL d   1      28.117 -14.358  -5.271  0.00  0.00    -0.250 N 
ATOM      2  N   UNL d   1      28.781 -15.393  -4.726  0.00  0.00    -0.182 NA
ATOM      3  C   UNL d   1      27.910 -15.914  -3.880  0.00  0.00     0.158 A 
ATOM      4  C   UNL d   1      26.678 -15.231  -3.837  0.00  0.00     0.076 A 
ATOM      5  C   UNL d   1      25.461 -15.359  -3.121  0.00  0.00     0.142 A 
ATOM      6  N   UNL d   1      24.500 -14.441  -3.421  0.00  0.00    -0.224 NA
ATOM      7  C   UNL d   1      24.780 -13.471  -4.332  0.00  0.00     0.237 A 
ATOM      8  N   UNL d   1      25.913 -13.273  -5.056  0.00  0.00    -0.222 NA
ATOM      9  C   UNL d   1      26.839 -14.205  -4.760  0.00  0.00     0.163 A 
ENDROOT
BRANCH   1  10
ATOM     10  C   UNL d   1      28.814 -13.610  -6.303  0.00  0.00     0.172 C 
BRANCH  10  11
ATOM     11  C   UNL d   1      29.037 -12.117  -5.936  0.00  0.00     0.145 C 
BRANCH  11  12
ATOM     12  N   UNL d   1      27.821 -11.404  -5.567  0.00  0.00    -0.355 N 
ATOM     13  C   UNL d   1      27.652 -10.048  -5.798  0.00  0.00     0.254 C 
ATOM     14  O   UNL d   1      28.548  -9.387  -6.334  0.00  0.00    -0.268 OA
ATOM     15  H   UNL d   1      27.089 -11.932  -5.137  0.00  0.00     0.162 HD
BRANCH  13  16
ATOM     16  C   UNL d   1      26.376  -9.426  -5.378  0.00  0.00     0.066 A 
ATOM     17  C   UNL d   1      25.616  -8.462  -6.150  0.00  0.00     0.008 A 
ATOM     18  C   UNL d   1      25.790  -7.870  -7.421  0.00  0.00     0.015 A 
ATOM     19  C   UNL d   1      24.491  -8.089  -5.413  0.00  0.00     0.043 A 
ATOM     20  C   UNL d   1      24.855  -6.949  -7.908  0.00  0.00     0.001 A 
ATOM     21  C   UNL d   1      23.753  -6.589  -7.139  0.00  0.00     0.002 A 
ATOM     22  C   UNL d   1      23.552  -7.149  -5.872  0.00  0.00     0.030 A 
ATOM     23  N   UNL d   1      24.534  -8.808  -4.244  0.00  0.00    -0.358 N 
ATOM     24  C   UNL d   1      25.650  -9.617  -4.201  0.00  0.00     0.022 A 
ATOM     25  H   UNL d   1      23.829  -8.748  -3.521  0.00  0.00     0.166 HD
ATOM     26  C   UNL d   1      25.905 -10.483  -3.024  0.00  0.00     0.069 C 
ENDBRANCH  13  16
ENDBRANCH  11  12
ENDBRANCH  10  11
ENDBRANCH   1  10
BRANCH   5  27
ATOM     27  N   UNL d   1      25.276 -16.253  -2.064  0.00  0.00    -0.360 N 
ATOM     28  C   UNL d   1      24.060 -16.055  -1.264  0.00  0.00     0.156 C 
ATOM     29  C   UNL d   1      23.692 -17.333  -0.533  0.00  0.00     0.136 C 
ATOM     30  O   UNL d   1      24.751 -17.699   0.361  0.00  0.00    -0.378 OA
ATOM     31  C   UNL d   1      23.375 -18.424  -1.552  0.00  0.00     0.041 C 
ATOM     32  C   UNL d   1      25.989 -17.923  -0.348  0.00  0.00     0.136 C 
ATOM     33  C   UNL d   1      27.030 -18.319   0.687  0.00  0.00     0.041 C 
ATOM     34  C   UNL d   1      26.415 -16.690  -1.220  0.00  0.00     0.156 C 
ENDBRANCH   5  27
TORSDOF 5
ENDMDL
MODEL 9
REMARK VINA RESULT:    -6.941      2.872      4.561
REMARK INTER + INTRA:         -11.282
REMARK INTER:                  -8.433
REMARK INTRA:                  -2.849
REMARK CONF_INDEPENDENT:        1.492
REMARK UNBOUND:                -2.849
REMARK  5 active torsions:
REMARK  status: ('A' for Active; 'I' for Inactive)
REMARK    1  A    between atoms: C_10  and  C_11 
REMARK       I    between atoms: C_11  and  N_13 
REMARK    2  A    between atoms: N_13  and  C_14 
REMARK    3  A    between atoms: C_14  and  C_15 
REMARK    4  A    between atoms: C_15  and  N_16 
REMARK    5  A    between atoms: C_20  and  N_21 
ROOT
ATOM      1  N   UNL d   1      26.537 -11.250  -2.505  0.00  0.00    -0.250 N 
ATOM      2  N   UNL d   1      27.030 -11.548  -1.290  0.00  0.00    -0.182 NA
ATOM      3  C   UNL d   1      26.825 -12.848  -1.178  0.00  0.00     0.158 A 
ATOM      4  C   UNL d   1      26.184 -13.423  -2.294  0.00  0.00     0.076 A 
ATOM      5  C   UNL d   1      25.737 -14.716  -2.663  0.00  0.00     0.142 A 
ATOM      6  N   UNL d   1      25.155 -14.812  -3.891  0.00  0.00    -0.224 NA
ATOM      7  C   UNL d   1      25.014 -13.685  -4.640  0.00  0.00     0.237 A 
ATOM      8  N   UNL d   1      25.407 -12.414  -4.363  0.00  0.00    -0.222 NA
ATOM      9  C   UNL d   1      26.000 -12.349  -3.156  0.00  0.00     0.163 A 
ENDROOT
BRANCH   1  10
ATOM     10  C   UNL d   1      26.674  -9.871  -2.943  0.00  0.00     0.172 C 
BRANCH  10  11
ATOM     11  C   UNL d   1      27.331  -9.734  -4.344  0.00  0.00     0.145 C 
BRANCH  11  12
ATOM     12  N   UNL d   1      27.578 -11.003  -5.016  0.00  0.00    -0.355 N 
ATOM     13  C   UNL d   1      28.756 -11.714  -4.857  0.00  0.00     0.254 C 
ATOM     14  O   UNL d   1      29.654 -11.285  -4.127  0.00  0.00    -0.268 OA
ATOM     15  H   UNL d   1      26.853 -11.360  -5.606  0.00  0.00     0.162 HD
BRANCH  13  16
ATOM     16  C   UNL d   1      28.900 -12.991  -5.593  0.00  0.00     0.066 A 
ATOM     17  C   UNL d   1      29.253 -14.268  -5.001  0.00  0.00     0.008 A 
ATOM     18  C   UNL d   1      29.524 -14.693  -3.681  0.00  0.00     0.015 A 
ATOM     19  C   UNL d   1      29.317 -15.225  -6.014  0.00  0.00     0.043 A 
ATOM     20  C   UNL d   1      29.840 -16.031  -3.419  0.00  0.00     0.001 A 
ATOM     21  C   UNL d   1      29.911 -16.955  -4.456  0.00  0.00     0.002 A 
ATOM     22  C   UNL d   1      29.655 -16.569  -5.777  0.00  0.00     0.030 A 
ATOM     23  N   UNL d   1      28.994 -14.580  -7.182  0.00  0.00    -0.358 N 
ATOM     24  C   UNL d   1      28.738 -13.244  -6.956  0.00  0.00     0.022 A 
ATOM     25  H   UNL d   1      28.947 -15.039  -8.083  0.00  0.00     0.166 HD
ATOM     26  C   UNL d   1      28.371 -12.349  -8.080  0.00  0.00     0.069 C 
ENDBRANCH  13  16
ENDBRANCH  11  12
ENDBRANCH  10  11
ENDBRANCH   1  10
BRANCH   5  27
ATOM     27  N   UNL d   1      25.733 -15.811  -1.795  0.00  0.00    -0.360 N 
ATOM     28  C   UNL d   1      26.943 -16.644  -1.810  0.00  0.00     0.156 C 
ATOM     29  C   UNL d   1      27.061 -17.432  -0.520  0.00  0.00     0.136 C 
ATOM     30  O   UNL d   1      25.931 -18.303  -0.381  0.00  0.00    -0.378 OA
ATOM     31  C   UNL d   1      27.209 -16.465   0.651  0.00  0.00     0.041 C 
ATOM     32  C   UNL d   1      24.692 -17.561  -0.348  0.00  0.00     0.136 C 
ATOM     33  C   UNL d   1      23.571 -18.574  -0.182  0.00  0.00     0.041 C 
ATOM     34  C   UNL d   1      24.513 -16.631  -1.599  0.00  0.00     0.156 C 
ENDBRANCH   5  27
TORSDOF 5
ENDMDL
