MODEL 1
REMARK VINA RESULT:    -8.135      0.000      0.000
REMARK INTER + INTRA:         -12.021
REMARK INTER:                 -10.522
REMARK INTRA:                  -1.499
REMARK CONF_INDEPENDENT:        2.386
REMARK UNBOUND:                -1.499
REMARK  8 active torsions:
REMARK  status: ('A' for Active; 'I' for Inactive)
REMARK    1  A    between atoms: C_2  and  O_3 
REMARK    2  A    between atoms: O_3  and  C_4 
REMARK    3  A    between atoms: C_7  and  C_8 
REMARK       I    between atoms: C_8  and  N_10 
REMARK    4  A    between atoms: N_10  and  N_11 
REMARK       I    between atoms: N_11  and  C_12 
REMARK    5  A    between atoms: C_12  and  C_14 
REMARK    6  A    between atoms: C_14  and  C_15 
REMARK    7  A    between atoms: C_15  and  N_16 
REMARK    8  A    between atoms: N_16  and  C_17 
ROOT
ATOM      1  N   UNL d   1      27.974 -15.971   0.908  0.00  0.00    -0.267 N 
ATOM      2  C   UNL d   1      28.390 -14.650   1.022  0.00  0.00     0.237 C 
ATOM      3  O   UNL d   1      27.600 -13.718   0.854  0.00  0.00    -0.272 OA
ATOM      4  H   UNL d   1      28.572 -16.787   1.031  0.00  0.00     0.190 HD
ENDROOT
BRANCH   1   5
ATOM      5  N   UNL d   1      26.605 -16.224   0.596  0.00  0.00    -0.263 N 
ATOM      6  C   UNL d   1      26.182 -17.499   0.230  0.00  0.00     0.270 C 
ATOM      7  O   UNL d   1      26.968 -18.450   0.183  0.00  0.00    -0.266 OA
ATOM      8  H   UNL d   1      26.006 -15.403   0.624  0.00  0.00     0.190 HD
BRANCH   6   9
ATOM      9  C   UNL d   1      24.729 -17.696  -0.151  0.00  0.00     0.033 A 
ATOM     10  C   UNL d   1      23.939 -16.581  -0.490  0.00  0.00     0.020 A 
ATOM     11  C   UNL d   1      22.555 -16.711  -0.729  0.00  0.00     0.038 A 
ATOM     12  C   UNL d   1      21.941 -17.964  -0.697  0.00  0.00     0.068 A 
ATOM     13  C   UNL d   1      22.727 -19.081  -0.420  0.00  0.00     0.038 A 
ATOM     14  C   UNL d   1      24.102 -18.949  -0.145  0.00  0.00     0.020 A 
BRANCH  12  15
ATOM     15  O   UNL d   1      20.618 -18.012  -1.051  0.00  0.00    -0.352 OA
BRANCH  15  16
ATOM     16  C   UNL d   1      19.965 -19.277  -0.896  0.00  0.00     0.171 C 
ATOM     17  C   UNL d   1      19.584 -19.465   0.566  0.00  0.00     0.034 C 
ENDBRANCH  15  16
ENDBRANCH  12  15
ENDBRANCH   6   9
ENDBRANCH   1   5
BRANCH   2  18
ATOM     18  C   UNL d   1      29.864 -14.432   1.371  0.00  0.00     0.124 C 
BRANCH  18  19
ATOM     19  C   UNL d   1      30.005 -13.766   2.752  0.00  0.00     0.129 C 
BRANCH  19  20
ATOM     20  N   UNL d   1      29.369 -14.539   3.819  0.00  0.00    -0.389 N 
ATOM     21  H   UNL d   1      28.913 -15.418   3.599  0.00  0.00     0.159 HD
BRANCH  20  22
ATOM     22  C   UNL d   1      29.019 -13.970   5.040  0.00  0.00     0.027 A 
ATOM     23  C   UNL d   1      28.143 -12.875   5.053  0.00  0.00     0.029 A 
ATOM     24  C   UNL d   1      27.782 -12.238   6.249  0.00  0.00     0.002 A 
ATOM     25  C   UNL d   1      28.250 -12.725   7.465  0.00  0.00     0.000 A 
ATOM     26  C   UNL d   1      29.100 -13.825   7.478  0.00  0.00     0.002 A 
ATOM     27  C   UNL d   1      29.477 -14.441   6.276  0.00  0.00     0.029 A 
ENDBRANCH  20  22
ENDBRANCH  19  20
ENDBRANCH  18  19
ENDBRANCH   2  18
TORSDOF 8
ENDMDL
MODEL 2
REMARK VINA RESULT:    -7.749      5.764      9.749
REMARK INTER + INTRA:         -11.578
REMARK INTER:                 -10.136
REMARK INTRA:                  -1.443
REMARK CONF_INDEPENDENT:        2.386
REMARK UNBOUND:                -1.443
REMARK  8 active torsions:
REMARK  status: ('A' for Active; 'I' for Inactive)
REMARK    1  A    between atoms: C_2  and  O_3 
REMARK    2  A    between atoms: O_3  and  C_4 
REMARK    3  A    between atoms: C_7  and  C_8 
REMARK       I    between atoms: C_8  and  N_10 
REMARK    4  A    between atoms: N_10  and  N_11 
REMARK       I    between atoms: N_11  and  C_12 
REMARK    5  A    between atoms: C_12  and  C_14 
REMARK    6  A    between atoms: C_14  and  C_15 
REMARK    7  A    between atoms: C_15  and  N_16 
REMARK    8  A    between atoms: N_16  and  C_17 
ROOT
ATOM      1  N   UNL d   1      24.438 -16.029  -2.042  0.00  0.00    -0.267 N 
ATOM      2  C   UNL d   1      24.254 -16.984  -1.050  0.00  0.00     0.237 C 
ATOM      3  O   UNL d   1      25.144 -17.792  -0.771  0.00  0.00    -0.272 OA
ATOM      4  H   UNL d   1      23.747 -15.336  -2.324  0.00  0.00     0.190 HD
ENDROOT
BRANCH   1   5
ATOM      5  N   UNL d   1      25.689 -16.001  -2.729  0.00  0.00    -0.263 N 
ATOM      6  C   UNL d   1      25.889 -15.144  -3.808  0.00  0.00     0.270 C 
ATOM      7  O   UNL d   1      25.004 -14.371  -4.190  0.00  0.00    -0.266 OA
ATOM      8  H   UNL d   1      26.372 -16.674  -2.392  0.00  0.00     0.190 HD
BRANCH   6   9
ATOM      9  C   UNL d   1      27.215 -15.201  -4.540  0.00  0.00     0.033 A 
ATOM     10  C   UNL d   1      27.361 -14.533  -5.771  0.00  0.00     0.020 A 
ATOM     11  C   UNL d   1      28.536 -14.666  -6.539  0.00  0.00     0.038 A 
ATOM     12  C   UNL d   1      29.615 -15.416  -6.067  0.00  0.00     0.068 A 
ATOM     13  C   UNL d   1      29.501 -16.033  -4.823  0.00  0.00     0.038 A 
ATOM     14  C   UNL d   1      28.314 -15.932  -4.070  0.00  0.00     0.020 A 
BRANCH  12  15
ATOM     15  O   UNL d   1      30.756 -15.399  -6.825  0.00  0.00    -0.352 OA
BRANCH  15  16
ATOM     16  C   UNL d   1      31.729 -16.408  -6.532  0.00  0.00     0.171 C 
ATOM     17  C   UNL d   1      31.271 -17.731  -7.133  0.00  0.00     0.034 C 
ENDBRANCH  15  16
ENDBRANCH  12  15
ENDBRANCH   6   9
ENDBRANCH   1   5
BRANCH   2  18
ATOM     18  C   UNL d   1      22.901 -16.966  -0.334  0.00  0.00     0.124 C 
BRANCH  18  19
ATOM     19  C   UNL d   1      22.018 -18.136  -0.807  0.00  0.00     0.129 C 
BRANCH  19  20
ATOM     20  N   UNL d   1      21.828 -19.153   0.225  0.00  0.00    -0.389 N 
ATOM     21  H   UNL d   1      22.624 -19.687   0.558  0.00  0.00     0.159 HD
BRANCH  20  22
ATOM     22  C   UNL d   1      20.579 -19.700   0.507  0.00  0.00     0.027 A 
ATOM     23  C   UNL d   1      20.200 -19.873   1.846  0.00  0.00     0.029 A 
ATOM     24  C   UNL d   1      18.970 -20.450   2.191  0.00  0.00     0.002 A 
ATOM     25  C   UNL d   1      18.068 -20.814   1.196  0.00  0.00     0.000 A 
ATOM     26  C   UNL d   1      18.413 -20.629  -0.138  0.00  0.00     0.002 A 
ATOM     27  C   UNL d   1      19.656 -20.074  -0.477  0.00  0.00     0.029 A 
ENDBRANCH  20  22
ENDBRANCH  19  20
ENDBRANCH  18  19
ENDBRANCH   2  18
TORSDOF 8
ENDMDL
MODEL 3
REMARK VINA RESULT:    -7.533      5.722      9.825
REMARK INTER + INTRA:         -11.330
REMARK INTER:                  -9.920
REMARK INTRA:                  -1.410
REMARK CONF_INDEPENDENT:        2.386
REMARK UNBOUND:                -1.410
REMARK  8 active torsions:
REMARK  status: ('A' for Active; 'I' for Inactive)
REMARK    1  A    between atoms: C_2  and  O_3 
REMARK    2  A    between atoms: O_3  and  C_4 
REMARK    3  A    between atoms: C_7  and  C_8 
REMARK       I    between atoms: C_8  and  N_10 
REMARK    4  A    between atoms: N_10  and  N_11 
REMARK       I    between atoms: N_11  and  C_12 
REMARK    5  A    between atoms: C_12  and  C_14 
REMARK    6  A    between atoms: C_14  and  C_15 
REMARK    7  A    between atoms: C_15  and  N_16 
REMARK    8  A    between atoms: N_16  and  C_17 
ROOT
ATOM      1  N   UNL d   1      24.302 -16.200  -1.975  0.00  0.00    -0.267 N 
ATOM      2  C   UNL d   1      24.173 -17.157  -0.976  0.00  0.00     0.237 C 
ATOM      3  O   UNL d   1      25.148 -17.800  -0.581  0.00  0.00    -0.272 OA
ATOM      4  H   UNL d   1      23.540 -15.635  -2.348  0.00  0.00     0.190 HD
ENDROOT
BRANCH   1   5
ATOM      5  N   UNL d   1      25.597 -15.973  -2.531  0.00  0.00    -0.263 N 
ATOM      6  C   UNL d   1      25.752 -15.222  -3.692  0.00  0.00     0.270 C 
ATOM      7  O   UNL d   1      24.782 -14.713  -4.265  0.00  0.00    -0.266 OA
ATOM      8  H   UNL d   1      26.356 -16.436  -2.037  0.00  0.00     0.190 HD
BRANCH   6   9
ATOM      9  C   UNL d   1      27.143 -15.067  -4.273  0.00  0.00     0.033 A 
ATOM     10  C   UNL d   1      27.339 -14.252  -5.404  0.00  0.00     0.020 A 
ATOM     11  C   UNL d   1      28.593 -14.182  -6.045  0.00  0.00     0.038 A 
ATOM     12  C   UNL d   1      29.693 -14.875  -5.536  0.00  0.00     0.068 A 
ATOM     13  C   UNL d   1      29.521 -15.639  -4.384  0.00  0.00     0.038 A 
ATOM     14  C   UNL d   1      28.261 -15.738  -3.762  0.00  0.00     0.020 A 
BRANCH  12  15
ATOM     15  O   UNL d   1      30.897 -14.662  -6.156  0.00  0.00    -0.352 OA
BRANCH  15  16
ATOM     16  C   UNL d   1      31.228 -15.554  -7.225  0.00  0.00     0.171 C 
ATOM     17  C   UNL d   1      31.912 -16.788  -6.651  0.00  0.00     0.034 C 
ENDBRANCH  15  16
ENDBRANCH  12  15
ENDBRANCH   6   9
ENDBRANCH   1   5
BRANCH   2  18
ATOM     18  C   UNL d   1      22.767 -17.353  -0.403  0.00  0.00     0.124 C 
BRANCH  18  19
ATOM     19  C   UNL d   1      22.085 -18.577  -1.042  0.00  0.00     0.129 C 
BRANCH  19  20
ATOM     20  N   UNL d   1      20.627 -18.532  -0.934  0.00  0.00    -0.389 N 
ATOM     21  H   UNL d   1      20.122 -17.722  -1.279  0.00  0.00     0.159 HD
BRANCH  20  22
ATOM     22  C   UNL d   1      19.923 -19.349  -0.055  0.00  0.00     0.027 A 
ATOM     23  C   UNL d   1      18.801 -20.046  -0.526  0.00  0.00     0.029 A 
ATOM     24  C   UNL d   1      18.031 -20.857   0.321  0.00  0.00     0.002 A 
ATOM     25  C   UNL d   1      18.407 -21.029   1.649  0.00  0.00     0.000 A 
ATOM     26  C   UNL d   1      19.530 -20.367   2.132  0.00  0.00     0.002 A 
ATOM     27  C   UNL d   1      20.281 -19.538   1.285  0.00  0.00     0.029 A 
ENDBRANCH  20  22
ENDBRANCH  19  20
ENDBRANCH  18  19
ENDBRANCH   2  18
TORSDOF 8
ENDMDL
MODEL 4
REMARK VINA RESULT:    -7.490      4.642      7.537
REMARK INTER + INTRA:         -11.873
REMARK INTER:                  -9.876
REMARK INTRA:                  -1.997
REMARK CONF_INDEPENDENT:        2.386
REMARK UNBOUND:                -1.997
REMARK  8 active torsions:
REMARK  status: ('A' for Active; 'I' for Inactive)
REMARK    1  A    between atoms: C_2  and  O_3 
REMARK    2  A    between atoms: O_3  and  C_4 
REMARK    3  A    between atoms: C_7  and  C_8 
REMARK       I    between atoms: C_8  and  N_10 
REMARK    4  A    between atoms: N_10  and  N_11 
REMARK       I    between atoms: N_11  and  C_12 
REMARK    5  A    between atoms: C_12  and  C_14 
REMARK    6  A    between atoms: C_14  and  C_15 
REMARK    7  A    between atoms: C_15  and  N_16 
REMARK    8  A    between atoms: N_16  and  C_17 
ROOT
ATOM      1  N   UNL d   1      28.361 -17.464  -0.642  0.00  0.00    -0.267 N 
ATOM      2  C   UNL d   1      29.155 -16.883  -1.622  0.00  0.00     0.237 C 
ATOM      3  O   UNL d   1      28.654 -16.315  -2.594  0.00  0.00    -0.272 OA
ATOM      4  H   UNL d   1      28.708 -17.950   0.184  0.00  0.00     0.190 HD
ENDROOT
BRANCH   1   5
ATOM      5  N   UNL d   1      26.943 -17.382  -0.784  0.00  0.00    -0.263 N 
ATOM      6  C   UNL d   1      26.098 -17.970   0.152  0.00  0.00     0.270 C 
ATOM      7  O   UNL d   1      26.543 -18.561   1.141  0.00  0.00    -0.266 OA
ATOM      8  H   UNL d   1      26.629 -16.909  -1.628  0.00  0.00     0.190 HD
BRANCH   6   9
ATOM      9  C   UNL d   1      24.602 -17.906  -0.084  0.00  0.00     0.033 A 
ATOM     10  C   UNL d   1      23.865 -19.099  -0.217  0.00  0.00     0.020 A 
ATOM     11  C   UNL d   1      22.498 -19.078  -0.560  0.00  0.00     0.038 A 
ATOM     12  C   UNL d   1      21.820 -17.868  -0.715  0.00  0.00     0.068 A 
ATOM     13  C   UNL d   1      22.528 -16.682  -0.528  0.00  0.00     0.038 A 
ATOM     14  C   UNL d   1      23.903 -16.700  -0.221  0.00  0.00     0.020 A 
BRANCH  12  15
ATOM     15  O   UNL d   1      20.470 -17.941  -0.937  0.00  0.00    -0.352 OA
BRANCH  15  16
ATOM     16  C   UNL d   1      19.888 -19.248  -0.892  0.00  0.00     0.171 C 
ATOM     17  C   UNL d   1      19.556 -19.596   0.553  0.00  0.00     0.034 C 
ENDBRANCH  15  16
ENDBRANCH  12  15
ENDBRANCH   6   9
ENDBRANCH   1   5
BRANCH   2  18
ATOM     18  C   UNL d   1      30.669 -16.987  -1.416  0.00  0.00     0.124 C 
BRANCH  18  19
ATOM     19  C   UNL d   1      31.345 -17.607  -2.653  0.00  0.00     0.129 C 
BRANCH  19  20
ATOM     20  N   UNL d   1      30.716 -17.195  -3.907  0.00  0.00    -0.389 N 
ATOM     21  H   UNL d   1      30.018 -16.458  -3.901  0.00  0.00     0.159 HD
BRANCH  20  22
ATOM     22  C   UNL d   1      30.730 -17.999  -5.043  0.00  0.00     0.027 A 
ATOM     23  C   UNL d   1      31.102 -17.433  -6.271  0.00  0.00     0.029 A 
ATOM     24  C   UNL d   1      31.102 -18.183  -7.455  0.00  0.00     0.002 A 
ATOM     25  C   UNL d   1      30.782 -19.536  -7.422  0.00  0.00     0.000 A 
ATOM     26  C   UNL d   1      30.434 -20.125  -6.211  0.00  0.00     0.002 A 
ATOM     27  C   UNL d   1      30.412 -19.362  -5.034  0.00  0.00     0.029 A 
ENDBRANCH  20  22
ENDBRANCH  19  20
ENDBRANCH  18  19
ENDBRANCH   2  18
TORSDOF 8
ENDMDL
MODEL 5
REMARK VINA RESULT:    -7.400      5.362      8.179
REMARK INTER + INTRA:         -11.284
REMARK INTER:                  -9.786
REMARK INTRA:                  -1.498
REMARK CONF_INDEPENDENT:        2.386
REMARK UNBOUND:                -1.498
REMARK  8 active torsions:
REMARK  status: ('A' for Active; 'I' for Inactive)
REMARK    1  A    between atoms: C_2  and  O_3 
REMARK    2  A    between atoms: O_3  and  C_4 
REMARK    3  A    between atoms: C_7  and  C_8 
REMARK       I    between atoms: C_8  and  N_10 
REMARK    4  A    between atoms: N_10  and  N_11 
REMARK       I    between atoms: N_11  and  C_12 
REMARK    5  A    between atoms: C_12  and  C_14 
REMARK    6  A    between atoms: C_14  and  C_15 
REMARK    7  A    between atoms: C_15  and  N_16 
REMARK    8  A    between atoms: N_16  and  C_17 
ROOT
ATOM      1  N   UNL d   1      27.182 -15.337  -3.585  0.00  0.00    -0.267 N 
ATOM      2  C   UNL d   1      27.235 -15.204  -4.966  0.00  0.00     0.237 C 
ATOM      3  O   UNL d   1      26.299 -15.575  -5.678  0.00  0.00    -0.272 OA
ATOM      4  H   UNL d   1      27.918 -15.053  -2.939  0.00  0.00     0.190 HD
ENDROOT
BRANCH   1   5
ATOM      5  N   UNL d   1      26.011 -15.910  -3.005  0.00  0.00    -0.263 N 
ATOM      6  C   UNL d   1      25.975 -16.245  -1.655  0.00  0.00     0.270 C 
ATOM      7  O   UNL d   1      26.943 -16.040  -0.914  0.00  0.00    -0.266 OA
ATOM      8  H   UNL d   1      25.255 -16.083  -3.663  0.00  0.00     0.190 HD
BRANCH   6   9
ATOM      9  C   UNL d   1      24.728 -16.909  -1.107  0.00  0.00     0.033 A 
ATOM     10  C   UNL d   1      24.813 -18.200  -0.550  0.00  0.00     0.020 A 
ATOM     11  C   UNL d   1      23.657 -18.898  -0.146  0.00  0.00     0.038 A 
ATOM     12  C   UNL d   1      22.398 -18.301  -0.229  0.00  0.00     0.068 A 
ATOM     13  C   UNL d   1      22.311 -17.002  -0.725  0.00  0.00     0.038 A 
ATOM     14  C   UNL d   1      23.461 -16.316  -1.164  0.00  0.00     0.020 A 
BRANCH  12  15
ATOM     15  O   UNL d   1      21.344 -19.007   0.290  0.00  0.00    -0.352 OA
BRANCH  15  16
ATOM     16  C   UNL d   1      20.370 -19.475  -0.649  0.00  0.00     0.171 C 
ATOM     17  C   UNL d   1      19.194 -20.074   0.111  0.00  0.00     0.034 C 
ENDBRANCH  15  16
ENDBRANCH  12  15
ENDBRANCH   6   9
ENDBRANCH   1   5
BRANCH   2  18
ATOM     18  C   UNL d   1      28.507 -14.571  -5.538  0.00  0.00     0.124 C 
BRANCH  18  19
ATOM     19  C   UNL d   1      29.714 -15.509  -5.350  0.00  0.00     0.129 C 
BRANCH  19  20
ATOM     20  N   UNL d   1      30.034 -16.268  -6.557  0.00  0.00    -0.389 N 
ATOM     21  H   UNL d   1      29.722 -15.929  -7.462  0.00  0.00     0.159 HD
BRANCH  20  22
ATOM     22  C   UNL d   1      30.405 -17.609  -6.515  0.00  0.00     0.027 A 
ATOM     23  C   UNL d   1      30.388 -18.280  -5.283  0.00  0.00     0.029 A 
ATOM     24  C   UNL d   1      30.784 -19.619  -5.172  0.00  0.00     0.002 A 
ATOM     25  C   UNL d   1      31.153 -20.333  -6.308  0.00  0.00     0.000 A 
ATOM     26  C   UNL d   1      31.154 -19.695  -7.544  0.00  0.00     0.002 A 
ATOM     27  C   UNL d   1      30.780 -18.347  -7.644  0.00  0.00     0.029 A 
ENDBRANCH  20  22
ENDBRANCH  19  20
ENDBRANCH  18  19
ENDBRANCH   2  18
TORSDOF 8
ENDMDL
MODEL 6
REMARK VINA RESULT:    -7.326      5.240      7.937
REMARK INTER + INTRA:         -11.198
REMARK INTER:                  -9.712
REMARK INTRA:                  -1.486
REMARK CONF_INDEPENDENT:        2.386
REMARK UNBOUND:                -1.486
REMARK  8 active torsions:
REMARK  status: ('A' for Active; 'I' for Inactive)
REMARK    1  A    between atoms: C_2  and  O_3 
REMARK    2  A    between atoms: O_3  and  C_4 
REMARK    3  A    between atoms: C_7  and  C_8 
REMARK       I    between atoms: C_8  and  N_10 
REMARK    4  A    between atoms: N_10  and  N_11 
REMARK       I    between atoms: N_11  and  C_12 
REMARK    5  A    between atoms: C_12  and  C_14 
REMARK    6  A    between atoms: C_14  and  C_15 
REMARK    7  A    between atoms: C_15  and  N_16 
REMARK    8  A    between atoms: N_16  and  C_17 
ROOT
ATOM      1  N   UNL d   1      27.261 -15.376  -3.301  0.00  0.00    -0.267 N 
ATOM      2  C   UNL d   1      27.356 -15.200  -4.676  0.00  0.00     0.237 C 
ATOM      3  O   UNL d   1      26.437 -15.539  -5.425  0.00  0.00    -0.272 OA
ATOM      4  H   UNL d   1      27.981 -15.120  -2.626  0.00  0.00     0.190 HD
ENDROOT
BRANCH   1   5
ATOM      5  N   UNL d   1      26.068 -15.956  -2.774  0.00  0.00    -0.263 N 
ATOM      6  C   UNL d   1      25.974 -16.288  -1.426  0.00  0.00     0.270 C 
ATOM      7  O   UNL d   1      26.905 -16.075  -0.642  0.00  0.00    -0.266 OA
ATOM      8  H   UNL d   1      25.344 -16.134  -3.465  0.00  0.00     0.190 HD
BRANCH   6   9
ATOM      9  C   UNL d   1      24.707 -16.959  -0.934  0.00  0.00     0.033 A 
ATOM     10  C   UNL d   1      24.751 -18.297  -0.497  0.00  0.00     0.020 A 
ATOM     11  C   UNL d   1      23.574 -18.992  -0.151  0.00  0.00     0.038 A 
ATOM     12  C   UNL d   1      22.335 -18.349  -0.173  0.00  0.00     0.068 A 
ATOM     13  C   UNL d   1      22.289 -17.008  -0.549  0.00  0.00     0.038 A 
ATOM     14  C   UNL d   1      23.459 -16.323  -0.930  0.00  0.00     0.020 A 
BRANCH  12  15
ATOM     15  O   UNL d   1      21.260 -19.066   0.285  0.00  0.00    -0.352 OA
BRANCH  15  16
ATOM     16  C   UNL d   1      20.324 -19.509  -0.703  0.00  0.00     0.171 C 
ATOM     17  C   UNL d   1      19.097 -20.082  -0.006  0.00  0.00     0.034 C 
ENDBRANCH  15  16
ENDBRANCH  12  15
ENDBRANCH   6   9
ENDBRANCH   1   5
BRANCH   2  18
ATOM     18  C   UNL d   1      28.649 -14.562  -5.190  0.00  0.00     0.124 C 
BRANCH  18  19
ATOM     19  C   UNL d   1      28.816 -14.811  -6.701  0.00  0.00     0.129 C 
BRANCH  19  20
ATOM     20  N   UNL d   1      30.056 -15.514  -7.024  0.00  0.00    -0.389 N 
ATOM     21  H   UNL d   1      30.618 -15.206  -7.811  0.00  0.00     0.159 HD
BRANCH  20  22
ATOM     22  C   UNL d   1      30.323 -16.800  -6.563  0.00  0.00     0.027 A 
ATOM     23  C   UNL d   1      30.786 -17.764  -7.470  0.00  0.00     0.029 A 
ATOM     24  C   UNL d   1      31.038 -19.084  -7.073  0.00  0.00     0.002 A 
ATOM     25  C   UNL d   1      30.884 -19.451  -5.740  0.00  0.00     0.000 A 
ATOM     26  C   UNL d   1      30.449 -18.505  -4.818  0.00  0.00     0.002 A 
ATOM     27  C   UNL d   1      30.175 -17.192  -5.228  0.00  0.00     0.029 A 
ENDBRANCH  20  22
ENDBRANCH  19  20
ENDBRANCH  18  19
ENDBRANCH   2  18
TORSDOF 8
ENDMDL
MODEL 7
REMARK VINA RESULT:    -7.271      2.580      3.521
REMARK INTER + INTRA:         -11.632
REMARK INTER:                  -9.658
REMARK INTRA:                  -1.975
REMARK CONF_INDEPENDENT:        2.386
REMARK UNBOUND:                -1.975
REMARK  8 active torsions:
REMARK  status: ('A' for Active; 'I' for Inactive)
REMARK    1  A    between atoms: C_2  and  O_3 
REMARK    2  A    between atoms: O_3  and  C_4 
REMARK    3  A    between atoms: C_7  and  C_8 
REMARK       I    between atoms: C_8  and  N_10 
REMARK    4  A    between atoms: N_10  and  N_11 
REMARK       I    between atoms: N_11  and  C_12 
REMARK    5  A    between atoms: C_12  and  C_14 
REMARK    6  A    between atoms: C_14  and  C_15 
REMARK    7  A    between atoms: C_15  and  N_16 
REMARK    8  A    between atoms: N_16  and  C_17 
ROOT
ATOM      1  N   UNL d   1      28.329 -17.495  -0.459  0.00  0.00    -0.267 N 
ATOM      2  C   UNL d   1      29.178 -16.922  -1.397  0.00  0.00     0.237 C 
ATOM      3  O   UNL d   1      28.733 -16.384  -2.414  0.00  0.00    -0.272 OA
ATOM      4  H   UNL d   1      28.628 -17.956   0.399  0.00  0.00     0.190 HD
ENDROOT
BRANCH   1   5
ATOM      5  N   UNL d   1      26.923 -17.440  -0.697  0.00  0.00    -0.263 N 
ATOM      6  C   UNL d   1      26.021 -17.933   0.241  0.00  0.00     0.270 C 
ATOM      7  O   UNL d   1      26.405 -18.413   1.313  0.00  0.00    -0.266 OA
ATOM      8  H   UNL d   1      26.662 -17.061  -1.604  0.00  0.00     0.190 HD
BRANCH   6   9
ATOM      9  C   UNL d   1      24.543 -17.907  -0.092  0.00  0.00     0.033 A 
ATOM     10  C   UNL d   1      23.819 -19.114  -0.145  0.00  0.00     0.020 A 
ATOM     11  C   UNL d   1      22.475 -19.140  -0.572  0.00  0.00     0.038 A 
ATOM     12  C   UNL d   1      21.807 -17.959  -0.896  0.00  0.00     0.068 A 
ATOM     13  C   UNL d   1      22.499 -16.754  -0.791  0.00  0.00     0.038 A 
ATOM     14  C   UNL d   1      23.852 -16.728  -0.399  0.00  0.00     0.020 A 
BRANCH  12  15
ATOM     15  O   UNL d   1      20.473 -18.066  -1.192  0.00  0.00    -0.352 OA
BRANCH  15  16
ATOM     16  C   UNL d   1      19.856 -19.324  -0.898  0.00  0.00     0.171 C 
ATOM     17  C   UNL d   1      19.505 -19.372   0.583  0.00  0.00     0.034 C 
ENDBRANCH  15  16
ENDBRANCH  12  15
ENDBRANCH   6   9
ENDBRANCH   1   5
BRANCH   2  18
ATOM     18  C   UNL d   1      30.676 -16.996  -1.089  0.00  0.00     0.124 C 
BRANCH  18  19
ATOM     19  C   UNL d   1      31.123 -15.774  -0.265  0.00  0.00     0.129 C 
BRANCH  19  20
ATOM     20  N   UNL d   1      30.296 -15.561   0.922  0.00  0.00    -0.389 N 
ATOM     21  H   UNL d   1      30.335 -16.226   1.689  0.00  0.00     0.159 HD
BRANCH  20  22
ATOM     22  C   UNL d   1      29.187 -14.720   0.913  0.00  0.00     0.027 A 
ATOM     23  C   UNL d   1      28.488 -14.504   2.110  0.00  0.00     0.029 A 
ATOM     24  C   UNL d   1      27.344 -13.695   2.155  0.00  0.00     0.002 A 
ATOM     25  C   UNL d   1      26.909 -13.039   1.008  0.00  0.00     0.000 A 
ATOM     26  C   UNL d   1      27.602 -13.219  -0.185  0.00  0.00     0.002 A 
ATOM     27  C   UNL d   1      28.731 -14.049  -0.228  0.00  0.00     0.029 A 
ENDBRANCH  20  22
ENDBRANCH  19  20
ENDBRANCH  18  19
ENDBRANCH   2  18
TORSDOF 8
ENDMDL
MODEL 8
REMARK VINA RESULT:    -6.532      5.650      9.397
REMARK INTER + INTRA:         -10.941
REMARK INTER:                  -8.918
REMARK INTRA:                  -2.023
REMARK CONF_INDEPENDENT:        2.386
REMARK UNBOUND:                -2.023
REMARK  8 active torsions:
REMARK  status: ('A' for Active; 'I' for Inactive)
REMARK    1  A    between atoms: C_2  and  O_3 
REMARK    2  A    between atoms: O_3  and  C_4 
REMARK    3  A    between atoms: C_7  and  C_8 
REMARK       I    between atoms: C_8  and  N_10 
REMARK    4  A    between atoms: N_10  and  N_11 
REMARK       I    between atoms: N_11  and  C_12 
REMARK    5  A    between atoms: C_12  and  C_14 
REMARK    6  A    between atoms: C_14  and  C_15 
REMARK    7  A    between atoms: C_15  and  N_16 
REMARK    8  A    between atoms: N_16  and  C_17 
ROOT
ATOM      1  N   UNL d   1      25.176 -16.712  -1.561  0.00  0.00    -0.267 N 
ATOM      2  C   UNL d   1      24.039 -17.052  -0.840  0.00  0.00     0.237 C 
ATOM      3  O   UNL d   1      23.065 -16.297  -0.795  0.00  0.00    -0.272 OA
ATOM      4  H   UNL d   1      26.015 -17.286  -1.639  0.00  0.00     0.190 HD
ENDROOT
BRANCH   1   5
ATOM      5  N   UNL d   1      25.188 -15.466  -2.257  0.00  0.00    -0.263 N 
ATOM      6  C   UNL d   1      26.215 -15.156  -3.145  0.00  0.00     0.270 C 
ATOM      7  O   UNL d   1      27.132 -15.951  -3.373  0.00  0.00    -0.266 OA
ATOM      8  H   UNL d   1      24.427 -14.838  -2.013  0.00  0.00     0.190 HD
BRANCH   6   9
ATOM      9  C   UNL d   1      26.210 -13.793  -3.807  0.00  0.00     0.033 A 
ATOM     10  C   UNL d   1      27.041 -13.556  -4.920  0.00  0.00     0.020 A 
ATOM     11  C   UNL d   1      27.156 -12.269  -5.484  0.00  0.00     0.038 A 
ATOM     12  C   UNL d   1      26.398 -11.205  -4.992  0.00  0.00     0.068 A 
ATOM     13  C   UNL d   1      25.530 -11.444  -3.928  0.00  0.00     0.038 A 
ATOM     14  C   UNL d   1      25.440 -12.720  -3.339  0.00  0.00     0.020 A 
BRANCH  12  15
ATOM     15  O   UNL d   1      26.488 -10.017  -5.670  0.00  0.00    -0.352 OA
BRANCH  15  16
ATOM     16  C   UNL d   1      25.723  -8.926  -5.147  0.00  0.00     0.171 C 
ATOM     17  C   UNL d   1      24.556  -8.643  -6.082  0.00  0.00     0.034 C 
ENDBRANCH  15  16
ENDBRANCH  12  15
ENDBRANCH   6   9
ENDBRANCH   1   5
BRANCH   2  18
ATOM     18  C   UNL d   1      24.071 -18.403  -0.122  0.00  0.00     0.124 C 
BRANCH  18  19
ATOM     19  C   UNL d   1      22.956 -19.326  -0.649  0.00  0.00     0.129 C 
BRANCH  19  20
ATOM     20  N   UNL d   1      21.626 -18.730  -0.531  0.00  0.00    -0.389 N 
ATOM     21  H   UNL d   1      21.501 -17.740  -0.715  0.00  0.00     0.159 HD
BRANCH  20  22
ATOM     22  C   UNL d   1      20.598 -19.344   0.179  0.00  0.00     0.027 A 
ATOM     23  C   UNL d   1      19.541 -19.933  -0.530  0.00  0.00     0.029 A 
ATOM     24  C   UNL d   1      18.461 -20.535   0.130  0.00  0.00     0.002 A 
ATOM     25  C   UNL d   1      18.447 -20.607   1.520  0.00  0.00     0.000 A 
ATOM     26  C   UNL d   1      19.497 -20.051   2.242  0.00  0.00     0.002 A 
ATOM     27  C   UNL d   1      20.562 -19.429   1.575  0.00  0.00     0.029 A 
ENDBRANCH  20  22
ENDBRANCH  19  20
ENDBRANCH  18  19
ENDBRANCH   2  18
TORSDOF 8
ENDMDL
MODEL 9
REMARK VINA RESULT:    -6.469      2.451      3.898
REMARK INTER + INTRA:         -10.840
REMARK INTER:                  -8.856
REMARK INTRA:                  -1.984
REMARK CONF_INDEPENDENT:        2.386
REMARK UNBOUND:                -1.984
REMARK  8 active torsions:
REMARK  status: ('A' for Active; 'I' for Inactive)
REMARK    1  A    between atoms: C_2  and  O_3 
REMARK    2  A    between atoms: O_3  and  C_4 
REMARK    3  A    between atoms: C_7  and  C_8 
REMARK       I    between atoms: C_8  and  N_10 
REMARK    4  A    between atoms: N_10  and  N_11 
REMARK       I    between atoms: N_11  and  C_12 
REMARK    5  A    between atoms: C_12  and  C_14 
REMARK    6  A    between atoms: C_14  and  C_15 
REMARK    7  A    between atoms: C_15  and  N_16 
REMARK    8  A    between atoms: N_16  and  C_17 
ROOT
ATOM      1  N   UNL d   1      28.903 -14.265   3.513  0.00  0.00    -0.267 N 
ATOM      2  C   UNL d   1      28.900 -14.469   4.887  0.00  0.00     0.237 C 
ATOM      3  O   UNL d   1      28.234 -15.375   5.394  0.00  0.00    -0.272 OA
ATOM      4  H   UNL d   1      29.427 -13.538   3.029  0.00  0.00     0.190 HD
ENDROOT
BRANCH   1   5
ATOM      5  N   UNL d   1      28.120 -15.136   2.698  0.00  0.00    -0.263 N 
ATOM      6  C   UNL d   1      27.826 -14.805   1.378  0.00  0.00     0.270 C 
ATOM      7  O   UNL d   1      28.249 -13.763   0.866  0.00  0.00    -0.266 OA
ATOM      8  H   UNL d   1      27.775 -15.966   3.175  0.00  0.00     0.190 HD
BRANCH   6   9
ATOM      9  C   UNL d   1      26.937 -15.737   0.580  0.00  0.00     0.033 A 
ATOM     10  C   UNL d   1      25.915 -15.203  -0.228  0.00  0.00     0.020 A 
ATOM     11  C   UNL d   1      24.991 -16.041  -0.886  0.00  0.00     0.038 A 
ATOM     12  C   UNL d   1      25.105 -17.429  -0.804  0.00  0.00     0.068 A 
ATOM     13  C   UNL d   1      26.149 -17.967  -0.054  0.00  0.00     0.038 A 
ATOM     14  C   UNL d   1      27.051 -17.132   0.634  0.00  0.00     0.020 A 
BRANCH  12  15
ATOM     15  O   UNL d   1      24.234 -18.165  -1.565  0.00  0.00    -0.352 OA
BRANCH  15  16
ATOM     16  C   UNL d   1      23.290 -18.969  -0.850  0.00  0.00     0.171 C 
ATOM     17  C   UNL d   1      22.065 -18.125  -0.521  0.00  0.00     0.034 C 
ENDBRANCH  15  16
ENDBRANCH  12  15
ENDBRANCH   6   9
ENDBRANCH   1   5
BRANCH   2  18
ATOM     18  C   UNL d   1      29.766 -13.517   5.715  0.00  0.00     0.124 C 
BRANCH  18  19
ATOM     19  C   UNL d   1      29.072 -13.166   7.045  0.00  0.00     0.129 C 
BRANCH  19  20
ATOM     20  N   UNL d   1      28.915 -14.324   7.923  0.00  0.00    -0.389 N 
ATOM     21  H   UNL d   1      28.560 -15.197   7.547  0.00  0.00     0.159 HD
BRANCH  20  22
ATOM     22  C   UNL d   1      28.861 -14.202   9.309  0.00  0.00     0.027 A 
ATOM     23  C   UNL d   1      28.163 -13.122   9.869  0.00  0.00     0.029 A 
ATOM     24  C   UNL d   1      28.103 -12.928  11.256  0.00  0.00     0.002 A 
ATOM     25  C   UNL d   1      28.696 -13.848  12.114  0.00  0.00     0.000 A 
ATOM     26  C   UNL d   1      29.373 -14.940  11.581  0.00  0.00     0.002 A 
ATOM     27  C   UNL d   1      29.450 -15.115  10.192  0.00  0.00     0.029 A 
ENDBRANCH  20  22
ENDBRANCH  19  20
ENDBRANCH  18  19
ENDBRANCH   2  18
TORSDOF 8
ENDMDL
