MODEL 1
REMARK VINA RESULT:    -7.718      0.000      0.000
REMARK INTER + INTRA:          -9.196
REMARK INTER:                  -8.613
REMARK INTRA:                  -0.584
REMARK CONF_INDEPENDENT:        0.895
REMARK UNBOUND:                -0.584
REMARK  3 active torsions:
REMARK  status: ('A' for Active; 'I' for Inactive)
REMARK    1  A    between atoms: C_5  and  C_6 
REMARK       I    between atoms: C_6  and  N_7 
REMARK    2  A    between atoms: C_10  and  N_11 
REMARK       I    between atoms: N_11  and  C_12 
REMARK    3  A    between atoms: C_12  and  C_14 
ROOT
ATOM      1  C   UNL d   1      27.514 -17.063  -0.570  0.00  0.00     0.050 C 
ATOM      2  C   UNL d   1      26.060 -17.390  -0.754  0.00  0.00    -0.035 C 
ATOM      3  C   UNL d   1      25.548 -18.270   0.202  0.00  0.00     0.010 C 
ATOM      4  C   UNL d   1      24.194 -18.544   0.284  0.00  0.00     0.017 C 
ATOM      5  C   UNL d   1      23.302 -17.958  -0.610  0.00  0.00     0.034 C 
ATOM      6  C   UNL d   1      23.811 -17.138  -1.644  0.00  0.00     0.047 C 
ATOM      7  C   UNL d   1      25.203 -16.893  -1.762  0.00  0.00     0.042 C 
ENDROOT
BRANCH   7   8
ATOM      8  N   UNL d   1      25.656 -16.166  -2.904  0.00  0.00    -0.322 N 
ATOM      9  C   UNL d   1      25.500 -14.812  -3.181  0.00  0.00     0.256 C 
ATOM     10  O   UNL d   1      25.038 -14.450  -4.261  0.00  0.00    -0.267 OA
ATOM     11  H   UNL d   1      25.904 -16.719  -3.721  0.00  0.00     0.169 HD
BRANCH   9  12
ATOM     12  C   UNL d   1      25.928 -13.775  -2.166  0.00  0.00     0.034 A 
ATOM     13  C   UNL d   1      26.280 -14.204  -0.868  0.00  0.00     0.019 A 
ATOM     14  C   UNL d   1      26.990 -13.350  -0.006  0.00  0.00     0.026 A 
ATOM     15  C   UNL d   1      27.388 -12.079  -0.437  0.00  0.00     0.055 A 
ATOM     16 CL   UNL d   1      28.317 -11.103   0.643  0.00  0.00    -0.083 Cl
ATOM     17  C   UNL d   1      27.057 -11.653  -1.728  0.00  0.00     0.056 A 
ATOM     18 CL   UNL d   1      27.789 -10.257  -2.447  0.00  0.00    -0.083 Cl
ATOM     19  C   UNL d   1      26.266 -12.463  -2.557  0.00  0.00     0.042 A 
ENDBRANCH   9  12
ENDBRANCH   7   8
BRANCH   5  20
ATOM     20  C   UNL d   1      21.827 -18.213  -0.489  0.00  0.00     0.249 C 
ATOM     21  N   UNL d   1      21.420 -19.346   0.182  0.00  0.00    -0.366 N 
ATOM     22  H   UNL d   1      22.022 -20.032   0.605  0.00  0.00     0.159 HD
ATOM     23  H   UNL d   1      20.425 -19.508   0.263  0.00  0.00     0.159 HD
ATOM     24  O   UNL d   1      21.007 -17.450  -0.959  0.00  0.00    -0.268 OA
ENDBRANCH   5  20
TORSDOF 3
ENDMDL
MODEL 2
REMARK VINA RESULT:    -7.367      3.075      3.867
REMARK INTER + INTRA:          -9.056
REMARK INTER:                  -8.262
REMARK INTRA:                  -0.794
REMARK CONF_INDEPENDENT:        0.895
REMARK UNBOUND:                -0.794
REMARK  3 active torsions:
REMARK  status: ('A' for Active; 'I' for Inactive)
REMARK    1  A    between atoms: C_5  and  C_6 
REMARK       I    between atoms: C_6  and  N_7 
REMARK    2  A    between atoms: C_10  and  N_11 
REMARK       I    between atoms: N_11  and  C_12 
REMARK    3  A    between atoms: C_12  and  C_14 
ROOT
ATOM      1  C   UNL d   1      27.214 -14.898  -0.365  0.00  0.00     0.050 C 
ATOM      2  C   UNL d   1      26.140 -15.885  -0.724  0.00  0.00    -0.035 C 
ATOM      3  C   UNL d   1      26.266 -17.121  -0.086  0.00  0.00     0.010 C 
ATOM      4  C   UNL d   1      25.275 -18.084  -0.169  0.00  0.00     0.017 C 
ATOM      5  C   UNL d   1      24.125 -17.848  -0.918  0.00  0.00     0.034 C 
ATOM      6  C   UNL d   1      24.021 -16.640  -1.647  0.00  0.00     0.047 C 
ATOM      7  C   UNL d   1      25.055 -15.670  -1.604  0.00  0.00     0.042 C 
ENDROOT
BRANCH   7   8
ATOM      8  N   UNL d   1      24.942 -14.538  -2.466  0.00  0.00    -0.322 N 
ATOM      9  C   UNL d   1      25.951 -13.879  -3.159  0.00  0.00     0.256 C 
ATOM     10  O   UNL d   1      26.072 -12.659  -3.066  0.00  0.00    -0.267 OA
ATOM     11  H   UNL d   1      24.086 -13.995  -2.384  0.00  0.00     0.169 HD
BRANCH   9  12
ATOM     12  C   UNL d   1      26.887 -14.656  -4.058  0.00  0.00     0.034 A 
ATOM     13  C   UNL d   1      27.040 -14.240  -5.397  0.00  0.00     0.019 A 
ATOM     14  C   UNL d   1      28.122 -14.704  -6.166  0.00  0.00     0.026 A 
ATOM     15  C   UNL d   1      29.080 -15.554  -5.602  0.00  0.00     0.055 A 
ATOM     16 CL   UNL d   1      30.422 -16.035  -6.576  0.00  0.00    -0.083 Cl
ATOM     17  C   UNL d   1      28.945 -15.957  -4.270  0.00  0.00     0.056 A 
ATOM     18 CL   UNL d   1      30.241 -16.719  -3.408  0.00  0.00    -0.083 Cl
ATOM     19  C   UNL d   1      27.817 -15.575  -3.528  0.00  0.00     0.042 A 
ENDBRANCH   9  12
ENDBRANCH   7   8
BRANCH   5  20
ATOM     20  C   UNL d   1      23.026 -18.869  -0.966  0.00  0.00     0.249 C 
ATOM     21  N   UNL d   1      22.476 -19.283   0.228  0.00  0.00    -0.366 N 
ATOM     22  H   UNL d   1      22.743 -18.965   1.146  0.00  0.00     0.159 HD
ATOM     23  H   UNL d   1      21.733 -19.968   0.188  0.00  0.00     0.159 HD
ATOM     24  O   UNL d   1      22.620 -19.323  -2.017  0.00  0.00    -0.268 OA
ENDBRANCH   5  20
TORSDOF 3
ENDMDL
MODEL 3
REMARK VINA RESULT:    -7.274      3.805      6.827
REMARK INTER + INTRA:          -8.775
REMARK INTER:                  -8.169
REMARK INTRA:                  -0.606
REMARK CONF_INDEPENDENT:        0.895
REMARK UNBOUND:                -0.606
REMARK  3 active torsions:
REMARK  status: ('A' for Active; 'I' for Inactive)
REMARK    1  A    between atoms: C_5  and  C_6 
REMARK       I    between atoms: C_6  and  N_7 
REMARK    2  A    between atoms: C_10  and  N_11 
REMARK       I    between atoms: N_11  and  C_12 
REMARK    3  A    between atoms: C_12  and  C_14 
ROOT
ATOM      1  C   UNL d   1      26.468 -10.244  -5.422  0.00  0.00     0.050 C 
ATOM      2  C   UNL d   1      26.944 -11.655  -5.615  0.00  0.00    -0.035 C 
ATOM      3  C   UNL d   1      27.979 -11.786  -6.544  0.00  0.00     0.010 C 
ATOM      4  C   UNL d   1      28.648 -12.985  -6.720  0.00  0.00     0.017 C 
ATOM      5  C   UNL d   1      28.287 -14.108  -5.980  0.00  0.00     0.034 C 
ATOM      6  C   UNL d   1      27.181 -14.021  -5.103  0.00  0.00     0.047 C 
ATOM      7  C   UNL d   1      26.460 -12.808  -4.955  0.00  0.00     0.042 C 
ENDROOT
BRANCH   7   8
ATOM      8  N   UNL d   1      25.279 -12.829  -4.154  0.00  0.00    -0.322 N 
ATOM      9  C   UNL d   1      24.618 -13.931  -3.623  0.00  0.00     0.256 C 
ATOM     10  O   UNL d   1      23.411 -14.075  -3.801  0.00  0.00    -0.267 OA
ATOM     11  H   UNL d   1      24.711 -11.986  -4.168  0.00  0.00     0.169 HD
BRANCH   9  12
ATOM     12  C   UNL d   1      25.377 -14.945  -2.795  0.00  0.00     0.034 A 
ATOM     13  C   UNL d   1      26.576 -14.543  -2.167  0.00  0.00     0.019 A 
ATOM     14  C   UNL d   1      27.133 -15.322  -1.137  0.00  0.00     0.026 A 
ATOM     15  C   UNL d   1      26.487 -16.483  -0.698  0.00  0.00     0.055 A 
ATOM     16 CL   UNL d   1      27.185 -17.360   0.617  0.00  0.00    -0.083 Cl
ATOM     17  C   UNL d   1      25.290 -16.878  -1.303  0.00  0.00     0.056 A 
ATOM     18 CL   UNL d   1      24.268 -18.092  -0.607  0.00  0.00    -0.083 Cl
ATOM     19  C   UNL d   1      24.781 -16.159  -2.395  0.00  0.00     0.042 A 
ENDBRANCH   9  12
ENDBRANCH   7   8
BRANCH   5  20
ATOM     20  C   UNL d   1      29.047 -15.393  -6.131  0.00  0.00     0.249 C 
ATOM     21  N   UNL d   1      29.804 -15.567  -7.269  0.00  0.00    -0.366 N 
ATOM     22  H   UNL d   1      29.900 -14.907  -8.024  0.00  0.00     0.159 HD
ATOM     23  H   UNL d   1      30.317 -16.434  -7.362  0.00  0.00     0.159 HD
ATOM     24  O   UNL d   1      29.009 -16.261  -5.282  0.00  0.00    -0.268 OA
ENDBRANCH   5  20
TORSDOF 3
ENDMDL
MODEL 4
REMARK VINA RESULT:    -7.174      4.604      6.498
REMARK INTER + INTRA:          -9.017
REMARK INTER:                  -8.069
REMARK INTRA:                  -0.948
REMARK CONF_INDEPENDENT:        0.895
REMARK UNBOUND:                -0.948
REMARK  3 active torsions:
REMARK  status: ('A' for Active; 'I' for Inactive)
REMARK    1  A    between atoms: C_5  and  C_6 
REMARK       I    between atoms: C_6  and  N_7 
REMARK    2  A    between atoms: C_10  and  N_11 
REMARK       I    between atoms: N_11  and  C_12 
REMARK    3  A    between atoms: C_12  and  C_14 
ROOT
ATOM      1  C   UNL d   1      26.859 -12.851  -0.554  0.00  0.00     0.050 C 
ATOM      2  C   UNL d   1      27.337 -13.249   0.813  0.00  0.00    -0.035 C 
ATOM      3  C   UNL d   1      26.839 -12.452   1.846  0.00  0.00     0.010 C 
ATOM      4  C   UNL d   1      27.040 -12.779   3.176  0.00  0.00     0.017 C 
ATOM      5  C   UNL d   1      27.771 -13.913   3.519  0.00  0.00     0.034 C 
ATOM      6  C   UNL d   1      28.364 -14.681   2.490  0.00  0.00     0.047 C 
ATOM      7  C   UNL d   1      28.202 -14.323   1.126  0.00  0.00     0.042 C 
ENDROOT
BRANCH   7   8
ATOM      8  N   UNL d   1      28.935 -15.065   0.152  0.00  0.00    -0.322 N 
ATOM      9  C   UNL d   1      28.839 -16.419  -0.150  0.00  0.00     0.256 C 
ATOM     10  O   UNL d   1      29.848 -17.120  -0.178  0.00  0.00    -0.267 OA
ATOM     11  H   UNL d   1      29.787 -14.633  -0.195  0.00  0.00     0.169 HD
BRANCH   9  12
ATOM     12  C   UNL d   1      27.494 -17.031  -0.478  0.00  0.00     0.034 A 
ATOM     13  C   UNL d   1      27.033 -18.109   0.306  0.00  0.00     0.019 A 
ATOM     14  C   UNL d   1      25.679 -18.488   0.265  0.00  0.00     0.026 A 
ATOM     15  C   UNL d   1      24.768 -17.778  -0.525  0.00  0.00     0.055 A 
ATOM     16 CL   UNL d   1      23.107 -18.249  -0.481  0.00  0.00    -0.083 Cl
ATOM     17  C   UNL d   1      25.215 -16.698  -1.292  0.00  0.00     0.056 A 
ATOM     18 CL   UNL d   1      24.115 -15.574  -2.020  0.00  0.00    -0.083 Cl
ATOM     19  C   UNL d   1      26.580 -16.376  -1.329  0.00  0.00     0.042 A 
ENDBRANCH   9  12
ENDBRANCH   7   8
BRANCH   5  20
ATOM     20  C   UNL d   1      27.944 -14.298   4.959  0.00  0.00     0.249 C 
ATOM     21  N   UNL d   1      28.750 -15.380   5.246  0.00  0.00    -0.366 N 
ATOM     22  H   UNL d   1      29.241 -15.948   4.575  0.00  0.00     0.159 HD
ATOM     23  H   UNL d   1      28.865 -15.631   6.220  0.00  0.00     0.159 HD
ATOM     24  O   UNL d   1      27.402 -13.683   5.855  0.00  0.00    -0.268 OA
ENDBRANCH   5  20
TORSDOF 3
ENDMDL
MODEL 5
REMARK VINA RESULT:    -6.964      3.647      6.875
REMARK INTER + INTRA:          -8.543
REMARK INTER:                  -7.859
REMARK INTRA:                  -0.684
REMARK CONF_INDEPENDENT:        0.895
REMARK UNBOUND:                -0.684
REMARK  3 active torsions:
REMARK  status: ('A' for Active; 'I' for Inactive)
REMARK    1  A    between atoms: C_5  and  C_6 
REMARK       I    between atoms: C_6  and  N_7 
REMARK    2  A    between atoms: C_10  and  N_11 
REMARK       I    between atoms: N_11  and  C_12 
REMARK    3  A    between atoms: C_12  and  C_14 
ROOT
ATOM      1  C   UNL d   1      27.035 -10.477  -2.521  0.00  0.00     0.050 C 
ATOM      2  C   UNL d   1      27.248 -11.394  -3.691  0.00  0.00    -0.035 C 
ATOM      3  C   UNL d   1      28.407 -11.124  -4.423  0.00  0.00     0.010 C 
ATOM      4  C   UNL d   1      28.845 -11.972  -5.426  0.00  0.00     0.017 C 
ATOM      5  C   UNL d   1      28.119 -13.115  -5.747  0.00  0.00     0.034 C 
ATOM      6  C   UNL d   1      26.895 -13.357  -5.082  0.00  0.00     0.047 C 
ATOM      7  C   UNL d   1      26.416 -12.466  -4.087  0.00  0.00     0.042 C 
ENDROOT
BRANCH   7   8
ATOM      8  N   UNL d   1      25.113 -12.701  -3.553  0.00  0.00    -0.322 N 
ATOM      9  C   UNL d   1      24.460 -13.916  -3.381  0.00  0.00     0.256 C 
ATOM     10  O   UNL d   1      23.322 -14.075  -3.817  0.00  0.00    -0.267 OA
ATOM     11  H   UNL d   1      24.490 -11.899  -3.518  0.00  0.00     0.169 HD
BRANCH   9  12
ATOM     12  C   UNL d   1      25.135 -15.041  -2.626  0.00  0.00     0.034 A 
ATOM     13  C   UNL d   1      26.434 -14.829  -2.117  0.00  0.00     0.019 A 
ATOM     14  C   UNL d   1      26.964 -15.694  -1.143  0.00  0.00     0.026 A 
ATOM     15  C   UNL d   1      26.197 -16.751  -0.641  0.00  0.00     0.055 A 
ATOM     16 CL   UNL d   1      26.878 -17.737   0.603  0.00  0.00    -0.083 Cl
ATOM     17  C   UNL d   1      24.903 -16.957  -1.128  0.00  0.00     0.056 A 
ATOM     18 CL   UNL d   1      23.782 -18.013  -0.333  0.00  0.00    -0.083 Cl
ATOM     19  C   UNL d   1      24.405 -16.157  -2.168  0.00  0.00     0.042 A 
ENDBRANCH   9  12
ENDBRANCH   7   8
BRANCH   5  20
ATOM     20  C   UNL d   1      28.621 -14.064  -6.797  0.00  0.00     0.249 C 
ATOM     21  N   UNL d   1      29.588 -13.609  -7.668  0.00  0.00    -0.366 N 
ATOM     22  H   UNL d   1      29.997 -12.690  -7.672  0.00  0.00     0.159 HD
ATOM     23  H   UNL d   1      29.924 -14.256  -8.371  0.00  0.00     0.159 HD
ATOM     24  O   UNL d   1      28.201 -15.200  -6.886  0.00  0.00    -0.268 OA
ENDBRANCH   5  20
TORSDOF 3
ENDMDL
MODEL 6
REMARK VINA RESULT:    -6.921      1.867      2.157
REMARK INTER + INTRA:          -8.746
REMARK INTER:                  -7.816
REMARK INTRA:                  -0.930
REMARK CONF_INDEPENDENT:        0.895
REMARK UNBOUND:                -0.930
REMARK  3 active torsions:
REMARK  status: ('A' for Active; 'I' for Inactive)
REMARK    1  A    between atoms: C_5  and  C_6 
REMARK       I    between atoms: C_6  and  N_7 
REMARK    2  A    between atoms: C_10  and  N_11 
REMARK       I    between atoms: N_11  and  C_12 
REMARK    3  A    between atoms: C_12  and  C_14 
ROOT
ATOM      1  C   UNL d   1      27.446 -17.133  -0.184  0.00  0.00     0.050 C 
ATOM      2  C   UNL d   1      25.996 -17.384  -0.482  0.00  0.00    -0.035 C 
ATOM      3  C   UNL d   1      25.458 -18.485   0.189  0.00  0.00     0.010 C 
ATOM      4  C   UNL d   1      24.101 -18.757   0.163  0.00  0.00     0.017 C 
ATOM      5  C   UNL d   1      23.233 -17.943  -0.558  0.00  0.00     0.034 C 
ATOM      6  C   UNL d   1      23.769 -16.878  -1.320  0.00  0.00     0.047 C 
ATOM      7  C   UNL d   1      25.165 -16.624  -1.336  0.00  0.00     0.042 C 
ENDROOT
BRANCH   7   8
ATOM      8  N   UNL d   1      25.648 -15.619  -2.228  0.00  0.00    -0.322 N 
ATOM      9  C   UNL d   1      25.944 -14.290  -1.949  0.00  0.00     0.256 C 
ATOM     10  O   UNL d   1      25.467 -13.391  -2.637  0.00  0.00    -0.267 OA
ATOM     11  H   UNL d   1      25.536 -15.808  -3.221  0.00  0.00     0.169 HD
BRANCH   9  12
ATOM     12  C   UNL d   1      26.883 -13.944  -0.814  0.00  0.00     0.034 A 
ATOM     13  C   UNL d   1      26.345 -13.763   0.478  0.00  0.00     0.019 A 
ATOM     14  C   UNL d   1      27.186 -13.774   1.605  0.00  0.00     0.026 A 
ATOM     15  C   UNL d   1      28.560 -14.000   1.463  0.00  0.00     0.055 A 
ATOM     16 CL   UNL d   1      29.529 -14.069   2.890  0.00  0.00    -0.083 Cl
ATOM     17  C   UNL d   1      29.098 -14.197   0.187  0.00  0.00     0.056 A 
ATOM     18 CL   UNL d   1      30.702 -14.809  -0.046  0.00  0.00    -0.083 Cl
ATOM     19  C   UNL d   1      28.279 -14.091  -0.948  0.00  0.00     0.042 A 
ENDBRANCH   9  12
ENDBRANCH   7   8
BRANCH   5  20
ATOM     20  C   UNL d   1      21.755 -18.205  -0.543  0.00  0.00     0.249 C 
ATOM     21  N   UNL d   1      21.304 -19.321   0.129  0.00  0.00    -0.366 N 
ATOM     22  H   UNL d   1      21.876 -19.990   0.619  0.00  0.00     0.159 HD
ATOM     23  H   UNL d   1      20.306 -19.489   0.139  0.00  0.00     0.159 HD
ATOM     24  O   UNL d   1      20.968 -17.465  -1.098  0.00  0.00    -0.268 OA
ENDBRANCH   5  20
TORSDOF 3
ENDMDL
MODEL 7
REMARK VINA RESULT:    -6.636      3.571      6.727
REMARK INTER + INTRA:          -8.294
REMARK INTER:                  -7.531
REMARK INTRA:                  -0.763
REMARK CONF_INDEPENDENT:        0.895
REMARK UNBOUND:                -0.763
REMARK  3 active torsions:
REMARK  status: ('A' for Active; 'I' for Inactive)
REMARK    1  A    between atoms: C_5  and  C_6 
REMARK       I    between atoms: C_6  and  N_7 
REMARK    2  A    between atoms: C_10  and  N_11 
REMARK       I    between atoms: N_11  and  C_12 
REMARK    3  A    between atoms: C_12  and  C_14 
ROOT
ATOM      1  C   UNL d   1      28.407 -13.431  -4.453  0.00  0.00     0.050 C 
ATOM      2  C   UNL d   1      27.720 -12.338  -3.685  0.00  0.00    -0.035 C 
ATOM      3  C   UNL d   1      28.593 -11.481  -3.010  0.00  0.00     0.010 C 
ATOM      4  C   UNL d   1      28.143 -10.325  -2.395  0.00  0.00     0.017 C 
ATOM      5  C   UNL d   1      26.790  -9.999  -2.415  0.00  0.00     0.034 C 
ATOM      6  C   UNL d   1      25.878 -10.901  -3.011  0.00  0.00     0.047 C 
ATOM      7  C   UNL d   1      26.328 -12.110  -3.601  0.00  0.00     0.042 C 
ENDROOT
BRANCH   7   8
ATOM      8  N   UNL d   1      25.341 -13.032  -4.065  0.00  0.00    -0.322 N 
ATOM      9  C   UNL d   1      25.362 -14.421  -4.000  0.00  0.00     0.256 C 
ATOM     10  O   UNL d   1      25.158 -15.091  -5.010  0.00  0.00    -0.267 OA
ATOM     11  H   UNL d   1      24.665 -12.668  -4.731  0.00  0.00     0.169 HD
BRANCH   9  12
ATOM     12  C   UNL d   1      25.604 -15.115  -2.678  0.00  0.00     0.034 A 
ATOM     13  C   UNL d   1      24.521 -15.762  -2.046  0.00  0.00     0.019 A 
ATOM     14  C   UNL d   1      24.752 -16.687  -1.012  0.00  0.00     0.026 A 
ATOM     15  C   UNL d   1      26.059 -17.004  -0.623  0.00  0.00     0.055 A 
ATOM     16 CL   UNL d   1      26.279 -18.198   0.605  0.00  0.00    -0.083 Cl
ATOM     17  C   UNL d   1      27.138 -16.380  -1.257  0.00  0.00     0.056 A 
ATOM     18 CL   UNL d   1      28.763 -16.954  -1.076  0.00  0.00    -0.083 Cl
ATOM     19  C   UNL d   1      26.911 -15.386  -2.221  0.00  0.00     0.042 A 
ENDBRANCH   9  12
ENDBRANCH   7   8
BRANCH   5  20
ATOM     20  C   UNL d   1      26.307  -8.720  -1.795  0.00  0.00     0.249 C 
ATOM     21  N   UNL d   1      25.155  -8.153  -2.296  0.00  0.00    -0.366 N 
ATOM     22  H   UNL d   1      24.595  -8.517  -3.050  0.00  0.00     0.159 HD
ATOM     23  H   UNL d   1      24.833  -7.294  -1.870  0.00  0.00     0.159 HD
ATOM     24  O   UNL d   1      26.901  -8.191  -0.877  0.00  0.00    -0.268 OA
ENDBRANCH   5  20
TORSDOF 3
ENDMDL
MODEL 8
REMARK VINA RESULT:    -6.355      3.222      4.948
REMARK INTER + INTRA:          -8.371
REMARK INTER:                  -7.250
REMARK INTRA:                  -1.121
REMARK CONF_INDEPENDENT:        0.895
REMARK UNBOUND:                -1.121
REMARK  3 active torsions:
REMARK  status: ('A' for Active; 'I' for Inactive)
REMARK    1  A    between atoms: C_5  and  C_6 
REMARK       I    between atoms: C_6  and  N_7 
REMARK    2  A    between atoms: C_10  and  N_11 
REMARK       I    between atoms: N_11  and  C_12 
REMARK    3  A    between atoms: C_12  and  C_14 
ROOT
ATOM      1  C   UNL d   1      24.096 -17.649  -0.672  0.00  0.00     0.050 C 
ATOM      2  C   UNL d   1      25.508 -17.162  -0.822  0.00  0.00    -0.035 C 
ATOM      3  C   UNL d   1      26.319 -17.411   0.288  0.00  0.00     0.010 C 
ATOM      4  C   UNL d   1      27.684 -17.182   0.256  0.00  0.00     0.017 C 
ATOM      5  C   UNL d   1      28.284 -16.672  -0.892  0.00  0.00     0.034 C 
ATOM      6  C   UNL d   1      27.469 -16.326  -1.994  0.00  0.00     0.047 C 
ATOM      7  C   UNL d   1      26.063 -16.512  -1.949  0.00  0.00     0.042 C 
ENDROOT
BRANCH   7   8
ATOM      8  N   UNL d   1      25.290 -16.019  -3.043  0.00  0.00    -0.322 N 
ATOM      9  C   UNL d   1      25.404 -14.797  -3.696  0.00  0.00     0.256 C 
ATOM     10  O   UNL d   1      24.415 -14.084  -3.853  0.00  0.00    -0.267 OA
ATOM     11  H   UNL d   1      24.406 -16.490  -3.217  0.00  0.00     0.169 HD
BRANCH   9  12
ATOM     12  C   UNL d   1      26.741 -14.351  -4.245  0.00  0.00     0.034 A 
ATOM     13  C   UNL d   1      27.352 -13.205  -3.693  0.00  0.00     0.019 A 
ATOM     14  C   UNL d   1      28.714 -12.945  -3.924  0.00  0.00     0.026 A 
ATOM     15  C   UNL d   1      29.489 -13.838  -4.673  0.00  0.00     0.055 A 
ATOM     16 CL   UNL d   1      31.172 -13.499  -4.864  0.00  0.00    -0.083 Cl
ATOM     17  C   UNL d   1      28.895 -14.985  -5.210  0.00  0.00     0.056 A 
ATOM     18 CL   UNL d   1      29.838 -16.291  -5.849  0.00  0.00    -0.083 Cl
ATOM     19  C   UNL d   1      27.516 -15.199  -5.064  0.00  0.00     0.042 A 
ENDBRANCH   9  12
ENDBRANCH   7   8
BRANCH   5  20
ATOM     20  C   UNL d   1      29.772 -16.474  -0.947  0.00  0.00     0.249 C 
ATOM     21  N   UNL d   1      30.477 -16.548   0.235  0.00  0.00    -0.366 N 
ATOM     22  H   UNL d   1      30.089 -16.723   1.147  0.00  0.00     0.159 HD
ATOM     23  H   UNL d   1      31.480 -16.418   0.189  0.00  0.00     0.159 HD
ATOM     24  O   UNL d   1      30.349 -16.260  -1.994  0.00  0.00    -0.268 OA
ENDBRANCH   5  20
TORSDOF 3
ENDMDL
