MODEL 1
REMARK VINA RESULT:    -9.285      0.000      0.000
REMARK INTER + INTRA:         -14.829
REMARK INTER:                 -12.566
REMARK INTRA:                  -2.263
REMARK CONF_INDEPENDENT:        3.281
REMARK UNBOUND:                -2.263
REMARK  11 active torsions:
REMARK  status: ('A' for Active; 'I' for Inactive)
REMARK    1  A    between atoms: C_2  and  C_3 
REMARK    2  A    between atoms: C_3  and  N_4 
REMARK    3  A    between atoms: C_5  and  C_6 
REMARK    4  A    between atoms: C_6  and  N_7 
REMARK    5  A    between atoms: N_7  and  C_8 
REMARK    6  A    between atoms: C_17  and  S_18 
REMARK    7  A    between atoms: S_18  and  C_19 
REMARK    8  A    between atoms: C_19  and  C_20 
REMARK       I    between atoms: C_20  and  N_22 
REMARK    9  A    between atoms: N_22  and  N_23 
REMARK   10  A    between atoms: C_24  and  C_25 
REMARK   11  A    between atoms: C_26  and  O_27 
ROOT
ATOM      1  S   UNL d   1      26.837 -12.670  -5.403  0.00  0.00    -0.081 SA
ENDROOT
BRANCH   1   2
ATOM      2  C   UNL d   1      26.365 -13.915  -4.210  0.00  0.00     0.192 A 
ATOM      3  N   UNL d   1      25.155 -14.457  -4.233  0.00  0.00    -0.122 NA
ATOM      4  N   UNL d   1      25.031 -15.401  -3.206  0.00  0.00    -0.132 NA
ATOM      5  C   UNL d   1      26.197 -15.446  -2.518  0.00  0.00     0.148 A 
ATOM      6  N   UNL d   1      27.120 -14.463  -3.160  0.00  0.00    -0.306 N 
BRANCH   5   7
ATOM      7  C   UNL d   1      26.514 -16.408  -1.234  0.00  0.00     0.200 C 
BRANCH   7   8
ATOM      8  N   UNL d   1      25.416 -16.512  -0.271  0.00  0.00    -0.383 N 
ATOM      9  H   UNL d   1      25.551 -16.065   0.603  0.00  0.00     0.160 HD
BRANCH   8  10
ATOM     10  C   UNL d   1      24.236 -17.196  -0.468  0.00  0.00     0.028 A 
ATOM     11  C   UNL d   1      23.046 -16.539  -0.735  0.00  0.00     0.029 A 
ATOM     12  C   UNL d   1      21.846 -17.229  -0.895  0.00  0.00     0.009 A 
ATOM     13  C   UNL d   1      21.793 -18.608  -0.782  0.00  0.00    -0.062 A 
ATOM     14  C   UNL d   1      20.495 -19.331  -0.921  0.00  0.00     0.048 C 
ATOM     15  C   UNL d   1      22.972 -19.283  -0.517  0.00  0.00     0.009 A 
ATOM     16  C   UNL d   1      24.178 -18.587  -0.370  0.00  0.00     0.029 A 
ENDBRANCH   8  10
ENDBRANCH   7   8
ENDBRANCH   5   7
BRANCH   6  17
ATOM     17  C   UNL d   1      28.532 -14.042  -2.870  0.00  0.00     0.159 C 
BRANCH  17  18
ATOM     18  C   UNL d   1      29.520 -15.168  -2.764  0.00  0.00    -0.017 C 
ATOM     19  C   UNL d   1      29.313 -16.460  -3.141  0.00  0.00     0.008 C 
ENDBRANCH  17  18
ENDBRANCH   6  17
ENDBRANCH   1   2
BRANCH   1  20
ATOM     20  C   UNL d   1      28.220 -13.195  -6.508  0.00  0.00     0.187 C 
BRANCH  20  21
ATOM     21  C   UNL d   1      28.565 -14.631  -6.525  0.00  0.00     0.247 C 
ATOM     22  O   UNL d   1      27.781 -15.390  -5.970  0.00  0.00    -0.271 OA
ATOM     23  N   UNL d   1      29.729 -15.043  -7.231  0.00  0.00    -0.247 N 
ATOM     24  H   UNL d   1      30.344 -14.416  -7.744  0.00  0.00     0.192 HD
BRANCH  23  25
ATOM     25  N   UNL d   1      30.055 -16.388  -7.173  0.00  0.00    -0.184 NA
ATOM     26  C   UNL d   1      30.549 -16.940  -6.108  0.00  0.00     0.153 C 
BRANCH  26  27
ATOM     27  C   UNL d   1      30.894 -18.404  -6.063  0.00  0.00     0.027 A 
ATOM     28  C   UNL d   1      30.975 -19.131  -7.274  0.00  0.00     0.078 A 
ATOM     29  C   UNL d   1      31.272 -20.495  -7.220  0.00  0.00     0.038 A 
ATOM     30  C   UNL d   1      31.478 -21.130  -6.009  0.00  0.00     0.015 A 
ATOM     31  C   UNL d   1      31.420 -20.430  -4.835  0.00  0.00    -0.025 A 
ATOM     32  C   UNL d   1      31.671 -21.166  -3.727  0.00  0.00     0.009 C 
ATOM     33  C   UNL d   1      31.130 -19.085  -4.723  0.00  0.00    -0.015 A 
ATOM     34  C   UNL d   1      31.585 -20.439  -2.607  0.00  0.00    -0.016 C 
ATOM     35  C   UNL d   1      31.508 -19.812  -1.513  0.00  0.00     0.043 C 
ATOM     36  C   UNL d   1      31.160 -18.797  -3.108  0.00  0.00    -0.004 C 
BRANCH  28  37
ATOM     37  O   UNL d   1      30.778 -18.619  -8.530  0.00  0.00    -0.360 OA
ATOM     38  H   UNL d   1      31.029 -17.689  -8.635  0.00  0.00     0.217 HD
ENDBRANCH  28  37
ENDBRANCH  26  27
ENDBRANCH  23  25
ENDBRANCH  20  21
ENDBRANCH   1  20
TORSDOF 11
ENDMDL
MODEL 2
REMARK VINA RESULT:    -9.278      1.326      2.578
REMARK INTER + INTRA:         -14.909
REMARK INTER:                 -12.559
REMARK INTRA:                  -2.349
REMARK CONF_INDEPENDENT:        3.281
REMARK UNBOUND:                -2.349
REMARK  11 active torsions:
REMARK  status: ('A' for Active; 'I' for Inactive)
REMARK    1  A    between atoms: C_2  and  C_3 
REMARK    2  A    between atoms: C_3  and  N_4 
REMARK    3  A    between atoms: C_5  and  C_6 
REMARK    4  A    between atoms: C_6  and  N_7 
REMARK    5  A    between atoms: N_7  and  C_8 
REMARK    6  A    between atoms: C_17  and  S_18 
REMARK    7  A    between atoms: S_18  and  C_19 
REMARK    8  A    between atoms: C_19  and  C_20 
REMARK       I    between atoms: C_20  and  N_22 
REMARK    9  A    between atoms: N_22  and  N_23 
REMARK   10  A    between atoms: C_24  and  C_25 
REMARK   11  A    between atoms: C_26  and  O_27 
ROOT
ATOM      1  S   UNL d   1      26.398 -12.254  -5.301  0.00  0.00    -0.081 SA
ENDROOT
BRANCH   1   2
ATOM      2  C   UNL d   1      25.890 -13.382  -4.010  0.00  0.00     0.192 A 
ATOM      3  N   UNL d   1      24.781 -14.098  -4.128  0.00  0.00    -0.122 NA
ATOM      4  N   UNL d   1      24.603 -14.902  -2.995  0.00  0.00    -0.132 NA
ATOM      5  C   UNL d   1      25.630 -14.675  -2.141  0.00  0.00     0.148 A 
ATOM      6  N   UNL d   1      26.517 -13.661  -2.785  0.00  0.00    -0.306 N 
BRANCH   5   7
ATOM      7  C   UNL d   1      25.842 -15.395  -0.687  0.00  0.00     0.200 C 
BRANCH   7   8
ATOM      8  N   UNL d   1      25.547 -16.829  -0.675  0.00  0.00    -0.383 N 
ATOM      9  H   UNL d   1      26.326 -17.441  -0.661  0.00  0.00     0.160 HD
BRANCH   8  10
ATOM     10  C   UNL d   1      24.289 -17.391  -0.711  0.00  0.00     0.028 A 
ATOM     11  C   UNL d   1      23.151 -16.622  -0.898  0.00  0.00     0.029 A 
ATOM     12  C   UNL d   1      21.876 -17.184  -0.895  0.00  0.00     0.009 A 
ATOM     13  C   UNL d   1      21.693 -18.541  -0.694  0.00  0.00    -0.062 A 
ATOM     14  C   UNL d   1      20.320 -19.125  -0.658  0.00  0.00     0.048 C 
ATOM     15  C   UNL d   1      22.818 -19.327  -0.507  0.00  0.00     0.009 A 
ATOM     16  C   UNL d   1      24.097 -18.760  -0.524  0.00  0.00     0.029 A 
ENDBRANCH   8  10
ENDBRANCH   7   8
ENDBRANCH   5   7
BRANCH   6  17
ATOM     17  C   UNL d   1      27.793 -12.996  -2.355  0.00  0.00     0.159 C 
BRANCH  17  18
ATOM     18  C   UNL d   1      29.000 -13.889  -2.340  0.00  0.00    -0.017 C 
ATOM     19  C   UNL d   1      29.011 -15.233  -2.560  0.00  0.00     0.008 C 
ENDBRANCH  17  18
ENDBRANCH   6  17
ENDBRANCH   1   2
BRANCH   1  20
ATOM     20  C   UNL d   1      27.797 -12.889  -6.325  0.00  0.00     0.187 C 
BRANCH  20  21
ATOM     21  C   UNL d   1      28.249 -14.271  -6.072  0.00  0.00     0.247 C 
ATOM     22  O   UNL d   1      27.385 -15.138  -6.064  0.00  0.00    -0.271 OA
ATOM     23  N   UNL d   1      29.642 -14.515  -5.923  0.00  0.00    -0.247 N 
ATOM     24  H   UNL d   1      30.363 -13.801  -5.992  0.00  0.00     0.192 HD
BRANCH  23  25
ATOM     25  N   UNL d   1      30.024 -15.813  -5.623  0.00  0.00    -0.184 NA
ATOM     26  C   UNL d   1      30.031 -16.760  -6.509  0.00  0.00     0.153 C 
BRANCH  26  27
ATOM     27  C   UNL d   1      30.453 -18.162  -6.165  0.00  0.00     0.027 A 
ATOM     28  C   UNL d   1      30.429 -18.578  -4.813  0.00  0.00     0.078 A 
ATOM     29  C   UNL d   1      30.846 -19.874  -4.501  0.00  0.00     0.038 A 
ATOM     30  C   UNL d   1      31.280 -20.738  -5.489  0.00  0.00     0.015 A 
ATOM     31  C   UNL d   1      31.288 -20.350  -6.801  0.00  0.00    -0.025 A 
ATOM     32  C   UNL d   1      31.707 -21.302  -7.668  0.00  0.00     0.009 C 
ATOM     33  C   UNL d   1      30.916 -19.104  -7.266  0.00  0.00    -0.015 A 
ATOM     34  C   UNL d   1      31.712 -20.867  -8.933  0.00  0.00    -0.016 C 
ATOM     35  C   UNL d   1      31.751 -20.515 -10.146  0.00  0.00     0.043 C 
ATOM     36  C   UNL d   1      31.158 -19.188  -8.887  0.00  0.00    -0.004 C 
BRANCH  28  37
ATOM     37  O   UNL d   1      30.035 -17.812  -3.747  0.00  0.00    -0.360 OA
ATOM     38  H   UNL d   1      29.600 -16.978  -3.983  0.00  0.00     0.217 HD
ENDBRANCH  28  37
ENDBRANCH  26  27
ENDBRANCH  23  25
ENDBRANCH  20  21
ENDBRANCH   1  20
TORSDOF 11
ENDMDL
MODEL 3
REMARK VINA RESULT:    -8.734      2.103      7.307
REMARK INTER + INTRA:         -14.183
REMARK INTER:                 -12.016
REMARK INTRA:                  -2.168
REMARK CONF_INDEPENDENT:        3.281
REMARK UNBOUND:                -2.168
REMARK  11 active torsions:
REMARK  status: ('A' for Active; 'I' for Inactive)
REMARK    1  A    between atoms: C_2  and  C_3 
REMARK    2  A    between atoms: C_3  and  N_4 
REMARK    3  A    between atoms: C_5  and  C_6 
REMARK    4  A    between atoms: C_6  and  N_7 
REMARK    5  A    between atoms: N_7  and  C_8 
REMARK    6  A    between atoms: C_17  and  S_18 
REMARK    7  A    between atoms: S_18  and  C_19 
REMARK    8  A    between atoms: C_19  and  C_20 
REMARK       I    between atoms: C_20  and  N_22 
REMARK    9  A    between atoms: N_22  and  N_23 
REMARK   10  A    between atoms: C_24  and  C_25 
REMARK   11  A    between atoms: C_26  and  O_27 
ROOT
ATOM      1  S   UNL d   1      27.122 -11.826  -6.279  0.00  0.00    -0.081 SA
ENDROOT
BRANCH   1   2
ATOM      2  C   UNL d   1      28.077 -13.333  -6.400  0.00  0.00     0.192 A 
ATOM      3  N   UNL d   1      27.526 -14.511  -6.145  0.00  0.00    -0.122 NA
ATOM      4  N   UNL d   1      28.472 -15.531  -6.311  0.00  0.00    -0.132 NA
ATOM      5  C   UNL d   1      29.650 -14.972  -6.674  0.00  0.00     0.148 A 
ATOM      6  N   UNL d   1      29.429 -13.497  -6.746  0.00  0.00    -0.306 N 
BRANCH   5   7
ATOM      7  C   UNL d   1      31.039 -15.779  -6.980  0.00  0.00     0.200 C 
BRANCH   7   8
ATOM      8  N   UNL d   1      30.849 -17.170  -7.398  0.00  0.00    -0.383 N 
ATOM      9  H   UNL d   1      30.728 -17.327  -8.369  0.00  0.00     0.160 HD
BRANCH   8  10
ATOM     10  C   UNL d   1      30.795 -18.261  -6.558  0.00  0.00     0.028 A 
ATOM     11  C   UNL d   1      30.783 -18.122  -5.180  0.00  0.00     0.029 A 
ATOM     12  C   UNL d   1      30.769 -19.226  -4.330  0.00  0.00     0.009 A 
ATOM     13  C   UNL d   1      30.777 -20.516  -4.832  0.00  0.00    -0.062 A 
ATOM     14  C   UNL d   1      30.797 -21.689  -3.911  0.00  0.00     0.048 C 
ATOM     15  C   UNL d   1      30.788 -20.676  -6.208  0.00  0.00     0.009 A 
ATOM     16  C   UNL d   1      30.789 -19.564  -7.058  0.00  0.00     0.029 A 
ENDBRANCH   8  10
ENDBRANCH   7   8
ENDBRANCH   5   7
BRANCH   6  17
ATOM     17  C   UNL d   1      30.327 -12.341  -7.080  0.00  0.00     0.159 C 
BRANCH  17  18
ATOM     18  C   UNL d   1      30.302 -11.914  -8.519  0.00  0.00    -0.017 C 
ATOM     19  C   UNL d   1      29.329 -12.200  -9.428  0.00  0.00     0.008 C 
ENDBRANCH  17  18
ENDBRANCH   6  17
ENDBRANCH   1   2
BRANCH   1  20
ATOM     20  C   UNL d   1      25.546 -12.026  -5.339  0.00  0.00     0.187 C 
BRANCH  20  21
ATOM     21  C   UNL d   1      25.523 -13.035  -4.262  0.00  0.00     0.247 C 
ATOM     22  O   UNL d   1      25.488 -12.612  -3.114  0.00  0.00    -0.271 OA
ATOM     23  N   UNL d   1      25.474 -14.411  -4.619  0.00  0.00    -0.247 N 
ATOM     24  H   UNL d   1      25.440 -14.758  -5.575  0.00  0.00     0.192 HD
BRANCH  23  25
ATOM     25  N   UNL d   1      25.517 -15.331  -3.584  0.00  0.00    -0.184 NA
ATOM     26  C   UNL d   1      26.558 -15.478  -2.825  0.00  0.00     0.153 C 
BRANCH  26  27
ATOM     27  C   UNL d   1      26.584 -16.480  -1.703  0.00  0.00     0.027 A 
ATOM     28  C   UNL d   1      27.829 -16.877  -1.160  0.00  0.00     0.078 A 
ATOM     29  C   UNL d   1      27.845 -17.825  -0.136  0.00  0.00     0.038 A 
ATOM     30  C   UNL d   1      26.668 -18.374   0.342  0.00  0.00     0.015 A 
ATOM     31  C   UNL d   1      25.460 -17.981  -0.164  0.00  0.00    -0.025 A 
ATOM     32  C   UNL d   1      24.388 -18.575   0.413  0.00  0.00     0.009 C 
ATOM     33  C   UNL d   1      25.280 -17.065  -1.181  0.00  0.00    -0.015 A 
ATOM     34  C   UNL d   1      23.233 -18.169  -0.128  0.00  0.00    -0.016 C 
ATOM     35  C   UNL d   1      22.111 -17.837  -0.604  0.00  0.00     0.043 C 
ATOM     36  C   UNL d   1      23.655 -17.012  -1.398  0.00  0.00    -0.004 C 
BRANCH  28  37
ATOM     37  O   UNL d   1      29.059 -16.418  -1.558  0.00  0.00    -0.360 OA
ATOM     38  H   UNL d   1      29.433 -16.871  -2.329  0.00  0.00     0.217 HD
ENDBRANCH  28  37
ENDBRANCH  26  27
ENDBRANCH  23  25
ENDBRANCH  20  21
ENDBRANCH   1  20
TORSDOF 11
ENDMDL
MODEL 4
REMARK VINA RESULT:    -8.667      1.753      2.649
REMARK INTER + INTRA:         -15.042
REMARK INTER:                 -11.948
REMARK INTRA:                  -3.094
REMARK CONF_INDEPENDENT:        3.281
REMARK UNBOUND:                -3.094
REMARK  11 active torsions:
REMARK  status: ('A' for Active; 'I' for Inactive)
REMARK    1  A    between atoms: C_2  and  C_3 
REMARK    2  A    between atoms: C_3  and  N_4 
REMARK    3  A    between atoms: C_5  and  C_6 
REMARK    4  A    between atoms: C_6  and  N_7 
REMARK    5  A    between atoms: N_7  and  C_8 
REMARK    6  A    between atoms: C_17  and  S_18 
REMARK    7  A    between atoms: S_18  and  C_19 
REMARK    8  A    between atoms: C_19  and  C_20 
REMARK       I    between atoms: C_20  and  N_22 
REMARK    9  A    between atoms: N_22  and  N_23 
REMARK   10  A    between atoms: C_24  and  C_25 
REMARK   11  A    between atoms: C_26  and  O_27 
ROOT
ATOM      1  S   UNL d   1      25.895 -11.976  -4.070  0.00  0.00    -0.081 SA
ENDROOT
BRANCH   1   2
ATOM      2  C   UNL d   1      25.921 -13.688  -3.554  0.00  0.00     0.192 A 
ATOM      3  N   UNL d   1      25.379 -14.635  -4.306  0.00  0.00    -0.122 NA
ATOM      4  N   UNL d   1      25.530 -15.885  -3.691  0.00  0.00    -0.132 NA
ATOM      5  C   UNL d   1      26.181 -15.710  -2.516  0.00  0.00     0.148 A 
ATOM      6  N   UNL d   1      26.463 -14.250  -2.386  0.00  0.00    -0.306 N 
BRANCH   5   7
ATOM      7  C   UNL d   1      26.581 -16.893  -1.459  0.00  0.00     0.200 C 
BRANCH   7   8
ATOM      8  N   UNL d   1      25.645 -17.045  -0.342  0.00  0.00    -0.383 N 
ATOM      9  H   UNL d   1      25.991 -16.819   0.558  0.00  0.00     0.160 HD
BRANCH   8  10
ATOM     10  C   UNL d   1      24.348 -17.501  -0.437  0.00  0.00     0.028 A 
ATOM     11  C   UNL d   1      24.031 -18.839  -0.269  0.00  0.00     0.029 A 
ATOM     12  C   UNL d   1      22.725 -19.307  -0.405  0.00  0.00     0.009 A 
ATOM     13  C   UNL d   1      21.687 -18.448  -0.724  0.00  0.00    -0.062 A 
ATOM     14  C   UNL d   1      20.300 -18.967  -0.901  0.00  0.00     0.048 C 
ATOM     15  C   UNL d   1      21.985 -17.106  -0.895  0.00  0.00     0.009 A 
ATOM     16  C   UNL d   1      23.295 -16.639  -0.745  0.00  0.00     0.029 A 
ENDBRANCH   8  10
ENDBRANCH   7   8
ENDBRANCH   5   7
BRANCH   6  17
ATOM     17  C   UNL d   1      27.139 -13.427  -1.328  0.00  0.00     0.159 C 
BRANCH  17  18
ATOM     18  C   UNL d   1      26.661 -13.678   0.073  0.00  0.00    -0.017 C 
ATOM     19  C   UNL d   1      26.767 -12.822   1.127  0.00  0.00     0.008 C 
ENDBRANCH  17  18
ENDBRANCH   6  17
ENDBRANCH   1   2
BRANCH   1  20
ATOM     20  C   UNL d   1      26.369 -11.733  -5.838  0.00  0.00     0.187 C 
BRANCH  20  21
ATOM     21  C   UNL d   1      27.505 -12.524  -6.350  0.00  0.00     0.247 C 
ATOM     22  O   UNL d   1      28.330 -11.924  -7.027  0.00  0.00    -0.271 OA
ATOM     23  N   UNL d   1      27.607 -13.892  -5.976  0.00  0.00    -0.247 N 
ATOM     24  H   UNL d   1      26.952 -14.372  -5.362  0.00  0.00     0.192 HD
BRANCH  23  25
ATOM     25  N   UNL d   1      28.650 -14.618  -6.526  0.00  0.00    -0.184 NA
ATOM     26  C   UNL d   1      29.235 -15.588  -5.893  0.00  0.00     0.153 C 
BRANCH  26  27
ATOM     27  C   UNL d   1      30.364 -16.367  -6.509  0.00  0.00     0.027 A 
ATOM     28  C   UNL d   1      31.178 -15.748  -7.488  0.00  0.00     0.078 A 
ATOM     29  C   UNL d   1      32.208 -16.487  -8.072  0.00  0.00     0.038 A 
ATOM     30  C   UNL d   1      32.432 -17.803  -7.709  0.00  0.00     0.015 A 
ATOM     31  C   UNL d   1      31.663 -18.403  -6.750  0.00  0.00    -0.025 A 
ATOM     32  C   UNL d   1      32.007 -19.682  -6.469  0.00  0.00     0.009 C 
ATOM     33  C   UNL d   1      30.605 -17.810  -6.090  0.00  0.00    -0.015 A 
ATOM     34  C   UNL d   1      31.215 -20.227  -5.539  0.00  0.00    -0.016 C 
ATOM     35  C   UNL d   1      30.496 -20.804  -4.676  0.00  0.00     0.043 C 
ATOM     36  C   UNL d   1      30.036 -18.985  -5.097  0.00  0.00    -0.004 C 
BRANCH  28  37
ATOM     37  O   UNL d   1      31.046 -14.460  -7.940  0.00  0.00    -0.360 OA
ATOM     38  H   UNL d   1      30.135 -14.129  -7.967  0.00  0.00     0.217 HD
ENDBRANCH  28  37
ENDBRANCH  26  27
ENDBRANCH  23  25
ENDBRANCH  20  21
ENDBRANCH   1  20
TORSDOF 11
ENDMDL
MODEL 5
REMARK VINA RESULT:    -8.309      2.128      3.690
REMARK INTER + INTRA:         -14.222
REMARK INTER:                 -11.590
REMARK INTRA:                  -2.632
REMARK CONF_INDEPENDENT:        3.281
REMARK UNBOUND:                -2.632
REMARK  11 active torsions:
REMARK  status: ('A' for Active; 'I' for Inactive)
REMARK    1  A    between atoms: C_2  and  C_3 
REMARK    2  A    between atoms: C_3  and  N_4 
REMARK    3  A    between atoms: C_5  and  C_6 
REMARK    4  A    between atoms: C_6  and  N_7 
REMARK    5  A    between atoms: N_7  and  C_8 
REMARK    6  A    between atoms: C_17  and  S_18 
REMARK    7  A    between atoms: S_18  and  C_19 
REMARK    8  A    between atoms: C_19  and  C_20 
REMARK       I    between atoms: C_20  and  N_22 
REMARK    9  A    between atoms: N_22  and  N_23 
REMARK   10  A    between atoms: C_24  and  C_25 
REMARK   11  A    between atoms: C_26  and  O_27 
ROOT
ATOM      1  S   UNL d   1      25.530 -12.075  -3.947  0.00  0.00    -0.081 SA
ENDROOT
BRANCH   1   2
ATOM      2  C   UNL d   1      25.715 -13.771  -3.410  0.00  0.00     0.192 A 
ATOM      3  N   UNL d   1      25.198 -14.768  -4.114  0.00  0.00    -0.122 NA
ATOM      4  N   UNL d   1      25.478 -15.992  -3.493  0.00  0.00    -0.132 NA
ATOM      5  C   UNL d   1      26.186 -15.750  -2.364  0.00  0.00     0.148 A 
ATOM      6  N   UNL d   1      26.367 -14.270  -2.271  0.00  0.00    -0.306 N 
BRANCH   5   7
ATOM      7  C   UNL d   1      26.736 -16.881  -1.318  0.00  0.00     0.200 C 
BRANCH   7   8
ATOM      8  N   UNL d   1      25.824 -17.173  -0.210  0.00  0.00    -0.383 N 
ATOM      9  H   UNL d   1      26.198 -17.091   0.704  0.00  0.00     0.160 HD
BRANCH   8  10
ATOM     10  C   UNL d   1      24.512 -17.576  -0.335  0.00  0.00     0.028 A 
ATOM     11  C   UNL d   1      24.155 -18.916  -0.322  0.00  0.00     0.029 A 
ATOM     12  C   UNL d   1      22.834 -19.325  -0.488  0.00  0.00     0.009 A 
ATOM     13  C   UNL d   1      21.819 -18.405  -0.684  0.00  0.00    -0.062 A 
ATOM     14  C   UNL d   1      20.413 -18.859  -0.895  0.00  0.00     0.048 C 
ATOM     15  C   UNL d   1      22.155 -17.061  -0.698  0.00  0.00     0.009 A 
ATOM     16  C   UNL d   1      23.482 -16.654  -0.518  0.00  0.00     0.029 A 
ENDBRANCH   8  10
ENDBRANCH   7   8
ENDBRANCH   5   7
BRANCH   6  17
ATOM     17  C   UNL d   1      27.045 -13.382  -1.269  0.00  0.00     0.159 C 
BRANCH  17  18
ATOM     18  C   UNL d   1      26.663 -13.633   0.162  0.00  0.00    -0.017 C 
ATOM     19  C   UNL d   1      27.284 -14.486   1.023  0.00  0.00     0.008 C 
ENDBRANCH  17  18
ENDBRANCH   6  17
ENDBRANCH   1   2
BRANCH   1  20
ATOM     20  C   UNL d   1      26.401 -11.705  -5.532  0.00  0.00     0.187 C 
BRANCH  20  21
ATOM     21  C   UNL d   1      27.473 -12.631  -5.948  0.00  0.00     0.247 C 
ATOM     22  O   UNL d   1      28.509 -12.122  -6.357  0.00  0.00    -0.271 OA
ATOM     23  N   UNL d   1      27.266 -14.029  -5.789  0.00  0.00    -0.247 N 
ATOM     24  H   UNL d   1      26.428 -14.445  -5.391  0.00  0.00     0.192 HD
BRANCH  23  25
ATOM     25  N   UNL d   1      28.267 -14.869  -6.249  0.00  0.00    -0.184 NA
ATOM     26  C   UNL d   1      29.288 -15.201  -5.520  0.00  0.00     0.153 C 
BRANCH  26  27
ATOM     27  C   UNL d   1      30.363 -16.118  -6.036  0.00  0.00     0.027 A 
ATOM     28  C   UNL d   1      30.468 -17.426  -5.506  0.00  0.00     0.078 A 
ATOM     29  C   UNL d   1      31.484 -18.262  -5.974  0.00  0.00     0.038 A 
ATOM     30  C   UNL d   1      32.377 -17.824  -6.935  0.00  0.00     0.015 A 
ATOM     31  C   UNL d   1      32.270 -16.568  -7.466  0.00  0.00    -0.025 A 
ATOM     32  C   UNL d   1      33.189 -16.279  -8.418  0.00  0.00     0.009 C 
ATOM     33  C   UNL d   1      31.330 -15.625  -7.102  0.00  0.00    -0.015 A 
ATOM     34  C   UNL d   1      33.051 -15.036  -8.893  0.00  0.00    -0.016 C 
ATOM     35  C   UNL d   1      32.983 -13.870  -9.374  0.00  0.00     0.043 C 
ATOM     36  C   UNL d   1      31.691 -14.316  -8.021  0.00  0.00    -0.004 C 
BRANCH  28  37
ATOM     37  O   UNL d   1      29.655 -17.967  -4.543  0.00  0.00    -0.360 OA
ATOM     38  H   UNL d   1      30.048 -18.015  -3.658  0.00  0.00     0.217 HD
ENDBRANCH  28  37
ENDBRANCH  26  27
ENDBRANCH  23  25
ENDBRANCH  20  21
ENDBRANCH   1  20
TORSDOF 11
ENDMDL
MODEL 6
REMARK VINA RESULT:    -7.930      3.953      7.207
REMARK INTER + INTRA:         -14.755
REMARK INTER:                 -11.212
REMARK INTRA:                  -3.544
REMARK CONF_INDEPENDENT:        3.281
REMARK UNBOUND:                -3.544
REMARK  11 active torsions:
REMARK  status: ('A' for Active; 'I' for Inactive)
REMARK    1  A    between atoms: C_2  and  C_3 
REMARK    2  A    between atoms: C_3  and  N_4 
REMARK    3  A    between atoms: C_5  and  C_6 
REMARK    4  A    between atoms: C_6  and  N_7 
REMARK    5  A    between atoms: N_7  and  C_8 
REMARK    6  A    between atoms: C_17  and  S_18 
REMARK    7  A    between atoms: S_18  and  C_19 
REMARK    8  A    between atoms: C_19  and  C_20 
REMARK       I    between atoms: C_20  and  N_22 
REMARK    9  A    between atoms: N_22  and  N_23 
REMARK   10  A    between atoms: C_24  and  C_25 
REMARK   11  A    between atoms: C_26  and  O_27 
ROOT
ATOM      1  S   UNL d   1      26.676 -12.955  -5.387  0.00  0.00    -0.081 SA
ENDROOT
BRANCH   1   2
ATOM      2  C   UNL d   1      26.304 -14.231  -4.190  0.00  0.00     0.192 A 
ATOM      3  N   UNL d   1      25.050 -14.564  -3.916  0.00  0.00    -0.122 NA
ATOM      4  N   UNL d   1      25.022 -15.584  -2.956  0.00  0.00    -0.132 NA
ATOM      5  C   UNL d   1      26.296 -15.892  -2.617  0.00  0.00     0.148 A 
ATOM      6  N   UNL d   1      27.189 -15.006  -3.423  0.00  0.00    -0.306 N 
BRANCH   5   7
ATOM      7  C   UNL d   1      26.749 -17.028  -1.531  0.00  0.00     0.200 C 
BRANCH   7   8
ATOM      8  N   UNL d   1      25.834 -17.179  -0.398  0.00  0.00    -0.383 N 
ATOM      9  H   UNL d   1      26.209 -16.996   0.501  0.00  0.00     0.160 HD
BRANCH   8  10
ATOM     10  C   UNL d   1      24.518 -17.580  -0.476  0.00  0.00     0.028 A 
ATOM     11  C   UNL d   1      24.156 -18.916  -0.401  0.00  0.00     0.029 A 
ATOM     12  C   UNL d   1      22.829 -19.325  -0.520  0.00  0.00     0.009 A 
ATOM     13  C   UNL d   1      21.813 -18.407  -0.730  0.00  0.00    -0.062 A 
ATOM     14  C   UNL d   1      20.402 -18.862  -0.891  0.00  0.00     0.048 C 
ATOM     15  C   UNL d   1      22.156 -17.067  -0.806  0.00  0.00     0.009 A 
ATOM     16  C   UNL d   1      23.488 -16.660  -0.673  0.00  0.00     0.029 A 
ENDBRANCH   8  10
ENDBRANCH   7   8
ENDBRANCH   5   7
BRANCH   6  17
ATOM     17  C   UNL d   1      28.680 -14.854  -3.503  0.00  0.00     0.159 C 
BRANCH  17  18
ATOM     18  C   UNL d   1      29.447 -15.530  -2.403  0.00  0.00    -0.017 C 
ATOM     19  C   UNL d   1      29.806 -14.975  -1.212  0.00  0.00     0.008 C 
ENDBRANCH  17  18
ENDBRANCH   6  17
ENDBRANCH   1   2
BRANCH   1  20
ATOM     20  C   UNL d   1      27.066 -11.320  -4.623  0.00  0.00     0.187 C 
BRANCH  20  21
ATOM     21  C   UNL d   1      27.298 -11.292  -3.165  0.00  0.00     0.247 C 
ATOM     22  O   UNL d   1      28.053 -10.423  -2.747  0.00  0.00    -0.271 OA
ATOM     23  N   UNL d   1      26.591 -12.214  -2.344  0.00  0.00    -0.247 N 
ATOM     24  H   UNL d   1      25.918 -12.893  -2.689  0.00  0.00     0.192 HD
BRANCH  23  25
ATOM     25  N   UNL d   1      26.882 -12.200  -0.990  0.00  0.00    -0.184 NA
ATOM     26  C   UNL d   1      26.926 -13.282  -0.275  0.00  0.00     0.153 C 
BRANCH  26  27
ATOM     27  C   UNL d   1      27.248 -13.246   1.194  0.00  0.00     0.027 A 
ATOM     28  C   UNL d   1      27.634 -14.442   1.845  0.00  0.00     0.078 A 
ATOM     29  C   UNL d   1      27.906 -14.404   3.214  0.00  0.00     0.038 A 
ATOM     30  C   UNL d   1      27.798 -13.224   3.928  0.00  0.00     0.015 A 
ATOM     31  C   UNL d   1      27.445 -12.060   3.302  0.00  0.00    -0.025 A 
ATOM     32  C   UNL d   1      27.405 -10.975   4.110  0.00  0.00     0.009 C 
ATOM     33  C   UNL d   1      27.135 -11.938   1.962  0.00  0.00    -0.015 A 
ATOM     34  C   UNL d   1      27.039  -9.868   3.453  0.00  0.00    -0.016 C 
ATOM     35  C   UNL d   1      26.686  -8.791   2.896  0.00  0.00     0.043 C 
ATOM     36  C   UNL d   1      26.755 -10.353   1.776  0.00  0.00    -0.004 C 
BRANCH  28  37
ATOM     37  O   UNL d   1      27.762 -15.671   1.252  0.00  0.00    -0.360 OA
ATOM     38  H   UNL d   1      28.632 -16.086   1.357  0.00  0.00     0.217 HD
ENDBRANCH  28  37
ENDBRANCH  26  27
ENDBRANCH  23  25
ENDBRANCH  20  21
ENDBRANCH   1  20
TORSDOF 11
ENDMDL
MODEL 7
REMARK VINA RESULT:    -7.657      5.679      8.284
REMARK INTER + INTRA:         -13.982
REMARK INTER:                 -10.938
REMARK INTRA:                  -3.044
REMARK CONF_INDEPENDENT:        3.281
REMARK UNBOUND:                -3.044
REMARK  11 active torsions:
REMARK  status: ('A' for Active; 'I' for Inactive)
REMARK    1  A    between atoms: C_2  and  C_3 
REMARK    2  A    between atoms: C_3  and  N_4 
REMARK    3  A    between atoms: C_5  and  C_6 
REMARK    4  A    between atoms: C_6  and  N_7 
REMARK    5  A    between atoms: N_7  and  C_8 
REMARK    6  A    between atoms: C_17  and  S_18 
REMARK    7  A    between atoms: S_18  and  C_19 
REMARK    8  A    between atoms: C_19  and  C_20 
REMARK       I    between atoms: C_20  and  N_22 
REMARK    9  A    between atoms: N_22  and  N_23 
REMARK   10  A    between atoms: C_24  and  C_25 
REMARK   11  A    between atoms: C_26  and  O_27 
ROOT
ATOM      1  S   UNL d   1      27.902 -11.299   4.524  0.00  0.00    -0.081 SA
ENDROOT
BRANCH   1   2
ATOM      2  C   UNL d   1      27.667 -12.520   3.237  0.00  0.00     0.192 A 
ATOM      3  N   UNL d   1      26.657 -12.425   2.385  0.00  0.00    -0.122 NA
ATOM      4  N   UNL d   1      26.691 -13.492   1.477  0.00  0.00    -0.132 NA
ATOM      5  C   UNL d   1      27.752 -14.278   1.777  0.00  0.00     0.148 A 
ATOM      6  N   UNL d   1      28.434 -13.661   2.953  0.00  0.00    -0.306 N 
BRANCH   5   7
ATOM      7  C   UNL d   1      28.188 -15.639   0.982  0.00  0.00     0.200 C 
BRANCH   7   8
ATOM      8  N   UNL d   1      27.452 -15.875  -0.262  0.00  0.00    -0.383 N 
ATOM      9  H   UNL d   1      27.861 -15.520  -1.092  0.00  0.00     0.160 HD
BRANCH   8  10
ATOM     10  C   UNL d   1      26.236 -16.515  -0.367  0.00  0.00     0.028 A 
ATOM     11  C   UNL d   1      25.170 -15.951  -1.050  0.00  0.00     0.029 A 
ATOM     12  C   UNL d   1      23.929 -16.579  -1.122  0.00  0.00     0.009 A 
ATOM     13  C   UNL d   1      23.706 -17.797  -0.501  0.00  0.00    -0.062 A 
ATOM     14  C   UNL d   1      22.362 -18.442  -0.557  0.00  0.00     0.048 C 
ATOM     15  C   UNL d   1      24.760 -18.377   0.185  0.00  0.00     0.009 A 
ATOM     16  C   UNL d   1      26.008 -17.748   0.244  0.00  0.00     0.029 A 
ENDBRANCH   8  10
ENDBRANCH   7   8
ENDBRANCH   5   7
BRANCH   6  17
ATOM     17  C   UNL d   1      29.645 -14.046   3.754  0.00  0.00     0.159 C 
BRANCH  17  18
ATOM     18  C   UNL d   1      29.351 -14.681   5.082  0.00  0.00    -0.017 C 
ATOM     19  C   UNL d   1      28.156 -15.201   5.481  0.00  0.00     0.008 C 
ENDBRANCH  17  18
ENDBRANCH   6  17
ENDBRANCH   1   2
BRANCH   1  20
ATOM     20  C   UNL d   1      27.291  -9.619   4.065  0.00  0.00     0.187 C 
BRANCH  20  21
ATOM     21  C   UNL d   1      26.900  -9.401   2.659  0.00  0.00     0.247 C 
ATOM     22  O   UNL d   1      26.087  -8.510   2.447  0.00  0.00    -0.271 OA
ATOM     23  N   UNL d   1      27.529 -10.178   1.647  0.00  0.00    -0.247 N 
ATOM     24  H   UNL d   1      28.250 -10.874   1.821  0.00  0.00     0.192 HD
BRANCH  23  25
ATOM     25  N   UNL d   1      27.092  -9.990   0.346  0.00  0.00    -0.184 NA
ATOM     26  C   UNL d   1      27.356 -10.830  -0.606  0.00  0.00     0.153 C 
BRANCH  26  27
ATOM     27  C   UNL d   1      26.868 -10.611  -2.012  0.00  0.00     0.027 A 
ATOM     28  C   UNL d   1      26.756  -9.289  -2.506  0.00  0.00     0.078 A 
ATOM     29  C   UNL d   1      26.280  -9.094  -3.804  0.00  0.00     0.038 A 
ATOM     30  C   UNL d   1      25.916 -10.168  -4.596  0.00  0.00     0.015 A 
ATOM     31  C   UNL d   1      26.039 -11.449  -4.133  0.00  0.00    -0.025 A 
ATOM     32  C   UNL d   1      25.677 -12.406  -5.020  0.00  0.00     0.009 C 
ATOM     33  C   UNL d   1      26.484 -11.803  -2.875  0.00  0.00    -0.015 A 
ATOM     34  C   UNL d   1      25.800 -13.638  -4.513  0.00  0.00    -0.016 C 
ATOM     35  C   UNL d   1      25.882 -14.826  -4.091  0.00  0.00     0.043 C 
ATOM     36  C   UNL d   1      26.390 -13.441  -2.858  0.00  0.00    -0.004 C 
BRANCH  28  37
ATOM     37  O   UNL d   1      27.070  -8.147  -1.814  0.00  0.00    -0.360 OA
ATOM     38  H   UNL d   1      27.194  -8.270  -0.860  0.00  0.00     0.217 HD
ENDBRANCH  28  37
ENDBRANCH  26  27
ENDBRANCH  23  25
ENDBRANCH  20  21
ENDBRANCH   1  20
TORSDOF 11
ENDMDL
MODEL 8
REMARK VINA RESULT:    -7.374      2.127      6.895
REMARK INTER + INTRA:         -14.467
REMARK INTER:                 -10.655
REMARK INTRA:                  -3.813
REMARK CONF_INDEPENDENT:        3.281
REMARK UNBOUND:                -3.813
REMARK  11 active torsions:
REMARK  status: ('A' for Active; 'I' for Inactive)
REMARK    1  A    between atoms: C_2  and  C_3 
REMARK    2  A    between atoms: C_3  and  N_4 
REMARK    3  A    between atoms: C_5  and  C_6 
REMARK    4  A    between atoms: C_6  and  N_7 
REMARK    5  A    between atoms: N_7  and  C_8 
REMARK    6  A    between atoms: C_17  and  S_18 
REMARK    7  A    between atoms: S_18  and  C_19 
REMARK    8  A    between atoms: C_19  and  C_20 
REMARK       I    between atoms: C_20  and  N_22 
REMARK    9  A    between atoms: N_22  and  N_23 
REMARK   10  A    between atoms: C_24  and  C_25 
REMARK   11  A    between atoms: C_26  and  O_27 
ROOT
ATOM      1  S   UNL d   1      27.096 -12.140  -6.408  0.00  0.00    -0.081 SA
ENDROOT
BRANCH   1   2
ATOM      2  C   UNL d   1      28.124 -13.565  -6.078  0.00  0.00     0.192 A 
ATOM      3  N   UNL d   1      27.787 -14.767  -6.525  0.00  0.00    -0.122 NA
ATOM      4  N   UNL d   1      28.749 -15.710  -6.141  0.00  0.00    -0.132 NA
ATOM      5  C   UNL d   1      29.711 -15.079  -5.428  0.00  0.00     0.148 A 
ATOM      6  N   UNL d   1      29.330 -13.637  -5.362  0.00  0.00    -0.306 N 
BRANCH   5   7
ATOM      7  C   UNL d   1      31.037 -15.783  -4.778  0.00  0.00     0.200 C 
BRANCH   7   8
ATOM      8  N   UNL d   1      30.748 -16.739  -3.706  0.00  0.00    -0.383 N 
ATOM      9  H   UNL d   1      30.542 -16.356  -2.816  0.00  0.00     0.160 HD
BRANCH   8  10
ATOM     10  C   UNL d   1      30.771 -18.111  -3.827  0.00  0.00     0.028 A 
ATOM     11  C   UNL d   1      31.182 -18.929  -2.786  0.00  0.00     0.029 A 
ATOM     12  C   UNL d   1      31.243 -20.315  -2.921  0.00  0.00     0.009 A 
ATOM     13  C   UNL d   1      30.901 -20.933  -4.112  0.00  0.00    -0.062 A 
ATOM     14  C   UNL d   1      31.005 -22.415  -4.253  0.00  0.00     0.048 C 
ATOM     15  C   UNL d   1      30.486 -20.133  -5.163  0.00  0.00     0.009 A 
ATOM     16  C   UNL d   1      30.415 -18.742  -5.019  0.00  0.00     0.029 A 
ENDBRANCH   8  10
ENDBRANCH   7   8
ENDBRANCH   5   7
BRANCH   6  17
ATOM     17  C   UNL d   1      29.967 -12.437  -4.722  0.00  0.00     0.159 C 
BRANCH  17  18
ATOM     18  C   UNL d   1      29.145 -11.777  -3.654  0.00  0.00    -0.017 C 
ATOM     19  C   UNL d   1      28.477 -12.405  -2.646  0.00  0.00     0.008 C 
ENDBRANCH  17  18
ENDBRANCH   6  17
ENDBRANCH   1   2
BRANCH   1  20
ATOM     20  C   UNL d   1      25.598 -12.047  -5.333  0.00  0.00     0.187 C 
BRANCH  20  21
ATOM     21  C   UNL d   1      25.485 -13.035  -4.242  0.00  0.00     0.247 C 
ATOM     22  O   UNL d   1      25.161 -12.604  -3.142  0.00  0.00    -0.271 OA
ATOM     23  N   UNL d   1      25.690 -14.410  -4.543  0.00  0.00    -0.247 N 
ATOM     24  H   UNL d   1      25.898 -14.772  -5.470  0.00  0.00     0.192 HD
BRANCH  23  25
ATOM     25  N   UNL d   1      25.638 -15.300  -3.483  0.00  0.00    -0.184 NA
ATOM     26  C   UNL d   1      26.674 -15.573  -2.750  0.00  0.00     0.153 C 
BRANCH  26  27
ATOM     27  C   UNL d   1      26.597 -16.540  -1.600  0.00  0.00     0.027 A 
ATOM     28  C   UNL d   1      27.788 -16.921  -0.938  0.00  0.00     0.078 A 
ATOM     29  C   UNL d   1      27.709 -17.838   0.112  0.00  0.00     0.038 A 
ATOM     30  C   UNL d   1      26.493 -18.370   0.501  0.00  0.00     0.015 A 
ATOM     31  C   UNL d   1      25.335 -17.992  -0.121  0.00  0.00    -0.025 A 
ATOM     32  C   UNL d   1      24.214 -18.566   0.376  0.00  0.00     0.009 C 
ATOM     33  C   UNL d   1      25.250 -17.107  -1.178  0.00  0.00    -0.015 A 
ATOM     34  C   UNL d   1      23.114 -18.175  -0.277  0.00  0.00    -0.016 C 
ATOM     35  C   UNL d   1      22.039 -17.857  -0.859  0.00  0.00     0.043 C 
ATOM     36  C   UNL d   1      23.651 -17.058  -1.538  0.00  0.00    -0.004 C 
BRANCH  28  37
ATOM     37  O   UNL d   1      29.049 -16.476  -1.240  0.00  0.00    -0.360 OA
ATOM     38  H   UNL d   1      29.240 -15.568  -0.956  0.00  0.00     0.217 HD
ENDBRANCH  28  37
ENDBRANCH  26  27
ENDBRANCH  23  25
ENDBRANCH  20  21
ENDBRANCH   1  20
TORSDOF 11
ENDMDL
MODEL 9
REMARK VINA RESULT:    -6.876      2.026      3.612
REMARK INTER + INTRA:         -14.081
REMARK INTER:                 -10.157
REMARK INTRA:                  -3.924
REMARK CONF_INDEPENDENT:        3.281
REMARK UNBOUND:                -3.924
REMARK  11 active torsions:
REMARK  status: ('A' for Active; 'I' for Inactive)
REMARK    1  A    between atoms: C_2  and  C_3 
REMARK    2  A    between atoms: C_3  and  N_4 
REMARK    3  A    between atoms: C_5  and  C_6 
REMARK    4  A    between atoms: C_6  and  N_7 
REMARK    5  A    between atoms: N_7  and  C_8 
REMARK    6  A    between atoms: C_17  and  S_18 
REMARK    7  A    between atoms: S_18  and  C_19 
REMARK    8  A    between atoms: C_19  and  C_20 
REMARK       I    between atoms: C_20  and  N_22 
REMARK    9  A    between atoms: N_22  and  N_23 
REMARK   10  A    between atoms: C_24  and  C_25 
REMARK   11  A    between atoms: C_26  and  O_27 
ROOT
ATOM      1  S   UNL d   1      27.951 -11.956  -4.279  0.00  0.00    -0.081 SA
ENDROOT
BRANCH   1   2
ATOM      2  C   UNL d   1      28.545 -12.752  -2.791  0.00  0.00     0.192 A 
ATOM      3  N   UNL d   1      29.842 -12.818  -2.525  0.00  0.00    -0.122 NA
ATOM      4  N   UNL d   1      30.050 -13.483  -1.309  0.00  0.00    -0.132 NA
ATOM      5  C   UNL d   1      28.847 -13.848  -0.806  0.00  0.00     0.148 A 
ATOM      6  N   UNL d   1      27.809 -13.376  -1.770  0.00  0.00    -0.306 N 
BRANCH   5   7
ATOM      7  C   UNL d   1      28.600 -14.647   0.600  0.00  0.00     0.200 C 
BRANCH   7   8
ATOM      8  N   UNL d   1      28.398 -16.090   0.446  0.00  0.00    -0.383 N 
ATOM      9  H   UNL d   1      29.191 -16.665   0.592  0.00  0.00     0.160 HD
BRANCH   8  10
ATOM     10  C   UNL d   1      27.215 -16.701   0.091  0.00  0.00     0.028 A 
ATOM     11  C   UNL d   1      26.573 -16.412  -1.102  0.00  0.00     0.029 A 
ATOM     12  C   UNL d   1      25.357 -17.000  -1.443  0.00  0.00     0.009 A 
ATOM     13  C   UNL d   1      24.732 -17.897  -0.593  0.00  0.00    -0.062 A 
ATOM     14  C   UNL d   1      23.413 -18.493  -0.955  0.00  0.00     0.048 C 
ATOM     15  C   UNL d   1      25.359 -18.200   0.604  0.00  0.00     0.009 A 
ATOM     16  C   UNL d   1      26.587 -17.616   0.936  0.00  0.00     0.029 A 
ENDBRANCH   8  10
ENDBRANCH   7   8
ENDBRANCH   5   7
BRANCH   6  17
ATOM     17  C   UNL d   1      26.311 -13.473  -1.792  0.00  0.00     0.159 C 
BRANCH  17  18
ATOM     18  C   UNL d   1      25.734 -14.098  -3.030  0.00  0.00    -0.017 C 
ATOM     19  C   UNL d   1      24.915 -13.489  -3.933  0.00  0.00     0.008 C 
ENDBRANCH  17  18
ENDBRANCH   6  17
ENDBRANCH   1   2
BRANCH   1  20
ATOM     20  C   UNL d   1      27.937 -13.067  -5.753  0.00  0.00     0.187 C 
BRANCH  20  21
ATOM     21  C   UNL d   1      28.438 -14.444  -5.569  0.00  0.00     0.247 C 
ATOM     22  O   UNL d   1      27.902 -15.317  -6.241  0.00  0.00    -0.271 OA
ATOM     23  N   UNL d   1      29.535 -14.659  -4.690  0.00  0.00    -0.247 N 
ATOM     24  H   UNL d   1      30.018 -13.922  -4.181  0.00  0.00     0.192 HD
BRANCH  23  25
ATOM     25  N   UNL d   1      29.936 -15.970  -4.494  0.00  0.00    -0.184 NA
ATOM     26  C   UNL d   1      30.092 -16.482  -3.312  0.00  0.00     0.153 C 
BRANCH  26  27
ATOM     27  C   UNL d   1      30.525 -17.910  -3.120  0.00  0.00     0.027 A 
ATOM     28  C   UNL d   1      30.759 -18.390  -1.809  0.00  0.00     0.078 A 
ATOM     29  C   UNL d   1      31.183 -19.710  -1.642  0.00  0.00     0.038 A 
ATOM     30  C   UNL d   1      31.378 -20.537  -2.734  0.00  0.00     0.015 A 
ATOM     31  C   UNL d   1      31.135 -20.086  -4.002  0.00  0.00    -0.025 A 
ATOM     32  C   UNL d   1      31.336 -21.006  -4.975  0.00  0.00     0.009 C 
ATOM     33  C   UNL d   1      30.722 -18.810  -4.330  0.00  0.00    -0.015 A 
ATOM     34  C   UNL d   1      31.101 -20.511  -6.196  0.00  0.00    -0.016 C 
ATOM     35  C   UNL d   1      30.907 -20.102  -7.375  0.00  0.00     0.043 C 
ATOM     36  C   UNL d   1      30.628 -18.822  -5.968  0.00  0.00    -0.004 C 
BRANCH  28  37
ATOM     37  O   UNL d   1      30.616 -17.665  -0.654  0.00  0.00    -0.360 OA
ATOM     38  H   UNL d   1      30.547 -18.196   0.154  0.00  0.00     0.217 HD
ENDBRANCH  28  37
ENDBRANCH  26  27
ENDBRANCH  23  25
ENDBRANCH  20  21
ENDBRANCH   1  20
TORSDOF 11
ENDMDL
