MODEL 1
REMARK VINA RESULT:    -8.619      0.000      0.000
REMARK INTER + INTRA:         -12.326
REMARK INTER:                 -11.006
REMARK INTRA:                  -1.320
REMARK CONF_INDEPENDENT:        2.386
REMARK UNBOUND:                -1.320
REMARK  8 active torsions:
REMARK  status: ('A' for Active; 'I' for Inactive)
REMARK    1  A    between atoms: C_2  and  O_3 
REMARK    2  A    between atoms: O_3  and  C_4 
REMARK    3  A    between atoms: C_4  and  C_6 
REMARK    4  A    between atoms: C_9  and  N_10 
REMARK    5  A    between atoms: N_10  and  C_11 
REMARK    6  A    between atoms: C_11  and  N_13 
REMARK    7  A    between atoms: N_13  and  N_14 
REMARK       I    between atoms: N_14  and  C_15 
REMARK    8  A    between atoms: C_15  and  C_17 
ROOT
ATOM      1  C   UNL d   1      26.306 -15.587  -0.687  0.00  0.00     0.191 C 
ATOM      2  S   UNL d   1      27.678 -14.714  -0.210  0.00  0.00    -0.039 SA
ENDROOT
BRANCH   1   3
ATOM      3  N   UNL d   1      25.714 -16.714  -0.038  0.00  0.00    -0.332 N 
ATOM      4  H   UNL d   1      26.277 -17.208   0.650  0.00  0.00     0.168 HD
BRANCH   3   5
ATOM      5  C   UNL d   1      24.409 -17.347  -0.294  0.00  0.00     0.034 A 
ATOM      6  C   UNL d   1      24.224 -18.747  -0.306  0.00  0.00     0.030 A 
ATOM      7  C   UNL d   1      22.956 -19.329  -0.645  0.00  0.00     0.020 A 
ATOM      8  C   UNL d   1      21.832 -18.529  -0.917  0.00  0.00     0.039 A 
ATOM      9  C   UNL d   1      22.001 -17.161  -0.895  0.00  0.00     0.020 A 
ATOM     10  C   UNL d   1      23.249 -16.614  -0.562  0.00  0.00     0.030 A 
BRANCH   8  11
ATOM     11  C   UNL d   1      20.457 -19.098  -0.983  0.00  0.00     0.293 C 
ATOM     12  O   UNL d   1      20.062 -19.700  -1.981  0.00  0.00    -0.259 OA
BRANCH  11  13
ATOM     13  O   UNL d   1      19.747 -18.925   0.166  0.00  0.00    -0.318 OA
BRANCH  13  14
ATOM     14  C   UNL d   1      19.869 -20.021   1.100  0.00  0.00     0.174 C 
ATOM     15  C   UNL d   1      18.725 -21.009   0.917  0.00  0.00     0.034 C 
ENDBRANCH  13  14
ENDBRANCH  11  13
ENDBRANCH   8  11
ENDBRANCH   3   5
ENDBRANCH   1   3
BRANCH   1  16
ATOM     16  N   UNL d   1      25.678 -15.139  -1.881  0.00  0.00    -0.273 N 
ATOM     17  H   UNL d   1      24.677 -15.088  -2.058  0.00  0.00     0.189 HD
BRANCH  16  18
ATOM     18  N   UNL d   1      26.570 -14.609  -2.976  0.00  0.00    -0.262 N 
ATOM     19  C   UNL d   1      26.179 -14.373  -4.303  0.00  0.00     0.289 C 
ATOM     20  O   UNL d   1      25.025 -14.631  -4.643  0.00  0.00    -0.264 OA
ATOM     21  H   UNL d   1      27.469 -14.293  -2.615  0.00  0.00     0.190 HD
BRANCH  19  22
ATOM     22  C   UNL d   1      27.201 -13.835  -5.250  0.00  0.00     0.141 A 
ATOM     23  C   UNL d   1      28.460 -14.315  -5.643  0.00  0.00     0.070 A 
ATOM     24 BR   UNL d   1      29.265 -15.951  -5.190  0.00  0.00    -0.046 Br
ATOM     25  C   UNL d   1      29.075 -13.350  -6.503  0.00  0.00     0.070 A 
ATOM     26  C   UNL d   1      30.391 -13.304  -7.243  0.00  0.00     0.074 C 
ATOM     27  N   UNL d   1      28.254 -12.304  -6.631  0.00  0.00    -0.176 NA
ATOM     28  N   UNL d   1      27.169 -12.607  -5.884  0.00  0.00    -0.267 N 
ATOM     29  C   UNL d   1      26.141 -11.599  -5.786  0.00  0.00     0.180 C 
ENDBRANCH  19  22
ENDBRANCH  16  18
ENDBRANCH   1  16
TORSDOF 8
ENDMDL
MODEL 2
REMARK VINA RESULT:    -8.612      4.846      6.054
REMARK INTER + INTRA:         -12.752
REMARK INTER:                 -10.999
REMARK INTRA:                  -1.753
REMARK CONF_INDEPENDENT:        2.386
REMARK UNBOUND:                -1.753
REMARK  8 active torsions:
REMARK  status: ('A' for Active; 'I' for Inactive)
REMARK    1  A    between atoms: C_2  and  O_3 
REMARK    2  A    between atoms: O_3  and  C_4 
REMARK    3  A    between atoms: C_4  and  C_6 
REMARK    4  A    between atoms: C_9  and  N_10 
REMARK    5  A    between atoms: N_10  and  C_11 
REMARK    6  A    between atoms: C_11  and  N_13 
REMARK    7  A    between atoms: N_13  and  N_14 
REMARK       I    between atoms: N_14  and  C_15 
REMARK    8  A    between atoms: C_15  and  C_17 
ROOT
ATOM      1  C   UNL d   1      26.814 -17.054   0.298  0.00  0.00     0.191 C 
ATOM      2  S   UNL d   1      27.261 -18.659   0.606  0.00  0.00    -0.039 SA
ENDROOT
BRANCH   1   3
ATOM      3  N   UNL d   1      25.495 -16.526   0.141  0.00  0.00    -0.332 N 
ATOM      4  H   UNL d   1      25.354 -15.543   0.365  0.00  0.00     0.168 HD
BRANCH   3   5
ATOM      5  C   UNL d   1      24.252 -17.232  -0.210  0.00  0.00     0.034 A 
ATOM      6  C   UNL d   1      24.172 -18.638  -0.322  0.00  0.00     0.030 A 
ATOM      7  C   UNL d   1      22.965 -19.285  -0.751  0.00  0.00     0.020 A 
ATOM      8  C   UNL d   1      21.795 -18.552  -1.015  0.00  0.00     0.039 A 
ATOM      9  C   UNL d   1      21.860 -17.180  -0.897  0.00  0.00     0.020 A 
ATOM     10  C   UNL d   1      23.051 -16.568  -0.476  0.00  0.00     0.030 A 
BRANCH   8  11
ATOM     11  C   UNL d   1      20.470 -19.213  -1.175  0.00  0.00     0.293 C 
ATOM     12  O   UNL d   1      20.279 -20.060  -2.048  0.00  0.00    -0.259 OA
BRANCH  11  13
ATOM     13  O   UNL d   1      19.557 -18.823  -0.244  0.00  0.00    -0.318 OA
BRANCH  13  14
ATOM     14  C   UNL d   1      19.663 -19.530   1.012  0.00  0.00     0.174 C 
ATOM     15  C   UNL d   1      19.206 -20.973   0.852  0.00  0.00     0.034 C 
ENDBRANCH  13  14
ENDBRANCH  11  13
ENDBRANCH   8  11
ENDBRANCH   3   5
ENDBRANCH   1   3
BRANCH   1  16
ATOM     16  N   UNL d   1      27.887 -16.130   0.178  0.00  0.00    -0.273 N 
ATOM     17  H   UNL d   1      28.518 -16.031  -0.615  0.00  0.00     0.189 HD
BRANCH  16  18
ATOM     18  N   UNL d   1      28.074 -15.137   1.297  0.00  0.00    -0.262 N 
ATOM     19  C   UNL d   1      27.182 -14.105   1.629  0.00  0.00     0.289 C 
ATOM     20  O   UNL d   1      26.162 -13.954   0.956  0.00  0.00    -0.264 OA
ATOM     21  H   UNL d   1      28.859 -15.383   1.897  0.00  0.00     0.190 HD
BRANCH  19  22
ATOM     22  C   UNL d   1      27.530 -13.219   2.780  0.00  0.00     0.141 A 
ATOM     23  C   UNL d   1      27.866 -13.502   4.112  0.00  0.00     0.070 A 
ATOM     24 BR   UNL d   1      28.140 -15.185   4.902  0.00  0.00    -0.046 Br
ATOM     25  C   UNL d   1      28.005 -12.270   4.827  0.00  0.00     0.070 A 
ATOM     26  C   UNL d   1      28.366 -11.928   6.252  0.00  0.00     0.074 C 
ATOM     27  N   UNL d   1      27.750 -11.259   3.991  0.00  0.00    -0.176 NA
ATOM     28  N   UNL d   1      27.467 -11.839   2.803  0.00  0.00    -0.267 N 
ATOM     29  C   UNL d   1      27.077 -10.962   1.725  0.00  0.00     0.180 C 
ENDBRANCH  19  22
ENDBRANCH  16  18
ENDBRANCH   1  16
TORSDOF 8
ENDMDL
MODEL 3
REMARK VINA RESULT:    -8.525      2.102      2.603
REMARK INTER + INTRA:         -12.383
REMARK INTER:                 -10.912
REMARK INTRA:                  -1.471
REMARK CONF_INDEPENDENT:        2.386
REMARK UNBOUND:                -1.471
REMARK  8 active torsions:
REMARK  status: ('A' for Active; 'I' for Inactive)
REMARK    1  A    between atoms: C_2  and  O_3 
REMARK    2  A    between atoms: O_3  and  C_4 
REMARK    3  A    between atoms: C_4  and  C_6 
REMARK    4  A    between atoms: C_9  and  N_10 
REMARK    5  A    between atoms: N_10  and  C_11 
REMARK    6  A    between atoms: C_11  and  N_13 
REMARK    7  A    between atoms: N_13  and  N_14 
REMARK       I    between atoms: N_14  and  C_15 
REMARK    8  A    between atoms: C_15  and  C_17 
ROOT
ATOM      1  C   UNL d   1      26.782 -17.362   0.347  0.00  0.00     0.191 C 
ATOM      2  S   UNL d   1      27.028 -18.934   0.932  0.00  0.00    -0.039 SA
ENDROOT
BRANCH   1   3
ATOM      3  N   UNL d   1      25.543 -16.738   0.003  0.00  0.00    -0.332 N 
ATOM      4  H   UNL d   1      25.513 -15.722   0.010  0.00  0.00     0.168 HD
BRANCH   3   5
ATOM      5  C   UNL d   1      24.239 -17.364  -0.271  0.00  0.00     0.034 A 
ATOM      6  C   UNL d   1      24.047 -18.762  -0.295  0.00  0.00     0.030 A 
ATOM      7  C   UNL d   1      22.780 -19.335  -0.650  0.00  0.00     0.020 A 
ATOM      8  C   UNL d   1      21.663 -18.529  -0.927  0.00  0.00     0.039 A 
ATOM      9  C   UNL d   1      21.837 -17.162  -0.895  0.00  0.00     0.020 A 
ATOM     10  C   UNL d   1      23.085 -16.623  -0.545  0.00  0.00     0.030 A 
BRANCH   8  11
ATOM     11  C   UNL d   1      20.286 -19.091  -1.011  0.00  0.00     0.293 C 
ATOM     12  O   UNL d   1      19.903 -19.699  -2.010  0.00  0.00    -0.259 OA
BRANCH  11  13
ATOM     13  O   UNL d   1      19.558 -18.904   0.124  0.00  0.00    -0.318 OA
BRANCH  13  14
ATOM     14  C   UNL d   1      19.860 -19.848   1.175  0.00  0.00     0.174 C 
ATOM     15  C   UNL d   1      18.772 -20.908   1.271  0.00  0.00     0.034 C 
ENDBRANCH  13  14
ENDBRANCH  11  13
ENDBRANCH   8  11
ENDBRANCH   3   5
ENDBRANCH   1   3
BRANCH   1  16
ATOM     16  N   UNL d   1      27.956 -16.580   0.177  0.00  0.00    -0.273 N 
ATOM     17  H   UNL d   1      28.592 -16.271   0.910  0.00  0.00     0.189 HD
BRANCH  16  18
ATOM     18  N   UNL d   1      28.357 -16.229  -1.234  0.00  0.00    -0.262 N 
ATOM     19  C   UNL d   1      27.503 -15.703  -2.217  0.00  0.00     0.289 C 
ATOM     20  O   UNL d   1      26.317 -15.520  -1.945  0.00  0.00    -0.264 OA
ATOM     21  H   UNL d   1      29.365 -16.277  -1.367  0.00  0.00     0.190 HD
BRANCH  19  22
ATOM     22  C   UNL d   1      28.081 -15.408  -3.562  0.00  0.00     0.141 A 
ATOM     23  C   UNL d   1      27.673 -14.543  -4.589  0.00  0.00     0.070 A 
ATOM     24 BR   UNL d   1      26.267 -13.298  -4.559  0.00  0.00    -0.046 Br
ATOM     25  C   UNL d   1      28.533 -14.727  -5.718  0.00  0.00     0.070 A 
ATOM     26  C   UNL d   1      28.610 -14.086  -7.084  0.00  0.00     0.074 C 
ATOM     27  N   UNL d   1      29.428 -15.676  -5.426  0.00  0.00    -0.176 NA
ATOM     28  N   UNL d   1      29.138 -16.064  -4.164  0.00  0.00    -0.267 N 
ATOM     29  C   UNL d   1      29.920 -17.148  -3.619  0.00  0.00     0.180 C 
ENDBRANCH  19  22
ENDBRANCH  16  18
ENDBRANCH   1  16
TORSDOF 8
ENDMDL
MODEL 4
REMARK VINA RESULT:    -8.457      1.542      1.890
REMARK INTER + INTRA:         -12.085
REMARK INTER:                 -10.844
REMARK INTRA:                  -1.242
REMARK CONF_INDEPENDENT:        2.386
REMARK UNBOUND:                -1.242
REMARK  8 active torsions:
REMARK  status: ('A' for Active; 'I' for Inactive)
REMARK    1  A    between atoms: C_2  and  O_3 
REMARK    2  A    between atoms: O_3  and  C_4 
REMARK    3  A    between atoms: C_4  and  C_6 
REMARK    4  A    between atoms: C_9  and  N_10 
REMARK    5  A    between atoms: N_10  and  C_11 
REMARK    6  A    between atoms: C_11  and  N_13 
REMARK    7  A    between atoms: N_13  and  N_14 
REMARK       I    between atoms: N_14  and  C_15 
REMARK    8  A    between atoms: C_15  and  C_17 
ROOT
ATOM      1  C   UNL d   1      26.759 -16.352  -1.071  0.00  0.00     0.191 C 
ATOM      2  S   UNL d   1      28.317 -15.739  -0.806  0.00  0.00    -0.039 SA
ENDROOT
BRANCH   1   3
ATOM      3  N   UNL d   1      25.849 -16.883  -0.106  0.00  0.00    -0.332 N 
ATOM      4  H   UNL d   1      26.184 -16.980   0.850  0.00  0.00     0.168 HD
BRANCH   3   5
ATOM      5  C   UNL d   1      24.494 -17.420  -0.311  0.00  0.00     0.034 A 
ATOM      6  C   UNL d   1      24.203 -18.802  -0.289  0.00  0.00     0.030 A 
ATOM      7  C   UNL d   1      22.886 -19.292  -0.580  0.00  0.00     0.020 A 
ATOM      8  C   UNL d   1      21.818 -18.415  -0.835  0.00  0.00     0.039 A 
ATOM      9  C   UNL d   1      22.089 -17.063  -0.847  0.00  0.00     0.020 A 
ATOM     10  C   UNL d   1      23.385 -16.606  -0.561  0.00  0.00     0.030 A 
BRANCH   8  11
ATOM     11  C   UNL d   1      20.403 -18.879  -0.850  0.00  0.00     0.293 C 
ATOM     12  O   UNL d   1      19.468 -18.079  -0.894  0.00  0.00    -0.259 OA
BRANCH  11  13
ATOM     13  O   UNL d   1      20.280 -20.235  -0.865  0.00  0.00    -0.318 OA
BRANCH  13  14
ATOM     14  C   UNL d   1      20.065 -20.818   0.439  0.00  0.00     0.174 C 
ATOM     15  C   UNL d   1      18.777 -20.289   1.055  0.00  0.00     0.034 C 
ENDBRANCH  13  14
ENDBRANCH  11  13
ENDBRANCH   8  11
ENDBRANCH   3   5
ENDBRANCH   1   3
BRANCH   1  16
ATOM     16  N   UNL d   1      26.314 -16.335  -2.421  0.00  0.00    -0.273 N 
ATOM     17  H   UNL d   1      25.463 -16.757  -2.786  0.00  0.00     0.189 HD
BRANCH  16  18
ATOM     18  N   UNL d   1      27.137 -15.549  -3.411  0.00  0.00    -0.262 N 
ATOM     19  C   UNL d   1      26.628 -14.823  -4.500  0.00  0.00     0.289 C 
ATOM     20  O   UNL d   1      25.415 -14.825  -4.708  0.00  0.00    -0.264 OA
ATOM     21  H   UNL d   1      28.111 -15.474  -3.123  0.00  0.00     0.190 HD
BRANCH  19  22
ATOM     22  C   UNL d   1      27.598 -14.096  -5.373  0.00  0.00     0.141 A 
ATOM     23  C   UNL d   1      27.561 -12.819  -5.954  0.00  0.00     0.070 A 
ATOM     24 BR   UNL d   1      26.276 -11.472  -5.703  0.00  0.00    -0.046 Br
ATOM     25  C   UNL d   1      28.711 -12.659  -6.792  0.00  0.00     0.070 A 
ATOM     26  C   UNL d   1      29.227 -11.526  -7.645  0.00  0.00     0.074 C 
ATOM     27  N   UNL d   1      29.428 -13.787  -6.757  0.00  0.00    -0.176 NA
ATOM     28  N   UNL d   1      28.753 -14.614  -5.927  0.00  0.00    -0.267 N 
ATOM     29  C   UNL d   1      29.278 -15.949  -5.767  0.00  0.00     0.180 C 
ENDBRANCH  19  22
ENDBRANCH  16  18
ENDBRANCH   1  16
TORSDOF 8
ENDMDL
MODEL 5
REMARK VINA RESULT:    -8.222      1.671      2.114
REMARK INTER + INTRA:         -11.930
REMARK INTER:                 -10.608
REMARK INTRA:                  -1.321
REMARK CONF_INDEPENDENT:        2.386
REMARK UNBOUND:                -1.321
REMARK  8 active torsions:
REMARK  status: ('A' for Active; 'I' for Inactive)
REMARK    1  A    between atoms: C_2  and  O_3 
REMARK    2  A    between atoms: O_3  and  C_4 
REMARK    3  A    between atoms: C_4  and  C_6 
REMARK    4  A    between atoms: C_9  and  N_10 
REMARK    5  A    between atoms: N_10  and  C_11 
REMARK    6  A    between atoms: C_11  and  N_13 
REMARK    7  A    between atoms: N_13  and  N_14 
REMARK       I    between atoms: N_14  and  C_15 
REMARK    8  A    between atoms: C_15  and  C_17 
ROOT
ATOM      1  C   UNL d   1      27.686 -16.611  -1.206  0.00  0.00     0.191 C 
ATOM      2  S   UNL d   1      29.370 -16.507  -1.045  0.00  0.00    -0.039 SA
ENDROOT
BRANCH   1   3
ATOM      3  N   UNL d   1      26.733 -17.007  -0.218  0.00  0.00    -0.332 N 
ATOM      4  H   UNL d   1      27.078 -17.183   0.722  0.00  0.00     0.168 HD
BRANCH   3   5
ATOM      5  C   UNL d   1      25.300 -17.304  -0.383  0.00  0.00     0.034 A 
ATOM      6  C   UNL d   1      24.355 -16.333  -0.780  0.00  0.00     0.030 A 
ATOM      7  C   UNL d   1      22.954 -16.639  -0.846  0.00  0.00     0.020 A 
ATOM      8  C   UNL d   1      22.473 -17.932  -0.580  0.00  0.00     0.039 A 
ATOM      9  C   UNL d   1      23.390 -18.890  -0.203  0.00  0.00     0.020 A 
ATOM     10  C   UNL d   1      24.755 -18.569  -0.145  0.00  0.00     0.030 A 
BRANCH   8  11
ATOM     11  C   UNL d   1      21.082 -18.342  -0.920  0.00  0.00     0.293 C 
ATOM     12  O   UNL d   1      20.241 -17.516  -1.274  0.00  0.00    -0.259 OA
BRANCH  11  13
ATOM     13  O   UNL d   1      20.884 -19.688  -0.849  0.00  0.00    -0.318 OA
BRANCH  13  14
ATOM     14  C   UNL d   1      19.577 -20.062  -0.361  0.00  0.00     0.174 C 
ATOM     15  C   UNL d   1      19.688 -20.737   0.999  0.00  0.00     0.034 C 
ENDBRANCH  13  14
ENDBRANCH  11  13
ENDBRANCH   8  11
ENDBRANCH   3   5
ENDBRANCH   1   3
BRANCH   1  16
ATOM     16  N   UNL d   1      27.169 -16.264  -2.484  0.00  0.00    -0.273 N 
ATOM     17  H   UNL d   1      26.187 -16.191  -2.743  0.00  0.00     0.189 HD
BRANCH  16  18
ATOM     18  N   UNL d   1      28.164 -15.888  -3.554  0.00  0.00    -0.262 N 
ATOM     19  C   UNL d   1      27.846 -15.550  -4.879  0.00  0.00     0.289 C 
ATOM     20  O   UNL d   1      26.669 -15.575  -5.239  0.00  0.00    -0.264 OA
ATOM     21  H   UNL d   1      29.100 -15.758  -3.175  0.00  0.00     0.190 HD
BRANCH  19  22
ATOM     22  C   UNL d   1      28.967 -15.195  -5.800  0.00  0.00     0.141 A 
ATOM     23  C   UNL d   1      30.136 -15.881  -6.162  0.00  0.00     0.070 A 
ATOM     24 BR   UNL d   1      30.643 -17.627  -5.691  0.00  0.00    -0.046 Br
ATOM     25  C   UNL d   1      30.926 -15.036  -7.005  0.00  0.00     0.070 A 
ATOM     26  C   UNL d   1      32.249 -15.214  -7.712  0.00  0.00     0.074 C 
ATOM     27  N   UNL d   1      30.296 -13.867  -7.153  0.00  0.00    -0.176 NA
ATOM     28  N   UNL d   1      29.157 -13.981  -6.433  0.00  0.00    -0.267 N 
ATOM     29  C   UNL d   1      28.312 -12.814  -6.359  0.00  0.00     0.180 C 
ENDBRANCH  19  22
ENDBRANCH  16  18
ENDBRANCH   1  16
TORSDOF 8
ENDMDL
MODEL 6
REMARK VINA RESULT:    -8.138      4.754      6.792
REMARK INTER + INTRA:         -11.872
REMARK INTER:                 -10.525
REMARK INTRA:                  -1.347
REMARK CONF_INDEPENDENT:        2.386
REMARK UNBOUND:                -1.347
REMARK  8 active torsions:
REMARK  status: ('A' for Active; 'I' for Inactive)
REMARK    1  A    between atoms: C_2  and  O_3 
REMARK    2  A    between atoms: O_3  and  C_4 
REMARK    3  A    between atoms: C_4  and  C_6 
REMARK    4  A    between atoms: C_9  and  N_10 
REMARK    5  A    between atoms: N_10  and  C_11 
REMARK    6  A    between atoms: C_11  and  N_13 
REMARK    7  A    between atoms: N_13  and  N_14 
REMARK       I    between atoms: N_14  and  C_15 
REMARK    8  A    between atoms: C_15  and  C_17 
ROOT
ATOM      1  C   UNL d   1      28.447 -16.139   0.181  0.00  0.00     0.191 C 
ATOM      2  S   UNL d   1      30.134 -15.985   0.126  0.00  0.00    -0.039 SA
ENDROOT
BRANCH   1   3
ATOM      3  N   UNL d   1      27.668 -17.323   0.003  0.00  0.00    -0.332 N 
ATOM      4  H   UNL d   1      28.165 -18.209  -0.047  0.00  0.00     0.168 HD
BRANCH   3   5
ATOM      5  C   UNL d   1      26.218 -17.450  -0.224  0.00  0.00     0.034 A 
ATOM      6  C   UNL d   1      25.484 -16.547  -1.024  0.00  0.00     0.030 A 
ATOM      7  C   UNL d   1      24.059 -16.653  -1.151  0.00  0.00     0.020 A 
ATOM      8  C   UNL d   1      23.343 -17.696  -0.538  0.00  0.00     0.039 A 
ATOM      9  C   UNL d   1      24.053 -18.590   0.235  0.00  0.00     0.020 A 
ATOM     10  C   UNL d   1      25.447 -18.467   0.346  0.00  0.00     0.030 A 
BRANCH   8  11
ATOM     11  C   UNL d   1      21.927 -17.993  -0.889  0.00  0.00     0.293 C 
ATOM     12  O   UNL d   1      21.112 -17.090  -1.080  0.00  0.00    -0.259 OA
BRANCH  11  13
ATOM     13  O   UNL d   1      21.672 -19.324  -1.020  0.00  0.00    -0.318 OA
BRANCH  13  14
ATOM     14  C   UNL d   1      20.277 -19.671  -0.875  0.00  0.00     0.174 C 
ATOM     15  C   UNL d   1      19.955 -19.996   0.576  0.00  0.00     0.034 C 
ENDBRANCH  13  14
ENDBRANCH  11  13
ENDBRANCH   8  11
ENDBRANCH   3   5
ENDBRANCH   1   3
BRANCH   1  16
ATOM     16  N   UNL d   1      27.729 -14.938   0.431  0.00  0.00    -0.273 N 
ATOM     17  H   UNL d   1      27.026 -14.514  -0.170  0.00  0.00     0.189 HD
BRANCH  16  18
ATOM     18  N   UNL d   1      27.967 -14.251   1.753  0.00  0.00    -0.262 N 
ATOM     19  C   UNL d   1      27.186 -13.212   2.284  0.00  0.00     0.289 C 
ATOM     20  O   UNL d   1      26.233 -12.785   1.632  0.00  0.00    -0.264 OA
ATOM     21  H   UNL d   1      28.681 -14.724   2.305  0.00  0.00     0.190 HD
BRANCH  19  22
ATOM     22  C   UNL d   1      27.569 -12.658   3.617  0.00  0.00     0.141 A 
ATOM     23  C   UNL d   1      27.977 -13.278   4.808  0.00  0.00     0.070 A 
ATOM     24 BR   UNL d   1      28.330 -15.100   5.100  0.00  0.00    -0.046 Br
ATOM     25  C   UNL d   1      28.120 -12.279   5.824  0.00  0.00     0.070 A 
ATOM     26  C   UNL d   1      28.542 -12.322   7.273  0.00  0.00     0.074 C 
ATOM     27  N   UNL d   1      27.800 -11.090   5.304  0.00  0.00    -0.176 NA
ATOM     28  N   UNL d   1      27.474 -11.338   4.016  0.00  0.00    -0.267 N 
ATOM     29  C   UNL d   1      27.010 -10.218   3.233  0.00  0.00     0.180 C 
ENDBRANCH  19  22
ENDBRANCH  16  18
ENDBRANCH   1  16
TORSDOF 8
ENDMDL
MODEL 7
REMARK VINA RESULT:    -7.859      2.610      3.128
REMARK INTER + INTRA:         -12.041
REMARK INTER:                 -10.245
REMARK INTRA:                  -1.796
REMARK CONF_INDEPENDENT:        2.386
REMARK UNBOUND:                -1.796
REMARK  8 active torsions:
REMARK  status: ('A' for Active; 'I' for Inactive)
REMARK    1  A    between atoms: C_2  and  O_3 
REMARK    2  A    between atoms: O_3  and  C_4 
REMARK    3  A    between atoms: C_4  and  C_6 
REMARK    4  A    between atoms: C_9  and  N_10 
REMARK    5  A    between atoms: N_10  and  C_11 
REMARK    6  A    between atoms: C_11  and  N_13 
REMARK    7  A    between atoms: N_13  and  N_14 
REMARK       I    between atoms: N_14  and  C_15 
REMARK    8  A    between atoms: C_15  and  C_17 
ROOT
ATOM      1  C   UNL d   1      26.884 -17.008  -0.198  0.00  0.00     0.191 C 
ATOM      2  S   UNL d   1      27.251 -18.570   0.347  0.00  0.00    -0.039 SA
ENDROOT
BRANCH   1   3
ATOM      3  N   UNL d   1      25.624 -16.512  -0.657  0.00  0.00    -0.332 N 
ATOM      4  H   UNL d   1      25.576 -15.532  -0.925  0.00  0.00     0.168 HD
BRANCH   3   5
ATOM      5  C   UNL d   1      24.324 -17.200  -0.708  0.00  0.00     0.034 A 
ATOM      6  C   UNL d   1      23.105 -16.525  -0.938  0.00  0.00     0.030 A 
ATOM      7  C   UNL d   1      21.849 -17.217  -0.894  0.00  0.00     0.020 A 
ATOM      8  C   UNL d   1      21.784 -18.606  -0.684  0.00  0.00     0.039 A 
ATOM      9  C   UNL d   1      22.970 -19.276  -0.471  0.00  0.00     0.020 A 
ATOM     10  C   UNL d   1      24.187 -18.579  -0.518  0.00  0.00     0.030 A 
BRANCH   8  11
ATOM     11  C   UNL d   1      20.535 -19.382  -0.922  0.00  0.00     0.293 C 
ATOM     12  O   UNL d   1      20.278 -19.855  -2.029  0.00  0.00    -0.259 OA
BRANCH  11  13
ATOM     13  O   UNL d   1      19.779 -19.543   0.199  0.00  0.00    -0.318 OA
BRANCH  13  14
ATOM     14  C   UNL d   1      19.583 -20.923   0.580  0.00  0.00     0.174 C 
ATOM     15  C   UNL d   1      18.106 -21.211   0.805  0.00  0.00     0.034 C 
ENDBRANCH  13  14
ENDBRANCH  11  13
ENDBRANCH   8  11
ENDBRANCH   3   5
ENDBRANCH   1   3
BRANCH   1  16
ATOM     16  N   UNL d   1      27.967 -16.088  -0.200  0.00  0.00    -0.273 N 
ATOM     17  H   UNL d   1      28.843 -16.180   0.311  0.00  0.00     0.189 HD
BRANCH  16  18
ATOM     18  N   UNL d   1      27.854 -14.887  -1.106  0.00  0.00    -0.262 N 
ATOM     19  C   UNL d   1      27.014 -13.782  -0.894  0.00  0.00     0.289 C 
ATOM     20  O   UNL d   1      26.277 -13.769   0.092  0.00  0.00    -0.264 OA
ATOM     21  H   UNL d   1      28.571 -14.887  -1.829  0.00  0.00     0.190 HD
BRANCH  19  22
ATOM     22  C   UNL d   1      27.043 -12.677  -1.898  0.00  0.00     0.141 A 
ATOM     23  C   UNL d   1      26.413 -12.524  -3.142  0.00  0.00     0.070 A 
ATOM     24 BR   UNL d   1      25.146 -13.656  -3.942  0.00  0.00    -0.046 Br
ATOM     25  C   UNL d   1      26.870 -11.309  -3.746  0.00  0.00     0.070 A 
ATOM     26  C   UNL d   1      26.549 -10.606  -5.044  0.00  0.00     0.074 C 
ATOM     27  N   UNL d   1      27.760 -10.733  -2.932  0.00  0.00    -0.176 NA
ATOM     28  N   UNL d   1      27.850 -11.555  -1.862  0.00  0.00    -0.267 N 
ATOM     29  C   UNL d   1      28.813 -11.202  -0.847  0.00  0.00     0.180 C 
ENDBRANCH  19  22
ENDBRANCH  16  18
ENDBRANCH   1  16
TORSDOF 8
ENDMDL
MODEL 8
REMARK VINA RESULT:    -7.710      4.059      5.805
REMARK INTER + INTRA:         -11.725
REMARK INTER:                 -10.097
REMARK INTRA:                  -1.628
REMARK CONF_INDEPENDENT:        2.386
REMARK UNBOUND:                -1.628
REMARK  8 active torsions:
REMARK  status: ('A' for Active; 'I' for Inactive)
REMARK    1  A    between atoms: C_2  and  O_3 
REMARK    2  A    between atoms: O_3  and  C_4 
REMARK    3  A    between atoms: C_4  and  C_6 
REMARK    4  A    between atoms: C_9  and  N_10 
REMARK    5  A    between atoms: N_10  and  C_11 
REMARK    6  A    between atoms: C_11  and  N_13 
REMARK    7  A    between atoms: N_13  and  N_14 
REMARK       I    between atoms: N_14  and  C_15 
REMARK    8  A    between atoms: C_15  and  C_17 
ROOT
ATOM      1  C   UNL d   1      27.098 -16.322  -0.946  0.00  0.00     0.191 C 
ATOM      2  S   UNL d   1      27.795 -16.067  -2.470  0.00  0.00    -0.039 SA
ENDROOT
BRANCH   1   3
ATOM      3  N   UNL d   1      25.762 -16.027  -0.532  0.00  0.00    -0.332 N 
ATOM      4  H   UNL d   1      25.597 -15.128  -0.087  0.00  0.00     0.168 HD
BRANCH   3   5
ATOM      5  C   UNL d   1      24.572 -16.894  -0.565  0.00  0.00     0.034 A 
ATOM      6  C   UNL d   1      24.638 -18.295  -0.408  0.00  0.00     0.030 A 
ATOM      7  C   UNL d   1      23.467 -19.116  -0.532  0.00  0.00     0.020 A 
ATOM      8  C   UNL d   1      22.198 -18.553  -0.751  0.00  0.00     0.039 A 
ATOM      9  C   UNL d   1      22.122 -17.184  -0.894  0.00  0.00     0.020 A 
ATOM     10  C   UNL d   1      23.280 -16.401  -0.769  0.00  0.00     0.030 A 
BRANCH   8  11
ATOM     11  C   UNL d   1      20.946 -19.345  -0.594  0.00  0.00     0.293 C 
ATOM     12  O   UNL d   1      20.288 -19.700  -1.571  0.00  0.00    -0.259 OA
BRANCH  11  13
ATOM     13  O   UNL d   1      20.666 -19.659   0.701  0.00  0.00    -0.318 OA
BRANCH  13  14
ATOM     14  C   UNL d   1      19.254 -19.692   1.003  0.00  0.00     0.174 C 
ATOM     15  C   UNL d   1      18.660 -21.045   0.635  0.00  0.00     0.034 C 
ENDBRANCH  13  14
ENDBRANCH  11  13
ENDBRANCH   8  11
ENDBRANCH   3   5
ENDBRANCH   1   3
BRANCH   1  16
ATOM     16  N   UNL d   1      27.954 -16.894   0.033  0.00  0.00    -0.273 N 
ATOM     17  H   UNL d   1      28.192 -17.879   0.132  0.00  0.00     0.189 HD
BRANCH  16  18
ATOM     18  N   UNL d   1      28.652 -15.949   0.980  0.00  0.00    -0.262 N 
ATOM     19  C   UNL d   1      28.067 -14.826   1.588  0.00  0.00     0.289 C 
ATOM     20  O   UNL d   1      26.896 -14.547   1.332  0.00  0.00    -0.264 OA
ATOM     21  H   UNL d   1      29.569 -16.294   1.256  0.00  0.00     0.190 HD
BRANCH  19  22
ATOM     22  C   UNL d   1      28.913 -14.008   2.509  0.00  0.00     0.141 A 
ATOM     23  C   UNL d   1      30.218 -13.509   2.387  0.00  0.00     0.070 A 
ATOM     24 BR   UNL d   1      31.350 -13.588   0.890  0.00  0.00    -0.046 Br
ATOM     25  C   UNL d   1      30.586 -12.872   3.615  0.00  0.00     0.070 A 
ATOM     26  C   UNL d   1      31.826 -12.147   4.081  0.00  0.00     0.074 C 
ATOM     27  N   UNL d   1      29.570 -12.982   4.477  0.00  0.00    -0.176 NA
ATOM     28  N   UNL d   1      28.607 -13.656   3.810  0.00  0.00    -0.267 N 
ATOM     29  C   UNL d   1      27.409 -13.981   4.546  0.00  0.00     0.180 C 
ENDBRANCH  19  22
ENDBRANCH  16  18
ENDBRANCH   1  16
TORSDOF 8
ENDMDL
MODEL 9
REMARK VINA RESULT:    -7.601      2.580      2.839
REMARK INTER + INTRA:         -11.793
REMARK INTER:                  -9.987
REMARK INTRA:                  -1.806
REMARK CONF_INDEPENDENT:        2.386
REMARK UNBOUND:                -1.806
REMARK  8 active torsions:
REMARK  status: ('A' for Active; 'I' for Inactive)
REMARK    1  A    between atoms: C_2  and  O_3 
REMARK    2  A    between atoms: O_3  and  C_4 
REMARK    3  A    between atoms: C_4  and  C_6 
REMARK    4  A    between atoms: C_9  and  N_10 
REMARK    5  A    between atoms: N_10  and  C_11 
REMARK    6  A    between atoms: C_11  and  N_13 
REMARK    7  A    between atoms: N_13  and  N_14 
REMARK       I    between atoms: N_14  and  C_15 
REMARK    8  A    between atoms: C_15  and  C_17 
ROOT
ATOM      1  C   UNL d   1      27.011 -16.646  -0.284  0.00  0.00     0.191 C 
ATOM      2  S   UNL d   1      27.628 -18.151   0.193  0.00  0.00    -0.039 SA
ENDROOT
BRANCH   1   3
ATOM      3  N   UNL d   1      25.649 -16.213  -0.271  0.00  0.00    -0.332 N 
ATOM      4  H   UNL d   1      25.470 -15.238  -0.044  0.00  0.00     0.168 HD
BRANCH   3   5
ATOM      5  C   UNL d   1      24.424 -17.011  -0.445  0.00  0.00     0.034 A 
ATOM      6  C   UNL d   1      24.421 -18.423  -0.451  0.00  0.00     0.030 A 
ATOM      7  C   UNL d   1      23.221 -19.166  -0.710  0.00  0.00     0.020 A 
ATOM      8  C   UNL d   1      21.988 -18.520  -0.906  0.00  0.00     0.039 A 
ATOM      9  C   UNL d   1      21.978 -17.141  -0.890  0.00  0.00     0.020 A 
ATOM     10  C   UNL d   1      23.164 -16.435  -0.636  0.00  0.00     0.030 A 
BRANCH   8  11
ATOM     11  C   UNL d   1      20.696 -19.262  -0.885  0.00  0.00     0.293 C 
ATOM     12  O   UNL d   1      20.276 -19.842  -1.886  0.00  0.00    -0.259 OA
BRANCH  11  13
ATOM     13  O   UNL d   1      20.096 -19.266   0.337  0.00  0.00    -0.318 OA
BRANCH  13  14
ATOM     14  C   UNL d   1      19.426 -20.505   0.657  0.00  0.00     0.174 C 
ATOM     15  C   UNL d   1      18.976 -20.510   2.111  0.00  0.00     0.034 C 
ENDBRANCH  13  14
ENDBRANCH  11  13
ENDBRANCH   8  11
ENDBRANCH   3   5
ENDBRANCH   1   3
BRANCH   1  16
ATOM     16  N   UNL d   1      27.971 -15.711  -0.757  0.00  0.00    -0.273 N 
ATOM     17  H   UNL d   1      28.944 -15.639  -0.466  0.00  0.00     0.189 HD
BRANCH  16  18
ATOM     18  N   UNL d   1      27.540 -14.773  -1.858  0.00  0.00    -0.262 N 
ATOM     19  C   UNL d   1      26.701 -13.660  -1.698  0.00  0.00     0.289 C 
ATOM     20  O   UNL d   1      26.241 -13.410  -0.584  0.00  0.00    -0.264 OA
ATOM     21  H   UNL d   1      28.047 -14.946  -2.724  0.00  0.00     0.190 HD
BRANCH  19  22
ATOM     22  C   UNL d   1      26.389 -12.838  -2.906  0.00  0.00     0.141 A 
ATOM     23  C   UNL d   1      26.480 -11.460  -3.151  0.00  0.00     0.070 A 
ATOM     24 BR   UNL d   1      27.193 -10.132  -2.031  0.00  0.00    -0.046 Br
ATOM     25  C   UNL d   1      25.950 -11.186  -4.453  0.00  0.00     0.070 A 
ATOM     26  C   UNL d   1      25.797  -9.925  -5.270  0.00  0.00     0.074 C 
ATOM     27  N   UNL d   1      25.528 -12.332  -4.994  0.00  0.00    -0.176 NA
ATOM     28  N   UNL d   1      25.787 -13.282  -4.068  0.00  0.00    -0.267 N 
ATOM     29  C   UNL d   1      25.355 -14.625  -4.372  0.00  0.00     0.180 C 
ENDBRANCH  19  22
ENDBRANCH  16  18
ENDBRANCH   1  16
TORSDOF 8
ENDMDL
