MODEL 1
REMARK VINA RESULT:    -9.778      0.000      0.000
REMARK INTER + INTRA:         -12.580
REMARK INTER:                 -11.270
REMARK INTRA:                  -1.311
REMARK CONF_INDEPENDENT:        1.492
REMARK UNBOUND:                -1.311
REMARK  5 active torsions:
REMARK  status: ('A' for Active; 'I' for Inactive)
REMARK    1  A    between atoms: C_5  and  C_6 
REMARK    2  A    between atoms: C_9  and  N_10 
REMARK    3  A    between atoms: N_10  and  N_11 
REMARK       I    between atoms: N_10  and  C_21 
REMARK       I    between atoms: N_11  and  C_12 
REMARK       I    between atoms: C_12  and  N_14 
REMARK    4  A    between atoms: N_14  and  C_15 
REMARK       I    between atoms: C_21  and  N_23 
REMARK    5  A    between atoms: N_23  and  C_24 
ROOT
ATOM      1  N   UNL d   1      27.031 -14.877  -1.260  0.00  0.00    -0.176 N 
ATOM      2  C   UNL d   1      25.748 -15.536  -1.415  0.00  0.00     0.348 C 
ATOM      3  O   UNL d   1      24.925 -15.245  -2.288  0.00  0.00    -0.245 OA
ATOM      4  N   UNL d   1      25.408 -16.547  -0.487  0.00  0.00    -0.307 N 
ATOM      5  H   UNL d   1      25.876 -16.592   0.398  0.00  0.00     0.170 HD
ENDROOT
BRANCH   1   6
ATOM      6  C   UNL d   1      27.263 -13.795  -2.221  0.00  0.00     0.197 C 
ATOM      7  S   UNL d   1      28.811 -13.411  -2.894  0.00  0.00    -0.060 SA
ATOM      8  C   UNL d   1      28.197 -12.306  -3.994  0.00  0.00     0.086 C 
ATOM      9  C   UNL d   1      26.899 -12.074  -3.628  0.00  0.00     0.076 C 
ATOM     10  N   UNL d   1      26.373 -12.909  -2.648  0.00  0.00    -0.222 NA
BRANCH   9  11
ATOM     11  C   UNL d   1      26.179 -10.980  -4.214  0.00  0.00    -0.007 A 
ATOM     12  C   UNL d   1      25.904 -10.986  -5.584  0.00  0.00     0.014 A 
ATOM     13  C   UNL d   1      25.218  -9.919  -6.147  0.00  0.00     0.007 A 
ATOM     14  C   UNL d   1      24.828  -8.841  -5.345  0.00  0.00    -0.062 A 
ATOM     15  C   UNL d   1      24.039  -7.712  -5.927  0.00  0.00     0.048 C 
ATOM     16  C   UNL d   1      25.155  -8.824  -3.981  0.00  0.00     0.007 A 
ATOM     17  C   UNL d   1      25.835  -9.893  -3.414  0.00  0.00     0.014 A 
ENDBRANCH   9  11
ENDBRANCH   1   6
BRANCH   1  18
ATOM     18  N   UNL d   1      27.917 -15.170  -0.040  0.00  0.00    -0.239 N 
ATOM     19  C   UNL d   1      27.826 -14.432   1.116  0.00  0.00     0.335 C 
ATOM     20  O   UNL d   1      27.101 -13.452   1.244  0.00  0.00    -0.246 OA
ATOM     21  N   UNL d   1      28.503 -14.825   2.242  0.00  0.00    -0.337 N 
ATOM     22  H   UNL d   1      29.456 -15.156   2.162  0.00  0.00     0.164 HD
ATOM     23  H   UNL d   1      28.847 -15.484  -0.272  0.00  0.00     0.192 HD
BRANCH  21  24
ATOM     24  C   UNL d   1      28.070 -14.196   3.541  0.00  0.00     0.086 C 
ATOM     25  C   UNL d   1      28.542 -14.956   4.821  0.00  0.00     0.025 C 
ATOM     26  C   UNL d   1      28.280 -14.196   6.123  0.00  0.00     0.002 C 
ATOM     27  C   UNL d   1      28.841 -12.779   6.085  0.00  0.00     0.000 C 
ATOM     28  C   UNL d   1      28.249 -12.006   4.913  0.00  0.00     0.002 C 
ATOM     29  C   UNL d   1      28.519 -12.707   3.588  0.00  0.00     0.025 C 
ENDBRANCH  21  24
ENDBRANCH   1  18
BRANCH   4  30
ATOM     30  C   UNL d   1      24.149 -17.265  -0.548  0.00  0.00     0.036 A 
ATOM     31  C   UNL d   1      22.924 -16.615  -0.775  0.00  0.00     0.031 A 
ATOM     32  C   UNL d   1      21.717 -17.330  -0.895  0.00  0.00     0.026 A 
ATOM     33  C   UNL d   1      21.709 -18.712  -0.760  0.00  0.00     0.034 A 
ATOM     34 CL   UNL d   1      20.229 -19.585  -0.895  0.00  0.00    -0.084 Cl
ATOM     35  C   UNL d   1      22.904 -19.384  -0.519  0.00  0.00     0.026 A 
ATOM     36  C   UNL d   1      24.119 -18.667  -0.430  0.00  0.00     0.031 A 
ENDBRANCH   4  30
TORSDOF 5
ENDMDL
MODEL 2
REMARK VINA RESULT:    -9.608      3.230      4.792
REMARK INTER + INTRA:         -12.607
REMARK INTER:                 -11.100
REMARK INTRA:                  -1.508
REMARK CONF_INDEPENDENT:        1.492
REMARK UNBOUND:                -1.508
REMARK  5 active torsions:
REMARK  status: ('A' for Active; 'I' for Inactive)
REMARK    1  A    between atoms: C_5  and  C_6 
REMARK    2  A    between atoms: C_9  and  N_10 
REMARK    3  A    between atoms: N_10  and  N_11 
REMARK       I    between atoms: N_10  and  C_21 
REMARK       I    between atoms: N_11  and  C_12 
REMARK       I    between atoms: C_12  and  N_14 
REMARK    4  A    between atoms: N_14  and  C_15 
REMARK       I    between atoms: C_21  and  N_23 
REMARK    5  A    between atoms: N_23  and  C_24 
ROOT
ATOM      1  N   UNL d   1      27.579 -16.278  -1.647  0.00  0.00    -0.176 N 
ATOM      2  C   UNL d   1      26.192 -16.698  -1.729  0.00  0.00     0.348 C 
ATOM      3  O   UNL d   1      25.528 -16.682  -2.769  0.00  0.00    -0.245 OA
ATOM      4  N   UNL d   1      25.558 -17.117  -0.536  0.00  0.00    -0.307 N 
ATOM      5  H   UNL d   1      25.936 -16.849   0.352  0.00  0.00     0.170 HD
ENDROOT
BRANCH   1   6
ATOM      6  C   UNL d   1      28.127 -15.791  -2.917  0.00  0.00     0.197 C 
ATOM      7  S   UNL d   1      27.598 -14.346  -3.710  0.00  0.00    -0.060 SA
ATOM      8  C   UNL d   1      28.811 -14.389  -4.866  0.00  0.00     0.086 C 
ATOM      9  C   UNL d   1      29.393 -15.623  -4.772  0.00  0.00     0.076 C 
ATOM     10  N   UNL d   1      29.022 -16.402  -3.681  0.00  0.00    -0.222 NA
BRANCH   9  11
ATOM     11  C   UNL d   1      30.292 -16.066  -5.799  0.00  0.00    -0.007 A 
ATOM     12  C   UNL d   1      30.974 -15.126  -6.576  0.00  0.00     0.014 A 
ATOM     13  C   UNL d   1      31.832 -15.561  -7.577  0.00  0.00     0.007 A 
ATOM     14  C   UNL d   1      31.990 -16.932  -7.811  0.00  0.00    -0.062 A 
ATOM     15  C   UNL d   1      32.953 -17.415  -8.847  0.00  0.00     0.048 C 
ATOM     16  C   UNL d   1      31.260 -17.863  -7.058  0.00  0.00     0.007 A 
ATOM     17  C   UNL d   1      30.407 -17.431  -6.052  0.00  0.00     0.014 A 
ENDBRANCH   9  11
ENDBRANCH   1   6
BRANCH   1  18
ATOM     18  N   UNL d   1      28.279 -16.154  -0.286  0.00  0.00    -0.239 N 
ATOM     19  C   UNL d   1      27.962 -15.154   0.603  0.00  0.00     0.335 C 
ATOM     20  O   UNL d   1      27.167 -14.254   0.362  0.00  0.00    -0.246 OA
ATOM     21  N   UNL d   1      28.477 -15.172   1.874  0.00  0.00    -0.337 N 
ATOM     22  H   UNL d   1      29.449 -15.414   2.016  0.00  0.00     0.164 HD
ATOM     23  H   UNL d   1      29.251 -16.421  -0.297  0.00  0.00     0.192 HD
BRANCH  21  24
ATOM     24  C   UNL d   1      27.808 -14.275   2.884  0.00  0.00     0.086 C 
ATOM     25  C   UNL d   1      27.976 -14.728   4.369  0.00  0.00     0.025 C 
ATOM     26  C   UNL d   1      27.479 -13.700   5.388  0.00  0.00     0.002 C 
ATOM     27  C   UNL d   1      28.087 -12.322   5.159  0.00  0.00     0.000 C 
ATOM     28  C   UNL d   1      27.780 -11.834   3.749  0.00  0.00     0.002 C 
ATOM     29  C   UNL d   1      28.293 -12.808   2.697  0.00  0.00     0.025 C 
ENDBRANCH  21  24
ENDBRANCH   1  18
BRANCH   4  30
ATOM     30  C   UNL d   1      24.175 -17.552  -0.505  0.00  0.00     0.036 A 
ATOM     31  C   UNL d   1      23.113 -16.706  -0.869  0.00  0.00     0.031 A 
ATOM     32  C   UNL d   1      21.780 -17.160  -0.895  0.00  0.00     0.026 A 
ATOM     33  C   UNL d   1      21.481 -18.465  -0.526  0.00  0.00     0.034 A 
ATOM     34 CL   UNL d   1      19.848 -19.015  -0.547  0.00  0.00    -0.084 Cl
ATOM     35  C   UNL d   1      22.509 -19.324  -0.146  0.00  0.00     0.026 A 
ATOM     36  C   UNL d   1      23.849 -18.875  -0.151  0.00  0.00     0.031 A 
ENDBRANCH   4  30
TORSDOF 5
ENDMDL
MODEL 3
REMARK VINA RESULT:    -9.596      1.808      2.238
REMARK INTER + INTRA:         -12.585
REMARK INTER:                 -11.088
REMARK INTRA:                  -1.497
REMARK CONF_INDEPENDENT:        1.492
REMARK UNBOUND:                -1.497
REMARK  5 active torsions:
REMARK  status: ('A' for Active; 'I' for Inactive)
REMARK    1  A    between atoms: C_5  and  C_6 
REMARK    2  A    between atoms: C_9  and  N_10 
REMARK    3  A    between atoms: N_10  and  N_11 
REMARK       I    between atoms: N_10  and  C_21 
REMARK       I    between atoms: N_11  and  C_12 
REMARK       I    between atoms: C_12  and  N_14 
REMARK    4  A    between atoms: N_14  and  C_15 
REMARK       I    between atoms: C_21  and  N_23 
REMARK    5  A    between atoms: N_23  and  C_24 
ROOT
ATOM      1  N   UNL d   1      27.550 -16.130  -1.621  0.00  0.00    -0.176 N 
ATOM      2  C   UNL d   1      26.173 -16.579  -1.707  0.00  0.00     0.348 C 
ATOM      3  O   UNL d   1      25.501 -16.546  -2.741  0.00  0.00    -0.245 OA
ATOM      4  N   UNL d   1      25.557 -17.049  -0.524  0.00  0.00    -0.307 N 
ATOM      5  H   UNL d   1      25.934 -16.800   0.370  0.00  0.00     0.170 HD
ENDROOT
BRANCH   1   6
ATOM      6  C   UNL d   1      28.079 -15.592  -2.878  0.00  0.00     0.197 C 
ATOM      7  S   UNL d   1      29.613 -16.030  -3.551  0.00  0.00    -0.060 SA
ATOM      8  C   UNL d   1      29.349 -15.222  -4.995  0.00  0.00     0.086 C 
ATOM      9  C   UNL d   1      28.243 -14.439  -4.806  0.00  0.00     0.076 C 
ATOM     10  N   UNL d   1      27.527 -14.651  -3.632  0.00  0.00    -0.222 NA
BRANCH   9  11
ATOM     11  C   UNL d   1      27.911 -13.430  -5.770  0.00  0.00    -0.007 A 
ATOM     12  C   UNL d   1      28.536 -13.434  -7.020  0.00  0.00     0.014 A 
ATOM     13  C   UNL d   1      28.221 -12.447  -7.944  0.00  0.00     0.007 A 
ATOM     14  C   UNL d   1      27.299 -11.448  -7.609  0.00  0.00    -0.062 A 
ATOM     15  C   UNL d   1      26.908 -10.413  -8.614  0.00  0.00     0.048 C 
ATOM     16  C   UNL d   1      26.719 -11.426  -6.333  0.00  0.00     0.007 A 
ATOM     17  C   UNL d   1      27.028 -12.416  -5.409  0.00  0.00     0.014 A 
ENDBRANCH   9  11
ENDBRANCH   1   6
BRANCH   1  18
ATOM     18  N   UNL d   1      28.257 -16.032  -0.261  0.00  0.00    -0.239 N 
ATOM     19  C   UNL d   1      27.943 -15.051   0.650  0.00  0.00     0.335 C 
ATOM     20  O   UNL d   1      27.145 -14.147   0.431  0.00  0.00    -0.246 OA
ATOM     21  N   UNL d   1      28.464 -15.094   1.918  0.00  0.00    -0.337 N 
ATOM     22  H   UNL d   1      29.437 -15.337   2.050  0.00  0.00     0.164 HD
ATOM     23  H   UNL d   1      29.230 -16.297  -0.282  0.00  0.00     0.192 HD
BRANCH  21  24
ATOM     24  C   UNL d   1      27.798 -14.218   2.948  0.00  0.00     0.086 C 
ATOM     25  C   UNL d   1      27.965 -14.706   4.422  0.00  0.00     0.025 C 
ATOM     26  C   UNL d   1      27.472 -13.701   5.466  0.00  0.00     0.002 C 
ATOM     27  C   UNL d   1      28.085 -12.320   5.269  0.00  0.00     0.000 C 
ATOM     28  C   UNL d   1      27.779 -11.798   3.871  0.00  0.00     0.002 C 
ATOM     29  C   UNL d   1      28.288 -12.749   2.796  0.00  0.00     0.025 C 
ENDBRANCH  21  24
ENDBRANCH   1  18
BRANCH   4  30
ATOM     30  C   UNL d   1      24.184 -17.517  -0.498  0.00  0.00     0.036 A 
ATOM     31  C   UNL d   1      23.104 -16.695  -0.865  0.00  0.00     0.031 A 
ATOM     32  C   UNL d   1      21.782 -17.180  -0.895  0.00  0.00     0.026 A 
ATOM     33  C   UNL d   1      21.512 -18.492  -0.528  0.00  0.00     0.034 A 
ATOM     34 CL   UNL d   1      19.893 -19.080  -0.555  0.00  0.00    -0.084 Cl
ATOM     35  C   UNL d   1      22.559 -19.326  -0.145  0.00  0.00     0.026 A 
ATOM     36  C   UNL d   1      23.888 -18.847  -0.145  0.00  0.00     0.031 A 
ENDBRANCH   4  30
TORSDOF 5
ENDMDL
MODEL 4
REMARK VINA RESULT:    -9.499      2.664      7.175
REMARK INTER + INTRA:         -12.320
REMARK INTER:                 -10.991
REMARK INTRA:                  -1.330
REMARK CONF_INDEPENDENT:        1.492
REMARK UNBOUND:                -1.330
REMARK  5 active torsions:
REMARK  status: ('A' for Active; 'I' for Inactive)
REMARK    1  A    between atoms: C_5  and  C_6 
REMARK    2  A    between atoms: C_9  and  N_10 
REMARK    3  A    between atoms: N_10  and  N_11 
REMARK       I    between atoms: N_10  and  C_21 
REMARK       I    between atoms: N_11  and  C_12 
REMARK       I    between atoms: C_12  and  N_14 
REMARK    4  A    between atoms: N_14  and  C_15 
REMARK       I    between atoms: C_21  and  N_23 
REMARK    5  A    between atoms: N_23  and  C_24 
ROOT
ATOM      1  N   UNL d   1      24.375 -16.520  -0.792  0.00  0.00    -0.176 N 
ATOM      2  C   UNL d   1      23.487 -17.555  -0.293  0.00  0.00     0.348 C 
ATOM      3  O   UNL d   1      23.830 -18.429   0.508  0.00  0.00    -0.245 OA
ATOM      4  N   UNL d   1      22.162 -17.582  -0.785  0.00  0.00    -0.307 N 
ATOM      5  H   UNL d   1      21.938 -17.119  -1.645  0.00  0.00     0.170 HD
ENDROOT
BRANCH   1   6
ATOM      6  C   UNL d   1      25.746 -16.619  -0.283  0.00  0.00     0.197 C 
ATOM      7  S   UNL d   1      26.644 -18.097  -0.195  0.00  0.00    -0.060 SA
ATOM      8  C   UNL d   1      28.079 -17.344   0.230  0.00  0.00     0.086 C 
ATOM      9  C   UNL d   1      27.760 -16.053   0.550  0.00  0.00     0.076 C 
ATOM     10  N   UNL d   1      26.464 -15.643   0.256  0.00  0.00    -0.222 NA
BRANCH   9  11
ATOM     11  C   UNL d   1      28.730 -15.222   1.204  0.00  0.00    -0.007 A 
ATOM     12  C   UNL d   1      28.341 -14.414   2.277  0.00  0.00     0.014 A 
ATOM     13  C   UNL d   1      29.280 -13.603   2.897  0.00  0.00     0.007 A 
ATOM     14  C   UNL d   1      30.600 -13.584   2.431  0.00  0.00    -0.062 A 
ATOM     15  C   UNL d   1      31.635 -12.757   3.124  0.00  0.00     0.048 C 
ATOM     16  C   UNL d   1      30.965 -14.360   1.321  0.00  0.00     0.007 A 
ATOM     17  C   UNL d   1      30.028 -15.177   0.703  0.00  0.00     0.014 A 
ENDBRANCH   9  11
ENDBRANCH   1   6
BRANCH   1  18
ATOM     18  N   UNL d   1      23.925 -15.585  -1.924  0.00  0.00    -0.239 N 
ATOM     19  C   UNL d   1      24.821 -14.812  -2.624  0.00  0.00     0.335 C 
ATOM     20  O   UNL d   1      26.016 -14.748  -2.363  0.00  0.00    -0.246 OA
ATOM     21  N   UNL d   1      24.415 -14.123  -3.738  0.00  0.00    -0.337 N 
ATOM     22  H   UNL d   1      23.529 -13.635  -3.728  0.00  0.00     0.164 HD
ATOM     23  H   UNL d   1      23.023 -15.160  -1.773  0.00  0.00     0.192 HD
BRANCH  21  24
ATOM     24  C   UNL d   1      25.503 -13.612  -4.647  0.00  0.00     0.086 C 
ATOM     25  C   UNL d   1      26.319 -12.410  -4.074  0.00  0.00     0.025 C 
ATOM     26  C   UNL d   1      27.549 -12.045  -4.908  0.00  0.00     0.002 C 
ATOM     27  C   UNL d   1      28.448 -13.248  -5.167  0.00  0.00     0.000 C 
ATOM     28  C   UNL d   1      27.665 -14.353  -5.866  0.00  0.00     0.002 C 
ATOM     29  C   UNL d   1      26.450 -14.778  -5.051  0.00  0.00     0.025 C 
ENDBRANCH  21  24
ENDBRANCH   1  18
BRANCH   4  30
ATOM     30  C   UNL d   1      21.195 -18.575  -0.357  0.00  0.00     0.036 A 
ATOM     31  C   UNL d   1      21.122 -19.027   0.972  0.00  0.00     0.031 A 
ATOM     32  C   UNL d   1      20.138 -19.944   1.388  0.00  0.00     0.026 A 
ATOM     33  C   UNL d   1      19.225 -20.451   0.473  0.00  0.00     0.034 A 
ATOM     34 CL   UNL d   1      18.030 -21.583   0.982  0.00  0.00    -0.084 Cl
ATOM     35  C   UNL d   1      19.282 -20.034  -0.855  0.00  0.00     0.026 A 
ATOM     36  C   UNL d   1      20.250 -19.090  -1.264  0.00  0.00     0.031 A 
ENDBRANCH   4  30
TORSDOF 5
ENDMDL
MODEL 5
REMARK VINA RESULT:    -9.269      4.550      8.558
REMARK INTER + INTRA:         -12.192
REMARK INTER:                 -10.760
REMARK INTRA:                  -1.432
REMARK CONF_INDEPENDENT:        1.492
REMARK UNBOUND:                -1.432
REMARK  5 active torsions:
REMARK  status: ('A' for Active; 'I' for Inactive)
REMARK    1  A    between atoms: C_5  and  C_6 
REMARK    2  A    between atoms: C_9  and  N_10 
REMARK    3  A    between atoms: N_10  and  N_11 
REMARK       I    between atoms: N_10  and  C_21 
REMARK       I    between atoms: N_11  and  C_12 
REMARK       I    between atoms: C_12  and  N_14 
REMARK    4  A    between atoms: N_14  and  C_15 
REMARK       I    between atoms: C_21  and  N_23 
REMARK    5  A    between atoms: N_23  and  C_24 
ROOT
ATOM      1  N   UNL d   1      28.406 -15.420   1.217  0.00  0.00    -0.176 N 
ATOM      2  C   UNL d   1      28.154 -14.715   2.460  0.00  0.00     0.348 C 
ATOM      3  O   UNL d   1      27.046 -14.287   2.796  0.00  0.00    -0.245 OA
ATOM      4  N   UNL d   1      29.252 -14.477   3.319  0.00  0.00    -0.307 N 
ATOM      5  H   UNL d   1      30.186 -14.511   2.958  0.00  0.00     0.170 HD
ENDROOT
BRANCH   1   6
ATOM      6  C   UNL d   1      27.224 -15.554   0.360  0.00  0.00     0.197 C 
ATOM      7  S   UNL d   1      26.821 -14.454  -0.915  0.00  0.00    -0.060 SA
ATOM      8  C   UNL d   1      25.568 -15.398  -1.501  0.00  0.00     0.086 C 
ATOM      9  C   UNL d   1      25.332 -16.360  -0.557  0.00  0.00     0.076 C 
ATOM     10  N   UNL d   1      26.259 -16.456   0.475  0.00  0.00    -0.222 NA
BRANCH   9  11
ATOM     11  C   UNL d   1      24.148 -17.165  -0.643  0.00  0.00    -0.007 A 
ATOM     12  C   UNL d   1      22.904 -16.554  -0.822  0.00  0.00     0.014 A 
ATOM     13  C   UNL d   1      21.761 -17.337  -0.891  0.00  0.00     0.007 A 
ATOM     14  C   UNL d   1      21.861 -18.727  -0.759  0.00  0.00    -0.062 A 
ATOM     15  C   UNL d   1      20.645 -19.588  -0.887  0.00  0.00     0.048 C 
ATOM     16  C   UNL d   1      23.108 -19.324  -0.527  0.00  0.00     0.007 A 
ATOM     17  C   UNL d   1      24.254 -18.543  -0.465  0.00  0.00     0.014 A 
ENDBRANCH   9  11
ENDBRANCH   1   6
BRANCH   1  18
ATOM     18  N   UNL d   1      29.842 -15.757   0.788  0.00  0.00    -0.239 N 
ATOM     19  C   UNL d   1      30.107 -16.480  -0.351  0.00  0.00     0.335 C 
ATOM     20  O   UNL d   1      29.240 -16.969  -1.066  0.00  0.00    -0.246 OA
ATOM     21  N   UNL d   1      31.396 -16.615  -0.798  0.00  0.00    -0.337 N 
ATOM     22  H   UNL d   1      32.138 -16.801  -0.136  0.00  0.00     0.164 HD
ATOM     23  H   UNL d   1      30.471 -15.929   1.557  0.00  0.00     0.192 HD
BRANCH  21  24
ATOM     24  C   UNL d   1      31.570 -17.089  -2.219  0.00  0.00     0.086 C 
ATOM     25  C   UNL d   1      31.197 -18.587  -2.455  0.00  0.00     0.025 C 
ATOM     26  C   UNL d   1      31.173 -18.992  -3.930  0.00  0.00     0.002 C 
ATOM     27  C   UNL d   1      30.298 -18.067  -4.767  0.00  0.00     0.000 C 
ATOM     28  C   UNL d   1      30.776 -16.626  -4.640  0.00  0.00     0.002 C 
ATOM     29  C   UNL d   1      30.779 -16.164  -3.189  0.00  0.00     0.025 C 
ENDBRANCH  21  24
ENDBRANCH   1  18
BRANCH   4  30
ATOM     30  C   UNL d   1      29.111 -13.779   4.583  0.00  0.00     0.036 A 
ATOM     31  C   UNL d   1      28.640 -12.457   4.662  0.00  0.00     0.031 A 
ATOM     32  C   UNL d   1      28.448 -11.813   5.899  0.00  0.00     0.026 A 
ATOM     33  C   UNL d   1      28.754 -12.471   7.083  0.00  0.00     0.034 A 
ATOM     34 CL   UNL d   1      28.531 -11.676   8.595  0.00  0.00    -0.084 Cl
ATOM     35  C   UNL d   1      29.238 -13.776   7.037  0.00  0.00     0.026 A 
ATOM     36  C   UNL d   1      29.400 -14.431   5.796  0.00  0.00     0.031 A 
ENDBRANCH   4  30
TORSDOF 5
ENDMDL
MODEL 6
REMARK VINA RESULT:    -8.986      3.016      4.358
REMARK INTER + INTRA:         -12.443
REMARK INTER:                 -10.477
REMARK INTRA:                  -1.965
REMARK CONF_INDEPENDENT:        1.492
REMARK UNBOUND:                -1.965
REMARK  5 active torsions:
REMARK  status: ('A' for Active; 'I' for Inactive)
REMARK    1  A    between atoms: C_5  and  C_6 
REMARK    2  A    between atoms: C_9  and  N_10 
REMARK    3  A    between atoms: N_10  and  N_11 
REMARK       I    between atoms: N_10  and  C_21 
REMARK       I    between atoms: N_11  and  C_12 
REMARK       I    between atoms: C_12  and  N_14 
REMARK    4  A    between atoms: N_14  and  C_15 
REMARK       I    between atoms: C_21  and  N_23 
REMARK    5  A    between atoms: N_23  and  C_24 
ROOT
ATOM      1  N   UNL d   1      27.607 -15.567  -2.440  0.00  0.00    -0.176 N 
ATOM      2  C   UNL d   1      26.299 -16.184  -2.316  0.00  0.00     0.348 C 
ATOM      3  O   UNL d   1      25.520 -16.341  -3.260  0.00  0.00    -0.245 OA
ATOM      4  N   UNL d   1      25.882 -16.595  -1.029  0.00  0.00    -0.307 N 
ATOM      5  H   UNL d   1      26.319 -16.208  -0.214  0.00  0.00     0.170 HD
ENDROOT
BRANCH   1   6
ATOM      6  C   UNL d   1      27.919 -15.107  -3.796  0.00  0.00     0.197 C 
ATOM      7  S   UNL d   1      26.751 -14.446  -4.889  0.00  0.00    -0.060 SA
ATOM      8  C   UNL d   1      27.892 -13.983  -6.025  0.00  0.00     0.086 C 
ATOM      9  C   UNL d   1      29.067 -14.582  -5.662  0.00  0.00     0.076 C 
ATOM     10  N   UNL d   1      29.088 -15.199  -4.416  0.00  0.00    -0.222 NA
BRANCH   9  11
ATOM     11  C   UNL d   1      30.173 -14.593  -6.576  0.00  0.00    -0.007 A 
ATOM     12  C   UNL d   1      30.504 -13.430  -7.277  0.00  0.00     0.014 A 
ATOM     13  C   UNL d   1      31.566 -13.450  -8.170  0.00  0.00     0.007 A 
ATOM     14  C   UNL d   1      32.282 -14.636  -8.374  0.00  0.00    -0.062 A 
ATOM     15  C   UNL d   1      33.463 -14.658  -9.290  0.00  0.00     0.048 C 
ATOM     16  C   UNL d   1      31.906 -15.808  -7.703  0.00  0.00     0.007 A 
ATOM     17  C   UNL d   1      30.848 -15.789  -6.805  0.00  0.00     0.014 A 
ENDBRANCH   9  11
ENDBRANCH   1   6
BRANCH   1  18
ATOM     18  N   UNL d   1      28.438 -15.240  -1.191  0.00  0.00    -0.239 N 
ATOM     19  C   UNL d   1      27.906 -14.555  -0.124  0.00  0.00     0.335 C 
ATOM     20  O   UNL d   1      26.771 -14.092  -0.109  0.00  0.00    -0.246 OA
ATOM     21  N   UNL d   1      28.617 -14.432   1.041  0.00  0.00    -0.337 N 
ATOM     22  H   UNL d   1      29.606 -14.222   1.004  0.00  0.00     0.164 HD
ATOM     23  H   UNL d   1      29.408 -15.042  -1.383  0.00  0.00     0.192 HD
BRANCH  21  24
ATOM     24  C   UNL d   1      27.841 -14.005   2.261  0.00  0.00     0.086 C 
ATOM     25  C   UNL d   1      28.155 -14.825   3.553  0.00  0.00     0.025 C 
ATOM     26  C   UNL d   1      27.525 -14.246   4.821  0.00  0.00     0.002 C 
ATOM     27  C   UNL d   1      27.860 -12.771   5.009  0.00  0.00     0.000 C 
ATOM     28  C   UNL d   1      27.405 -11.966   3.798  0.00  0.00     0.002 C 
ATOM     29  C   UNL d   1      28.040 -12.482   2.513  0.00  0.00     0.025 C 
ENDBRANCH  21  24
ENDBRANCH   1  18
BRANCH   4  30
ATOM     30  C   UNL d   1      24.594 -17.218  -0.793  0.00  0.00     0.036 A 
ATOM     31  C   UNL d   1      23.388 -16.501  -0.873  0.00  0.00     0.031 A 
ATOM     32  C   UNL d   1      22.140 -17.130  -0.703  0.00  0.00     0.026 A 
ATOM     33  C   UNL d   1      22.077 -18.488  -0.420  0.00  0.00     0.034 A 
ATOM     34 CL   UNL d   1      20.549 -19.255  -0.201  0.00  0.00    -0.084 Cl
ATOM     35  C   UNL d   1      23.255 -19.223  -0.318  0.00  0.00     0.026 A 
ATOM     36  C   UNL d   1      24.505 -18.595  -0.520  0.00  0.00     0.031 A 
ENDBRANCH   4  30
TORSDOF 5
ENDMDL
MODEL 7
REMARK VINA RESULT:    -8.919      4.425      9.673
REMARK INTER + INTRA:         -12.196
REMARK INTER:                 -10.410
REMARK INTRA:                  -1.786
REMARK CONF_INDEPENDENT:        1.492
REMARK UNBOUND:                -1.786
REMARK  5 active torsions:
REMARK  status: ('A' for Active; 'I' for Inactive)
REMARK    1  A    between atoms: C_5  and  C_6 
REMARK    2  A    between atoms: C_9  and  N_10 
REMARK    3  A    between atoms: N_10  and  N_11 
REMARK       I    between atoms: N_10  and  C_21 
REMARK       I    between atoms: N_11  and  C_12 
REMARK       I    between atoms: C_12  and  N_14 
REMARK    4  A    between atoms: N_14  and  C_15 
REMARK       I    between atoms: C_21  and  N_23 
REMARK    5  A    between atoms: N_23  and  C_24 
ROOT
ATOM      1  N   UNL d   1      26.880 -14.310  -4.309  0.00  0.00    -0.176 N 
ATOM      2  C   UNL d   1      26.276 -13.000  -4.148  0.00  0.00     0.348 C 
ATOM      3  O   UNL d   1      25.581 -12.677  -3.180  0.00  0.00    -0.245 OA
ATOM      4  N   UNL d   1      26.468 -12.053  -5.180  0.00  0.00    -0.307 N 
ATOM      5  H   UNL d   1      26.735 -12.358  -6.096  0.00  0.00     0.170 HD
ENDROOT
BRANCH   1   6
ATOM      6  C   UNL d   1      26.564 -15.246  -3.226  0.00  0.00     0.197 C 
ATOM      7  S   UNL d   1      27.753 -15.995  -2.214  0.00  0.00    -0.060 SA
ATOM      8  C   UNL d   1      26.625 -16.660  -1.169  0.00  0.00     0.086 C 
ATOM      9  C   UNL d   1      25.406 -16.520  -1.774  0.00  0.00     0.076 C 
ATOM     10  N   UNL d   1      25.367 -15.723  -2.913  0.00  0.00    -0.222 NA
BRANCH   9  11
ATOM     11  C   UNL d   1      24.268 -17.220  -1.252  0.00  0.00    -0.007 A 
ATOM     12  C   UNL d   1      23.069 -16.534  -1.037  0.00  0.00     0.014 A 
ATOM     13  C   UNL d   1      21.976 -17.214  -0.521  0.00  0.00     0.007 A 
ATOM     14  C   UNL d   1      22.089 -18.572  -0.200  0.00  0.00    -0.062 A 
ATOM     15  C   UNL d   1      20.903 -19.331   0.304  0.00  0.00     0.048 C 
ATOM     16  C   UNL d   1      23.312 -19.236  -0.372  0.00  0.00     0.007 A 
ATOM     17  C   UNL d   1      24.405 -18.559  -0.895  0.00  0.00     0.014 A 
ENDBRANCH   9  11
ENDBRANCH   1   6
BRANCH   1  18
ATOM     18  N   UNL d   1      27.575 -14.693  -5.624  0.00  0.00    -0.239 N 
ATOM     19  C   UNL d   1      28.535 -13.894  -6.196  0.00  0.00     0.335 C 
ATOM     20  O   UNL d   1      28.859 -12.796  -5.758  0.00  0.00    -0.246 OA
ATOM     21  N   UNL d   1      29.257 -14.344  -7.271  0.00  0.00    -0.337 N 
ATOM     22  H   UNL d   1      28.787 -14.842  -8.016  0.00  0.00     0.164 HD
ATOM     23  H   UNL d   1      26.979 -15.178  -6.278  0.00  0.00     0.192 HD
BRANCH  21  24
ATOM     24  C   UNL d   1      30.516 -13.584  -7.602  0.00  0.00     0.086 C 
ATOM     25  C   UNL d   1      31.737 -14.481  -7.982  0.00  0.00     0.025 C 
ATOM     26  C   UNL d   1      32.936 -13.697  -8.519  0.00  0.00     0.002 C 
ATOM     27  C   UNL d   1      32.552 -12.773  -9.668  0.00  0.00     0.000 C 
ATOM     28  C   UNL d   1      31.463 -11.803  -9.227  0.00  0.00     0.002 C 
ATOM     29  C   UNL d   1      30.230 -12.540  -8.720  0.00  0.00     0.025 C 
ENDBRANCH  21  24
ENDBRANCH   1  18
BRANCH   4  30
ATOM     30  C   UNL d   1      25.905 -10.717  -5.122  0.00  0.00     0.036 A 
ATOM     31  C   UNL d   1      25.287 -10.114  -6.231  0.00  0.00     0.031 A 
ATOM     32  C   UNL d   1      24.689  -8.843  -6.144  0.00  0.00     0.026 A 
ATOM     33  C   UNL d   1      24.724  -8.136  -4.949  0.00  0.00     0.034 A 
ATOM     34 CL   UNL d   1      24.002  -6.574  -4.848  0.00  0.00    -0.084 Cl
ATOM     35  C   UNL d   1      25.343  -8.699  -3.836  0.00  0.00     0.026 A 
ATOM     36  C   UNL d   1      25.915  -9.989  -3.918  0.00  0.00     0.031 A 
ENDBRANCH   4  30
TORSDOF 5
ENDMDL
MODEL 8
REMARK VINA RESULT:    -8.752      4.161      9.235
REMARK INTER + INTRA:         -12.415
REMARK INTER:                 -10.244
REMARK INTRA:                  -2.171
REMARK CONF_INDEPENDENT:        1.492
REMARK UNBOUND:                -2.171
REMARK  5 active torsions:
REMARK  status: ('A' for Active; 'I' for Inactive)
REMARK    1  A    between atoms: C_5  and  C_6 
REMARK    2  A    between atoms: C_9  and  N_10 
REMARK    3  A    between atoms: N_10  and  N_11 
REMARK       I    between atoms: N_10  and  C_21 
REMARK       I    between atoms: N_11  and  C_12 
REMARK       I    between atoms: C_12  and  N_14 
REMARK    4  A    between atoms: N_14  and  C_15 
REMARK       I    between atoms: C_21  and  N_23 
REMARK    5  A    between atoms: N_23  and  C_24 
ROOT
ATOM      1  N   UNL d   1      27.465 -15.071  -2.613  0.00  0.00    -0.176 N 
ATOM      2  C   UNL d   1      26.657 -13.926  -2.990  0.00  0.00     0.348 C 
ATOM      3  O   UNL d   1      25.489 -13.759  -2.629  0.00  0.00    -0.245 OA
ATOM      4  N   UNL d   1      27.234 -12.966  -3.853  0.00  0.00    -0.307 N 
ATOM      5  H   UNL d   1      28.027 -13.210  -4.414  0.00  0.00     0.170 HD
ENDROOT
BRANCH   1   6
ATOM      6  C   UNL d   1      26.758 -16.048  -1.780  0.00  0.00     0.197 C 
ATOM      7  S   UNL d   1      27.528 -17.053  -0.600  0.00  0.00    -0.060 SA
ATOM      8  C   UNL d   1      26.087 -17.641   0.022  0.00  0.00     0.086 C 
ATOM      9  C   UNL d   1      25.105 -17.267  -0.854  0.00  0.00     0.076 C 
ATOM     10  N   UNL d   1      25.474 -16.371  -1.852  0.00  0.00    -0.222 NA
BRANCH   9  11
ATOM     11  C   UNL d   1      23.795 -17.839  -0.741  0.00  0.00    -0.007 A 
ATOM     12  C   UNL d   1      22.670 -17.057  -1.019  0.00  0.00     0.014 A 
ATOM     13  C   UNL d   1      21.405 -17.612  -0.895  0.00  0.00     0.007 A 
ATOM     14  C   UNL d   1      21.265 -18.940  -0.473  0.00  0.00    -0.062 A 
ATOM     15  C   UNL d   1      19.911 -19.568  -0.389  0.00  0.00     0.048 C 
ATOM     16  C   UNL d   1      22.399 -19.697  -0.147  0.00  0.00     0.007 A 
ATOM     17  C   UNL d   1      23.666 -19.146  -0.277  0.00  0.00     0.014 A 
ENDBRANCH   9  11
ENDBRANCH   1   6
BRANCH   1  18
ATOM     18  N   UNL d   1      28.843 -15.299  -3.252  0.00  0.00    -0.239 N 
ATOM     19  C   UNL d   1      29.026 -15.259  -4.614  0.00  0.00     0.335 C 
ATOM     20  O   UNL d   1      28.115 -15.116  -5.421  0.00  0.00    -0.246 OA
ATOM     21  N   UNL d   1      30.291 -15.293  -5.142  0.00  0.00    -0.337 N 
ATOM     22  H   UNL d   1      30.976 -15.931  -4.757  0.00  0.00     0.164 HD
ATOM     23  H   UNL d   1      29.416 -15.971  -2.765  0.00  0.00     0.192 HD
BRANCH  21  24
ATOM     24  C   UNL d   1      30.430 -14.878  -6.584  0.00  0.00     0.086 C 
ATOM     25  C   UNL d   1      29.933 -13.431  -6.895  0.00  0.00     0.025 C 
ATOM     26  C   UNL d   1      30.275 -12.950  -8.307  0.00  0.00     0.002 C 
ATOM     27  C   UNL d   1      31.758 -13.104  -8.624  0.00  0.00     0.000 C 
ATOM     28  C   UNL d   1      32.187 -14.557  -8.460  0.00  0.00     0.002 C 
ATOM     29  C   UNL d   1      31.901 -15.069  -7.054  0.00  0.00     0.025 C 
ENDBRANCH  21  24
ENDBRANCH   1  18
BRANCH   4  30
ATOM     30  C   UNL d   1      26.513 -11.787  -4.295  0.00  0.00     0.036 A 
ATOM     31  C   UNL d   1      26.140 -10.760  -3.411  0.00  0.00     0.031 A 
ATOM     32  C   UNL d   1      25.496  -9.592  -3.863  0.00  0.00     0.026 A 
ATOM     33  C   UNL d   1      25.186  -9.443  -5.208  0.00  0.00     0.034 A 
ATOM     34 CL   UNL d   1      24.387  -8.018  -5.758  0.00  0.00    -0.084 Cl
ATOM     35  C   UNL d   1      25.529 -10.450  -6.107  0.00  0.00     0.026 A 
ATOM     36  C   UNL d   1      26.202 -11.607  -5.656  0.00  0.00     0.031 A 
ENDBRANCH   4  30
TORSDOF 5
ENDMDL
MODEL 9
REMARK VINA RESULT:    -8.596      3.049      8.961
REMARK INTER + INTRA:         -12.144
REMARK INTER:                 -10.087
REMARK INTRA:                  -2.056
REMARK CONF_INDEPENDENT:        1.492
REMARK UNBOUND:                -2.056
REMARK  5 active torsions:
REMARK  status: ('A' for Active; 'I' for Inactive)
REMARK    1  A    between atoms: C_5  and  C_6 
REMARK    2  A    between atoms: C_9  and  N_10 
REMARK    3  A    between atoms: N_10  and  N_11 
REMARK       I    between atoms: N_10  and  C_21 
REMARK       I    between atoms: N_11  and  C_12 
REMARK       I    between atoms: C_12  and  N_14 
REMARK    4  A    between atoms: N_14  and  C_15 
REMARK       I    between atoms: C_21  and  N_23 
REMARK    5  A    between atoms: N_23  and  C_24 
ROOT
ATOM      1  N   UNL d   1      29.105 -13.878   1.369  0.00  0.00    -0.176 N 
ATOM      2  C   UNL d   1      28.485 -12.882   0.516  0.00  0.00     0.348 C 
ATOM      3  O   UNL d   1      28.370 -11.691   0.820  0.00  0.00    -0.245 OA
ATOM      4  N   UNL d   1      27.951 -13.311  -0.721  0.00  0.00    -0.307 N 
ATOM      5  H   UNL d   1      27.735 -14.279  -0.863  0.00  0.00     0.170 HD
ENDROOT
BRANCH   1   6
ATOM      6  C   UNL d   1      29.562 -13.354   2.660  0.00  0.00     0.197 C 
ATOM      7  S   UNL d   1      31.057 -12.511   2.890  0.00  0.00    -0.060 SA
ATOM      8  C   UNL d   1      30.711 -12.076   4.471  0.00  0.00     0.086 C 
ATOM      9  C   UNL d   1      29.616 -12.807   4.844  0.00  0.00     0.076 C 
ATOM     10  N   UNL d   1      28.968 -13.511   3.835  0.00  0.00    -0.222 NA
BRANCH   9  11
ATOM     11  C   UNL d   1      29.230 -12.855   6.225  0.00  0.00    -0.007 A 
ATOM     12  C   UNL d   1      28.893 -11.675   6.893  0.00  0.00     0.014 A 
ATOM     13  C   UNL d   1      28.533 -11.726   8.232  0.00  0.00     0.007 A 
ATOM     14  C   UNL d   1      28.529 -12.953   8.905  0.00  0.00    -0.062 A 
ATOM     15  C   UNL d   1      28.089 -13.032  10.332  0.00  0.00     0.048 C 
ATOM     16  C   UNL d   1      28.919 -14.123   8.237  0.00  0.00     0.007 A 
ATOM     17  C   UNL d   1      29.273 -14.075   6.896  0.00  0.00     0.014 A 
ENDBRANCH   9  11
ENDBRANCH   1   6
BRANCH   1  18
ATOM     18  N   UNL d   1      29.045 -15.368   1.001  0.00  0.00    -0.239 N 
ATOM     19  C   UNL d   1      27.862 -15.988   0.678  0.00  0.00     0.335 C 
ATOM     20  O   UNL d   1      26.768 -15.438   0.727  0.00  0.00    -0.246 OA
ATOM     21  N   UNL d   1      27.865 -17.268   0.187  0.00  0.00    -0.337 N 
ATOM     22  H   UNL d   1      28.472 -17.962   0.604  0.00  0.00     0.164 HD
ATOM     23  H   UNL d   1      29.704 -15.943   1.504  0.00  0.00     0.192 HD
BRANCH  21  24
ATOM     24  C   UNL d   1      26.597 -17.736  -0.481  0.00  0.00     0.086 C 
ATOM     25  C   UNL d   1      25.438 -18.097   0.503  0.00  0.00     0.025 C 
ATOM     26  C   UNL d   1      24.100 -18.362  -0.190  0.00  0.00     0.002 C 
ATOM     27  C   UNL d   1      23.698 -17.224  -1.121  0.00  0.00     0.000 C 
ATOM     28  C   UNL d   1      24.779 -16.990  -2.169  0.00  0.00     0.002 C 
ATOM     29  C   UNL d   1      26.125 -16.683  -1.524  0.00  0.00     0.025 C 
ENDBRANCH  21  24
ENDBRANCH   1  18
BRANCH   4  30
ATOM     30  C   UNL d   1      27.307 -12.399  -1.646  0.00  0.00     0.036 A 
ATOM     31  C   UNL d   1      27.670 -11.045  -1.741  0.00  0.00     0.031 A 
ATOM     32  C   UNL d   1      27.081 -10.184  -2.687  0.00  0.00     0.026 A 
ATOM     33  C   UNL d   1      26.091 -10.658  -3.538  0.00  0.00     0.034 A 
ATOM     34 CL   UNL d   1      25.362  -9.601  -4.688  0.00  0.00    -0.084 Cl
ATOM     35  C   UNL d   1      25.698 -11.991  -3.459  0.00  0.00     0.026 A 
ATOM     36  C   UNL d   1      26.313 -12.860  -2.529  0.00  0.00     0.031 A 
ENDBRANCH   4  30
TORSDOF 5
ENDMDL
