MODEL 1
REMARK VINA RESULT:   -10.131      0.000      0.000
REMARK INTER + INTRA:         -13.629
REMARK INTER:                 -12.518
REMARK INTRA:                  -1.111
REMARK CONF_INDEPENDENT:        2.386
REMARK UNBOUND:                -1.111
REMARK  8 active torsions:
REMARK  status: ('A' for Active; 'I' for Inactive)
REMARK    1  A    between atoms: C_2  and  N_3 
REMARK       I    between atoms: N_3  and  C_4 
REMARK    2  A    between atoms: C_4  and  C_6 
REMARK    3  A    between atoms: C_10  and  N_11 
REMARK    4  A    between atoms: N_11  and  C_12 
REMARK    5  A    between atoms: C_12  and  C_13 
REMARK       I    between atoms: C_13  and  N_15 
REMARK    6  A    between atoms: N_15  and  C_16 
REMARK    7  A    between atoms: C_19  and  N_20 
REMARK       I    between atoms: N_20  and  C_21 
REMARK    8  A    between atoms: C_21  and  C_23 
ROOT
ATOM      1  C   UNL d   1      27.250 -13.974   0.813  0.00  0.00     0.239 C 
ATOM      2  O   UNL d   1      26.292 -13.388   1.321  0.00  0.00    -0.271 OA
ATOM      3  N   UNL d   1      28.392 -14.376   1.510  0.00  0.00    -0.326 N 
ATOM      4  H   UNL d   1      29.216 -14.683   1.009  0.00  0.00     0.169 HD
ENDROOT
BRANCH   3   5
ATOM      5  C   UNL d   1      28.468 -14.312   2.921  0.00  0.00     0.034 A 
ATOM      6  C   UNL d   1      27.352 -14.054   3.726  0.00  0.00     0.032 A 
ATOM      7  C   UNL d   1      27.494 -13.946   5.135  0.00  0.00     0.032 A 
ATOM      8  C   UNL d   1      28.747 -14.117   5.745  0.00  0.00     0.035 A 
ATOM      9  C   UNL d   1      29.839 -14.334   4.909  0.00  0.00     0.032 A 
ATOM     10  C   UNL d   1      29.705 -14.442   3.532  0.00  0.00     0.032 A 
BRANCH   8  11
ATOM     11  N   UNL d   1      28.891 -14.100   7.163  0.00  0.00    -0.323 N 
ATOM     12  C   UNL d   1      28.586 -13.006   7.972  0.00  0.00     0.256 C 
ATOM     13  O   UNL d   1      28.107 -11.929   7.606  0.00  0.00    -0.267 OA
ATOM     14  H   UNL d   1      29.266 -14.933   7.602  0.00  0.00     0.169 HD
BRANCH  12  15
ATOM     15  C   UNL d   1      28.867 -13.079   9.421  0.00  0.00     0.032 A 
ATOM     16  C   UNL d   1      28.155 -14.023  10.181  0.00  0.00     0.017 A 
ATOM     17  C   UNL d   1      28.163 -13.961  11.573  0.00  0.00     0.002 A 
ATOM     18  C   UNL d   1      28.931 -12.992  12.214  0.00  0.00     0.007 A 
ATOM     19  C   UNL d   1      29.653 -12.051  11.464  0.00  0.00    -0.061 A 
ATOM     20  C   UNL d   1      30.398 -10.946  12.150  0.00  0.00     0.048 C 
ATOM     21  C   UNL d   1      29.618 -12.095  10.062  0.00  0.00     0.023 A 
ENDBRANCH  12  15
ENDBRANCH   8  11
ENDBRANCH   3   5
BRANCH   1  22
ATOM     22  C   UNL d   1      27.262 -14.263  -0.691  0.00  0.00     0.223 C 
BRANCH  22  23
ATOM     23  N   UNL d   1      25.966 -14.803  -1.113  0.00  0.00    -0.381 N 
ATOM     24  H   UNL d   1      25.532 -14.322  -1.903  0.00  0.00     0.160 HD
BRANCH  23  25
ATOM     25  C   UNL d   1      25.494 -16.037  -0.716  0.00  0.00     0.029 A 
ATOM     26  C   UNL d   1      26.348 -16.948  -0.077  0.00  0.00     0.029 A 
ATOM     27  C   UNL d   1      25.884 -18.202   0.335  0.00  0.00     0.003 A 
ATOM     28  C   UNL d   1      24.565 -18.576   0.081  0.00  0.00     0.017 A 
ATOM     29  C   UNL d   1      23.691 -17.673  -0.528  0.00  0.00     0.034 A 
ATOM     30  C   UNL d   1      24.169 -16.429  -0.950  0.00  0.00     0.046 A 
BRANCH  29  31
ATOM     31  C   UNL d   1      22.232 -17.957  -0.528  0.00  0.00     0.251 C 
ATOM     32  N   UNL d   1      21.812 -19.217  -0.155  0.00  0.00    -0.357 N 
ATOM     33  H   UNL d   1      22.473 -19.879   0.233  0.00  0.00     0.162 HD
ATOM     34  O   UNL d   1      21.454 -17.073  -0.893  0.00  0.00    -0.268 OA
BRANCH  32  35
ATOM     35  C   UNL d   1      20.398 -19.552  -0.176  0.00  0.00     0.118 C 
ATOM     36  C   UNL d   1      19.829 -19.769   1.214  0.00  0.00     0.026 C 
ENDBRANCH  32  35
ENDBRANCH  29  31
ENDBRANCH  23  25
ENDBRANCH  22  23
ENDBRANCH   1  22
TORSDOF 8
ENDMDL
MODEL 2
REMARK VINA RESULT:    -9.973      8.012     10.940
REMARK INTER + INTRA:         -13.570
REMARK INTER:                 -12.360
REMARK INTRA:                  -1.210
REMARK CONF_INDEPENDENT:        2.386
REMARK UNBOUND:                -1.210
REMARK  8 active torsions:
REMARK  status: ('A' for Active; 'I' for Inactive)
REMARK    1  A    between atoms: C_2  and  N_3 
REMARK       I    between atoms: N_3  and  C_4 
REMARK    2  A    between atoms: C_4  and  C_6 
REMARK    3  A    between atoms: C_10  and  N_11 
REMARK    4  A    between atoms: N_11  and  C_12 
REMARK    5  A    between atoms: C_12  and  C_13 
REMARK       I    between atoms: C_13  and  N_15 
REMARK    6  A    between atoms: N_15  and  C_16 
REMARK    7  A    between atoms: C_19  and  N_20 
REMARK       I    between atoms: N_20  and  C_21 
REMARK    8  A    between atoms: C_21  and  C_23 
ROOT
ATOM      1  C   UNL d   1      26.387 -14.884  -3.706  0.00  0.00     0.239 C 
ATOM      2  O   UNL d   1      25.543 -15.246  -4.529  0.00  0.00    -0.271 OA
ATOM      3  N   UNL d   1      26.305 -15.123  -2.333  0.00  0.00    -0.326 N 
ATOM      4  H   UNL d   1      26.927 -14.646  -1.692  0.00  0.00     0.169 HD
ENDROOT
BRANCH   3   5
ATOM      5  C   UNL d   1      25.325 -15.979  -1.779  0.00  0.00     0.034 A 
ATOM      6  C   UNL d   1      23.976 -15.617  -1.679  0.00  0.00     0.032 A 
ATOM      7  C   UNL d   1      23.042 -16.493  -1.064  0.00  0.00     0.032 A 
ATOM      8  C   UNL d   1      23.450 -17.741  -0.567  0.00  0.00     0.035 A 
ATOM      9  C   UNL d   1      24.805 -18.050  -0.650  0.00  0.00     0.032 A 
ATOM     10  C   UNL d   1      25.720 -17.197  -1.251  0.00  0.00     0.032 A 
BRANCH   8  11
ATOM     11  N   UNL d   1      22.510 -18.668  -0.028  0.00  0.00    -0.323 N 
ATOM     12  C   UNL d   1      21.159 -18.707  -0.370  0.00  0.00     0.256 C 
ATOM     13  O   UNL d   1      20.589 -18.001  -1.207  0.00  0.00    -0.267 OA
ATOM     14  H   UNL d   1      22.849 -19.320   0.669  0.00  0.00     0.169 HD
BRANCH  12  15
ATOM     15  C   UNL d   1      20.265 -19.654   0.329  0.00  0.00     0.032 A 
ATOM     16  C   UNL d   1      19.112 -20.089  -0.347  0.00  0.00     0.017 A 
ATOM     17  C   UNL d   1      18.097 -20.751   0.339  0.00  0.00     0.002 A 
ATOM     18  C   UNL d   1      18.254 -21.033   1.694  0.00  0.00     0.007 A 
ATOM     19  C   UNL d   1      19.404 -20.611   2.377  0.00  0.00    -0.061 A 
ATOM     20  C   UNL d   1      19.530 -20.824   3.855  0.00  0.00     0.048 C 
ATOM     21  C   UNL d   1      20.412 -19.917   1.690  0.00  0.00     0.023 A 
ENDBRANCH  12  15
ENDBRANCH   8  11
ENDBRANCH   3   5
BRANCH   1  22
ATOM     22  C   UNL d   1      27.602 -14.072  -4.162  0.00  0.00     0.223 C 
BRANCH  22  23
ATOM     23  N   UNL d   1      28.232 -14.710  -5.321  0.00  0.00    -0.381 N 
ATOM     24  H   UNL d   1      28.172 -14.184  -6.194  0.00  0.00     0.160 HD
BRANCH  23  25
ATOM     25  C   UNL d   1      29.110 -15.770  -5.217  0.00  0.00     0.029 A 
ATOM     26  C   UNL d   1      29.356 -16.364  -3.971  0.00  0.00     0.029 A 
ATOM     27  C   UNL d   1      30.241 -17.442  -3.849  0.00  0.00     0.003 A 
ATOM     28  C   UNL d   1      30.920 -17.917  -4.970  0.00  0.00     0.017 A 
ATOM     29  C   UNL d   1      30.667 -17.358  -6.225  0.00  0.00     0.034 A 
ATOM     30  C   UNL d   1      29.794 -16.271  -6.333  0.00  0.00     0.046 A 
BRANCH  29  31
ATOM     31  C   UNL d   1      31.159 -18.051  -7.445  0.00  0.00     0.251 C 
ATOM     32  N   UNL d   1      30.680 -19.317  -7.714  0.00  0.00    -0.357 N 
ATOM     33  H   UNL d   1      29.918 -19.699  -7.168  0.00  0.00     0.162 HD
ATOM     34  O   UNL d   1      32.000 -17.490  -8.150  0.00  0.00    -0.268 OA
BRANCH  32  35
ATOM     35  C   UNL d   1      31.160 -20.047  -8.875  0.00  0.00     0.118 C 
ATOM     36  C   UNL d   1      32.474 -20.760  -8.613  0.00  0.00     0.026 C 
ENDBRANCH  32  35
ENDBRANCH  29  31
ENDBRANCH  23  25
ENDBRANCH  22  23
ENDBRANCH   1  22
TORSDOF 8
ENDMDL
MODEL 3
REMARK VINA RESULT:    -9.971      7.852     10.863
REMARK INTER + INTRA:         -13.565
REMARK INTER:                 -12.357
REMARK INTRA:                  -1.208
REMARK CONF_INDEPENDENT:        2.386
REMARK UNBOUND:                -1.208
REMARK  8 active torsions:
REMARK  status: ('A' for Active; 'I' for Inactive)
REMARK    1  A    between atoms: C_2  and  N_3 
REMARK       I    between atoms: N_3  and  C_4 
REMARK    2  A    between atoms: C_4  and  C_6 
REMARK    3  A    between atoms: C_10  and  N_11 
REMARK    4  A    between atoms: N_11  and  C_12 
REMARK    5  A    between atoms: C_12  and  C_13 
REMARK       I    between atoms: C_13  and  N_15 
REMARK    6  A    between atoms: N_15  and  C_16 
REMARK    7  A    between atoms: C_19  and  N_20 
REMARK       I    between atoms: N_20  and  C_21 
REMARK    8  A    between atoms: C_21  and  C_23 
ROOT
ATOM      1  C   UNL d   1      26.077 -14.541  -3.606  0.00  0.00     0.239 C 
ATOM      2  O   UNL d   1      25.027 -14.575  -4.253  0.00  0.00    -0.271 OA
ATOM      3  N   UNL d   1      26.251 -15.127  -2.350  0.00  0.00    -0.326 N 
ATOM      4  H   UNL d   1      27.068 -14.909  -1.794  0.00  0.00     0.169 HD
ENDROOT
BRANCH   3   5
ATOM      5  C   UNL d   1      25.281 -15.985  -1.783  0.00  0.00     0.034 A 
ATOM      6  C   UNL d   1      23.936 -15.618  -1.649  0.00  0.00     0.032 A 
ATOM      7  C   UNL d   1      23.013 -16.497  -1.022  0.00  0.00     0.032 A 
ATOM      8  C   UNL d   1      23.427 -17.752  -0.547  0.00  0.00     0.035 A 
ATOM      9  C   UNL d   1      24.778 -18.065  -0.664  0.00  0.00     0.032 A 
ATOM     10  C   UNL d   1      25.683 -17.210  -1.277  0.00  0.00     0.032 A 
BRANCH   8  11
ATOM     11  N   UNL d   1      22.496 -18.681   0.004  0.00  0.00    -0.323 N 
ATOM     12  C   UNL d   1      21.157 -18.770  -0.374  0.00  0.00     0.256 C 
ATOM     13  O   UNL d   1      20.594 -18.114  -1.255  0.00  0.00    -0.267 OA
ATOM     14  H   UNL d   1      22.831 -19.295   0.737  0.00  0.00     0.169 HD
BRANCH  12  15
ATOM     15  C   UNL d   1      20.267 -19.711   0.339  0.00  0.00     0.032 A 
ATOM     16  C   UNL d   1      19.120 -20.166  -0.333  0.00  0.00     0.017 A 
ATOM     17  C   UNL d   1      18.107 -20.823   0.362  0.00  0.00     0.002 A 
ATOM     18  C   UNL d   1      18.262 -21.081   1.722  0.00  0.00     0.007 A 
ATOM     19  C   UNL d   1      19.407 -20.638   2.401  0.00  0.00    -0.061 A 
ATOM     20  C   UNL d   1      19.530 -20.825   3.882  0.00  0.00     0.048 C 
ATOM     21  C   UNL d   1      20.412 -19.949   1.705  0.00  0.00     0.023 A 
ENDBRANCH  12  15
ENDBRANCH   8  11
ENDBRANCH   3   5
BRANCH   1  22
ATOM     22  C   UNL d   1      27.287 -13.778  -4.151  0.00  0.00     0.223 C 
BRANCH  22  23
ATOM     23  N   UNL d   1      27.775 -12.822  -3.153  0.00  0.00    -0.381 N 
ATOM     24  H   UNL d   1      28.653 -13.077  -2.699  0.00  0.00     0.160 HD
BRANCH  23  25
ATOM     25  C   UNL d   1      27.291 -11.535  -3.037  0.00  0.00     0.029 A 
ATOM     26  C   UNL d   1      27.740 -10.702  -2.002  0.00  0.00     0.029 A 
ATOM     27  C   UNL d   1      27.263  -9.393  -1.872  0.00  0.00     0.003 A 
ATOM     28  C   UNL d   1      26.300  -8.911  -2.758  0.00  0.00     0.017 A 
ATOM     29  C   UNL d   1      25.862  -9.714  -3.813  0.00  0.00     0.034 A 
ATOM     30  C   UNL d   1      26.333 -11.026  -3.924  0.00  0.00     0.046 A 
BRANCH  29  31
ATOM     31  C   UNL d   1      25.071  -9.104  -4.915  0.00  0.00     0.251 C 
ATOM     32  N   UNL d   1      24.314  -7.985  -4.633  0.00  0.00    -0.357 N 
ATOM     33  H   UNL d   1      24.405  -7.522  -3.737  0.00  0.00     0.162 HD
ATOM     34  O   UNL d   1      25.090  -9.637  -6.026  0.00  0.00    -0.268 OA
BRANCH  32  35
ATOM     35  C   UNL d   1      23.496  -7.377  -5.669  0.00  0.00     0.118 C 
ATOM     36  C   UNL d   1      22.159  -6.888  -5.145  0.00  0.00     0.026 C 
ENDBRANCH  32  35
ENDBRANCH  29  31
ENDBRANCH  23  25
ENDBRANCH  22  23
ENDBRANCH   1  22
TORSDOF 8
ENDMDL
MODEL 4
REMARK VINA RESULT:    -9.886      7.600     11.061
REMARK INTER + INTRA:         -13.518
REMARK INTER:                 -12.273
REMARK INTRA:                  -1.246
REMARK CONF_INDEPENDENT:        2.386
REMARK UNBOUND:                -1.246
REMARK  8 active torsions:
REMARK  status: ('A' for Active; 'I' for Inactive)
REMARK    1  A    between atoms: C_2  and  N_3 
REMARK       I    between atoms: N_3  and  C_4 
REMARK    2  A    between atoms: C_4  and  C_6 
REMARK    3  A    between atoms: C_10  and  N_11 
REMARK    4  A    between atoms: N_11  and  C_12 
REMARK    5  A    between atoms: C_12  and  C_13 
REMARK       I    between atoms: C_13  and  N_15 
REMARK    6  A    between atoms: N_15  and  C_16 
REMARK    7  A    between atoms: C_19  and  N_20 
REMARK       I    between atoms: N_20  and  C_21 
REMARK    8  A    between atoms: C_21  and  C_23 
ROOT
ATOM      1  C   UNL d   1      25.850 -14.278  -3.456  0.00  0.00     0.239 C 
ATOM      2  O   UNL d   1      24.795 -14.389  -4.086  0.00  0.00    -0.271 OA
ATOM      3  N   UNL d   1      26.107 -14.896  -2.231  0.00  0.00    -0.326 N 
ATOM      4  H   UNL d   1      26.910 -14.622  -1.679  0.00  0.00     0.169 HD
ENDROOT
BRANCH   3   5
ATOM      5  C   UNL d   1      25.238 -15.870  -1.686  0.00  0.00     0.034 A 
ATOM      6  C   UNL d   1      25.692 -17.111  -1.223  0.00  0.00     0.032 A 
ATOM      7  C   UNL d   1      24.770 -18.074  -0.735  0.00  0.00     0.032 A 
ATOM      8  C   UNL d   1      23.395 -17.792  -0.688  0.00  0.00     0.035 A 
ATOM      9  C   UNL d   1      22.978 -16.563  -1.192  0.00  0.00     0.032 A 
ATOM     10  C   UNL d   1      23.876 -15.618  -1.669  0.00  0.00     0.032 A 
BRANCH   8  11
ATOM     11  N   UNL d   1      22.467 -18.713  -0.119  0.00  0.00    -0.323 N 
ATOM     12  C   UNL d   1      21.108 -18.751  -0.426  0.00  0.00     0.256 C 
ATOM     13  O   UNL d   1      20.518 -18.048  -1.253  0.00  0.00    -0.267 OA
ATOM     14  H   UNL d   1      22.822 -19.362   0.573  0.00  0.00     0.169 HD
BRANCH  12  15
ATOM     15  C   UNL d   1      20.229 -19.691   0.301  0.00  0.00     0.032 A 
ATOM     16  C   UNL d   1      19.079 -20.158  -0.358  0.00  0.00     0.017 A 
ATOM     17  C   UNL d   1      18.076 -20.816   0.351  0.00  0.00     0.002 A 
ATOM     18  C   UNL d   1      18.243 -21.060   1.711  0.00  0.00     0.007 A 
ATOM     19  C   UNL d   1      19.391 -20.606   2.377  0.00  0.00    -0.061 A 
ATOM     20  C   UNL d   1      19.527 -20.779   3.860  0.00  0.00     0.048 C 
ATOM     21  C   UNL d   1      20.386 -19.916   1.668  0.00  0.00     0.023 A 
ENDBRANCH  12  15
ENDBRANCH   8  11
ENDBRANCH   3   5
BRANCH   1  22
ATOM     22  C   UNL d   1      26.967 -13.375  -3.987  0.00  0.00     0.223 C 
BRANCH  22  23
ATOM     23  N   UNL d   1      26.438 -12.454  -4.996  0.00  0.00    -0.381 N 
ATOM     24  H   UNL d   1      26.076 -12.896  -5.842  0.00  0.00     0.160 HD
BRANCH  23  25
ATOM     25  C   UNL d   1      26.146 -11.131  -4.734  0.00  0.00     0.029 A 
ATOM     26  C   UNL d   1      25.578 -10.323  -5.730  0.00  0.00     0.029 A 
ATOM     27  C   UNL d   1      25.272  -8.980  -5.480  0.00  0.00     0.003 A 
ATOM     28  C   UNL d   1      25.564  -8.418  -4.238  0.00  0.00     0.017 A 
ATOM     29  C   UNL d   1      26.102  -9.213  -3.224  0.00  0.00     0.034 A 
ATOM     30  C   UNL d   1      26.419 -10.548  -3.489  0.00  0.00     0.046 A 
BRANCH  29  31
ATOM     31  C   UNL d   1      26.134  -8.695  -1.831  0.00  0.00     0.251 C 
ATOM     32  N   UNL d   1      25.180  -7.771  -1.455  0.00  0.00    -0.357 N 
ATOM     33  H   UNL d   1      24.407  -7.559  -2.073  0.00  0.00     0.162 HD
ATOM     34  O   UNL d   1      27.027  -9.080  -1.073  0.00  0.00    -0.268 OA
BRANCH  32  35
ATOM     35  C   UNL d   1      25.195  -7.210  -0.115  0.00  0.00     0.118 C 
ATOM     36  C   UNL d   1      25.918  -5.878  -0.049  0.00  0.00     0.026 C 
ENDBRANCH  32  35
ENDBRANCH  29  31
ENDBRANCH  23  25
ENDBRANCH  22  23
ENDBRANCH   1  22
TORSDOF 8
ENDMDL
MODEL 5
REMARK VINA RESULT:    -9.753      7.838     10.749
REMARK INTER + INTRA:         -13.232
REMARK INTER:                 -12.140
REMARK INTRA:                  -1.092
REMARK CONF_INDEPENDENT:        2.386
REMARK UNBOUND:                -1.092
REMARK  8 active torsions:
REMARK  status: ('A' for Active; 'I' for Inactive)
REMARK    1  A    between atoms: C_2  and  N_3 
REMARK       I    between atoms: N_3  and  C_4 
REMARK    2  A    between atoms: C_4  and  C_6 
REMARK    3  A    between atoms: C_10  and  N_11 
REMARK    4  A    between atoms: N_11  and  C_12 
REMARK    5  A    between atoms: C_12  and  C_13 
REMARK       I    between atoms: C_13  and  N_15 
REMARK    6  A    between atoms: N_15  and  C_16 
REMARK    7  A    between atoms: C_19  and  N_20 
REMARK       I    between atoms: N_20  and  C_21 
REMARK    8  A    between atoms: C_21  and  C_23 
ROOT
ATOM      1  C   UNL d   1      26.631 -15.191  -3.723  0.00  0.00     0.239 C 
ATOM      2  O   UNL d   1      25.599 -15.334  -4.383  0.00  0.00    -0.271 OA
ATOM      3  N   UNL d   1      26.769 -15.560  -2.383  0.00  0.00    -0.326 N 
ATOM      4  H   UNL d   1      27.571 -15.250  -1.847  0.00  0.00     0.169 HD
ENDROOT
BRANCH   3   5
ATOM      5  C   UNL d   1      25.782 -16.316  -1.708  0.00  0.00     0.034 A 
ATOM      6  C   UNL d   1      26.091 -17.447  -0.943  0.00  0.00     0.032 A 
ATOM      7  C   UNL d   1      25.055 -18.202  -0.331  0.00  0.00     0.032 A 
ATOM      8  C   UNL d   1      23.712 -17.816  -0.463  0.00  0.00     0.035 A 
ATOM      9  C   UNL d   1      23.442 -16.709  -1.262  0.00  0.00     0.032 A 
ATOM     10  C   UNL d   1      24.450 -15.967  -1.861  0.00  0.00     0.032 A 
BRANCH   8  11
ATOM     11  N   UNL d   1      22.670 -18.511   0.218  0.00  0.00    -0.323 N 
ATOM     12  C   UNL d   1      21.349 -18.576  -0.223  0.00  0.00     0.256 C 
ATOM     13  O   UNL d   1      20.896 -18.101  -1.268  0.00  0.00    -0.267 OA
ATOM     14  H   UNL d   1      22.907 -18.962   1.094  0.00  0.00     0.169 HD
BRANCH  12  15
ATOM     15  C   UNL d   1      20.339 -19.248   0.621  0.00  0.00     0.032 A 
ATOM     16  C   UNL d   1      20.617 -19.390   1.991  0.00  0.00     0.017 A 
ATOM     17  C   UNL d   1      19.853 -20.243   2.784  0.00  0.00     0.002 A 
ATOM     18  C   UNL d   1      18.770 -20.916   2.224  0.00  0.00     0.007 A 
ATOM     19  C   UNL d   1      18.478 -20.775   0.859  0.00  0.00    -0.061 A 
ATOM     20  C   UNL d   1      17.376 -21.575   0.232  0.00  0.00     0.048 C 
ATOM     21  C   UNL d   1      19.268 -19.939   0.055  0.00  0.00     0.023 A 
ENDBRANCH  12  15
ENDBRANCH   8  11
ENDBRANCH   3   5
BRANCH   1  22
ATOM     22  C   UNL d   1      27.856 -14.524  -4.352  0.00  0.00     0.223 C 
BRANCH  22  23
ATOM     23  N   UNL d   1      29.052 -15.338  -4.121  0.00  0.00    -0.381 N 
ATOM     24  H   UNL d   1      29.280 -15.508  -3.140  0.00  0.00     0.160 HD
BRANCH  23  25
ATOM     25  C   UNL d   1      29.658 -16.090  -5.106  0.00  0.00     0.029 A 
ATOM     26  C   UNL d   1      30.160 -15.470  -6.260  0.00  0.00     0.029 A 
ATOM     27  C   UNL d   1      30.781 -16.217  -7.267  0.00  0.00     0.003 A 
ATOM     28  C   UNL d   1      30.877 -17.604  -7.148  0.00  0.00     0.017 A 
ATOM     29  C   UNL d   1      30.411 -18.237  -5.994  0.00  0.00     0.034 A 
ATOM     30  C   UNL d   1      29.777 -17.483  -5.001  0.00  0.00     0.046 A 
BRANCH  29  31
ATOM     31  C   UNL d   1      30.778 -19.655  -5.741  0.00  0.00     0.251 C 
ATOM     32  N   UNL d   1      30.815 -20.097  -4.434  0.00  0.00    -0.357 N 
ATOM     33  H   UNL d   1      30.472 -19.505  -3.688  0.00  0.00     0.162 HD
ATOM     34  O   UNL d   1      31.070 -20.374  -6.699  0.00  0.00    -0.268 OA
BRANCH  32  35
ATOM     35  C   UNL d   1      31.205 -21.464  -4.137  0.00  0.00     0.118 C 
ATOM     36  C   UNL d   1      31.156 -21.776  -2.652  0.00  0.00     0.026 C 
ENDBRANCH  32  35
ENDBRANCH  29  31
ENDBRANCH  23  25
ENDBRANCH  22  23
ENDBRANCH   1  22
TORSDOF 8
ENDMDL
MODEL 6
REMARK VINA RESULT:    -9.576      7.980     10.551
REMARK INTER + INTRA:         -13.203
REMARK INTER:                 -11.963
REMARK INTRA:                  -1.241
REMARK CONF_INDEPENDENT:        2.386
REMARK UNBOUND:                -1.241
REMARK  8 active torsions:
REMARK  status: ('A' for Active; 'I' for Inactive)
REMARK    1  A    between atoms: C_2  and  N_3 
REMARK       I    between atoms: N_3  and  C_4 
REMARK    2  A    between atoms: C_4  and  C_6 
REMARK    3  A    between atoms: C_10  and  N_11 
REMARK    4  A    between atoms: N_11  and  C_12 
REMARK    5  A    between atoms: C_12  and  C_13 
REMARK       I    between atoms: C_13  and  N_15 
REMARK    6  A    between atoms: N_15  and  C_16 
REMARK    7  A    between atoms: C_19  and  N_20 
REMARK       I    between atoms: N_20  and  C_21 
REMARK    8  A    between atoms: C_21  and  C_23 
ROOT
ATOM      1  C   UNL d   1      26.362 -14.674  -3.745  0.00  0.00     0.239 C 
ATOM      2  O   UNL d   1      25.384 -14.824  -4.481  0.00  0.00    -0.271 OA
ATOM      3  N   UNL d   1      26.434 -15.122  -2.425  0.00  0.00    -0.326 N 
ATOM      4  H   UNL d   1      27.182 -14.810  -1.818  0.00  0.00     0.169 HD
ENDROOT
BRANCH   3   5
ATOM      5  C   UNL d   1      25.448 -15.968  -1.866  0.00  0.00     0.034 A 
ATOM      6  C   UNL d   1      24.094 -15.616  -1.814  0.00  0.00     0.032 A 
ATOM      7  C   UNL d   1      23.152 -16.479  -1.193  0.00  0.00     0.032 A 
ATOM      8  C   UNL d   1      23.558 -17.705  -0.642  0.00  0.00     0.035 A 
ATOM      9  C   UNL d   1      24.917 -18.003  -0.679  0.00  0.00     0.032 A 
ATOM     10  C   UNL d   1      25.840 -17.164  -1.287  0.00  0.00     0.032 A 
BRANCH   8  11
ATOM     11  N   UNL d   1      22.613 -18.622  -0.095  0.00  0.00    -0.323 N 
ATOM     12  C   UNL d   1      21.260 -18.651  -0.431  0.00  0.00     0.256 C 
ATOM     13  O   UNL d   1      20.692 -17.944  -1.269  0.00  0.00    -0.267 OA
ATOM     14  H   UNL d   1      22.949 -19.275   0.603  0.00  0.00     0.169 HD
BRANCH  12  15
ATOM     15  C   UNL d   1      20.361 -19.587   0.275  0.00  0.00     0.032 A 
ATOM     16  C   UNL d   1      19.240 -20.073  -0.420  0.00  0.00     0.017 A 
ATOM     17  C   UNL d   1      18.215 -20.728   0.259  0.00  0.00     0.002 A 
ATOM     18  C   UNL d   1      18.331 -20.952   1.628  0.00  0.00     0.007 A 
ATOM     19  C   UNL d   1      19.450 -20.480   2.331  0.00  0.00    -0.061 A 
ATOM     20  C   UNL d   1      19.530 -20.632   3.820  0.00  0.00     0.048 C 
ATOM     21  C   UNL d   1      20.467 -19.793   1.651  0.00  0.00     0.023 A 
ENDBRANCH  12  15
ENDBRANCH   8  11
ENDBRANCH   3   5
BRANCH   1  22
ATOM     22  C   UNL d   1      27.588 -13.907  -4.248  0.00  0.00     0.223 C 
BRANCH  22  23
ATOM     23  N   UNL d   1      27.994 -14.408  -5.564  0.00  0.00    -0.381 N 
ATOM     24  H   UNL d   1      27.638 -13.877  -6.361  0.00  0.00     0.160 HD
BRANCH  23  25
ATOM     25  C   UNL d   1      29.017 -15.315  -5.747  0.00  0.00     0.029 A 
ATOM     26  C   UNL d   1      29.823 -15.250  -6.892  0.00  0.00     0.029 A 
ATOM     27  C   UNL d   1      30.868 -16.160  -7.092  0.00  0.00     0.003 A 
ATOM     28  C   UNL d   1      31.097 -17.172  -6.160  0.00  0.00     0.017 A 
ATOM     29  C   UNL d   1      30.325 -17.237  -4.999  0.00  0.00     0.034 A 
ATOM     30  C   UNL d   1      29.274 -16.333  -4.818  0.00  0.00     0.046 A 
BRANCH  29  31
ATOM     31  C   UNL d   1      30.758 -18.119  -3.883  0.00  0.00     0.251 C 
ATOM     32  N   UNL d   1      30.406 -17.765  -2.597  0.00  0.00    -0.357 N 
ATOM     33  H   UNL d   1      29.760 -17.001  -2.438  0.00  0.00     0.162 HD
ATOM     34  O   UNL d   1      31.443 -19.111  -4.140  0.00  0.00    -0.268 OA
BRANCH  32  35
ATOM     35  C   UNL d   1      30.839 -18.577  -1.472  0.00  0.00     0.118 C 
ATOM     36  C   UNL d   1      32.324 -18.444  -1.194  0.00  0.00     0.026 C 
ENDBRANCH  32  35
ENDBRANCH  29  31
ENDBRANCH  23  25
ENDBRANCH  22  23
ENDBRANCH   1  22
TORSDOF 8
ENDMDL
MODEL 7
REMARK VINA RESULT:    -9.508      7.774     11.087
REMARK INTER + INTRA:         -13.110
REMARK INTER:                 -11.894
REMARK INTRA:                  -1.216
REMARK CONF_INDEPENDENT:        2.386
REMARK UNBOUND:                -1.216
REMARK  8 active torsions:
REMARK  status: ('A' for Active; 'I' for Inactive)
REMARK    1  A    between atoms: C_2  and  N_3 
REMARK       I    between atoms: N_3  and  C_4 
REMARK    2  A    between atoms: C_4  and  C_6 
REMARK    3  A    between atoms: C_10  and  N_11 
REMARK    4  A    between atoms: N_11  and  C_12 
REMARK    5  A    between atoms: C_12  and  C_13 
REMARK       I    between atoms: C_13  and  N_15 
REMARK    6  A    between atoms: N_15  and  C_16 
REMARK    7  A    between atoms: C_19  and  N_20 
REMARK       I    between atoms: N_20  and  C_21 
REMARK    8  A    between atoms: C_21  and  C_23 
ROOT
ATOM      1  C   UNL d   1      26.950 -15.483  -3.688  0.00  0.00     0.239 C 
ATOM      2  O   UNL d   1      25.929 -15.404  -4.376  0.00  0.00    -0.271 OA
ATOM      3  N   UNL d   1      26.975 -15.910  -2.359  0.00  0.00    -0.326 N 
ATOM      4  H   UNL d   1      27.806 -15.778  -1.796  0.00  0.00     0.169 HD
ENDROOT
BRANCH   3   5
ATOM      5  C   UNL d   1      25.841 -16.477  -1.732  0.00  0.00     0.034 A 
ATOM      6  C   UNL d   1      24.541 -16.012  -1.962  0.00  0.00     0.032 A 
ATOM      7  C   UNL d   1      23.442 -16.581  -1.265  0.00  0.00     0.032 A 
ATOM      8  C   UNL d   1      23.638 -17.630  -0.353  0.00  0.00     0.035 A 
ATOM      9  C   UNL d   1      24.948 -18.040  -0.122  0.00  0.00     0.032 A 
ATOM     10  C   UNL d   1      26.025 -17.487  -0.803  0.00  0.00     0.032 A 
BRANCH   8  11
ATOM     11  N   UNL d   1      22.537 -18.271   0.288  0.00  0.00    -0.323 N 
ATOM     12  C   UNL d   1      21.465 -18.853  -0.386  0.00  0.00     0.256 C 
ATOM     13  O   UNL d   1      21.327 -18.949  -1.609  0.00  0.00    -0.267 OA
ATOM     14  H   UNL d   1      22.529 -18.277   1.301  0.00  0.00     0.169 HD
BRANCH  12  15
ATOM     15  C   UNL d   1      20.336 -19.405   0.392  0.00  0.00     0.032 A 
ATOM     16  C   UNL d   1      20.471 -19.465   1.790  0.00  0.00     0.017 A 
ATOM     17  C   UNL d   1      19.580 -20.215   2.555  0.00  0.00     0.002 A 
ATOM     18  C   UNL d   1      18.515 -20.861   1.933  0.00  0.00     0.007 A 
ATOM     19  C   UNL d   1      18.366 -20.800   0.539  0.00  0.00    -0.061 A 
ATOM     20  C   UNL d   1      17.280 -21.576  -0.143  0.00  0.00     0.048 C 
ATOM     21  C   UNL d   1      19.282 -20.070  -0.233  0.00  0.00     0.023 A 
ENDBRANCH  12  15
ENDBRANCH   8  11
ENDBRANCH   3   5
BRANCH   1  22
ATOM     22  C   UNL d   1      28.299 -15.051  -4.268  0.00  0.00     0.223 C 
BRANCH  22  23
ATOM     23  N   UNL d   1      28.180 -14.819  -5.710  0.00  0.00    -0.381 N 
ATOM     24  H   UNL d   1      27.896 -15.632  -6.259  0.00  0.00     0.160 HD
BRANCH  23  25
ATOM     25  C   UNL d   1      28.138 -13.561  -6.274  0.00  0.00     0.029 A 
ATOM     26  C   UNL d   1      28.561 -13.365  -7.597  0.00  0.00     0.029 A 
ATOM     27  C   UNL d   1      28.522 -12.096  -8.186  0.00  0.00     0.003 A 
ATOM     28  C   UNL d   1      28.090 -10.997  -7.444  0.00  0.00     0.017 A 
ATOM     29  C   UNL d   1      27.637 -11.175  -6.136  0.00  0.00     0.034 A 
ATOM     30  C   UNL d   1      27.696 -12.444  -5.552  0.00  0.00     0.046 A 
BRANCH  29  31
ATOM     31  C   UNL d   1      26.909 -10.070  -5.459  0.00  0.00     0.251 C 
ATOM     32  N   UNL d   1      25.558 -10.227  -5.221  0.00  0.00    -0.357 N 
ATOM     33  H   UNL d   1      25.115 -11.123  -5.383  0.00  0.00     0.162 HD
ATOM     34  O   UNL d   1      27.524  -9.042  -5.168  0.00  0.00    -0.268 OA
BRANCH  32  35
ATOM     35  C   UNL d   1      24.798  -9.159  -4.596  0.00  0.00     0.118 C 
ATOM     36  C   UNL d   1      24.113  -8.260  -5.609  0.00  0.00     0.026 C 
ENDBRANCH  32  35
ENDBRANCH  29  31
ENDBRANCH  23  25
ENDBRANCH  22  23
ENDBRANCH   1  22
TORSDOF 8
ENDMDL
MODEL 8
REMARK VINA RESULT:    -9.040      6.786     10.434
REMARK INTER + INTRA:         -12.868
REMARK INTER:                 -11.427
REMARK INTRA:                  -1.441
REMARK CONF_INDEPENDENT:        2.386
REMARK UNBOUND:                -1.441
REMARK  8 active torsions:
REMARK  status: ('A' for Active; 'I' for Inactive)
REMARK    1  A    between atoms: C_2  and  N_3 
REMARK       I    between atoms: N_3  and  C_4 
REMARK    2  A    between atoms: C_4  and  C_6 
REMARK    3  A    between atoms: C_10  and  N_11 
REMARK    4  A    between atoms: N_11  and  C_12 
REMARK    5  A    between atoms: C_12  and  C_13 
REMARK       I    between atoms: C_13  and  N_15 
REMARK    6  A    between atoms: N_15  and  C_16 
REMARK    7  A    between atoms: C_19  and  N_20 
REMARK       I    between atoms: N_20  and  C_21 
REMARK    8  A    between atoms: C_21  and  C_23 
ROOT
ATOM      1  C   UNL d   1      28.123 -14.698  -0.873  0.00  0.00     0.239 C 
ATOM      2  O   UNL d   1      27.607 -14.360   0.196  0.00  0.00    -0.271 OA
ATOM      3  N   UNL d   1      27.733 -15.811  -1.621  0.00  0.00    -0.326 N 
ATOM      4  H   UNL d   1      28.309 -16.140  -2.386  0.00  0.00     0.169 HD
ENDROOT
BRANCH   3   5
ATOM      5  C   UNL d   1      26.571 -16.554  -1.309  0.00  0.00     0.034 A 
ATOM      6  C   UNL d   1      25.367 -16.399  -2.008  0.00  0.00     0.032 A 
ATOM      7  C   UNL d   1      24.214 -17.131  -1.618  0.00  0.00     0.032 A 
ATOM      8  C   UNL d   1      24.266 -18.034  -0.545  0.00  0.00     0.035 A 
ATOM      9  C   UNL d   1      25.469 -18.132   0.149  0.00  0.00     0.032 A 
ATOM     10  C   UNL d   1      26.599 -17.420  -0.229  0.00  0.00     0.032 A 
BRANCH   8  11
ATOM     11  N   UNL d   1      23.142 -18.840  -0.198  0.00  0.00    -0.323 N 
ATOM     12  C   UNL d   1      21.821 -18.524  -0.510  0.00  0.00     0.256 C 
ATOM     13  O   UNL d   1      21.429 -17.551  -1.161  0.00  0.00    -0.267 OA
ATOM     14  H   UNL d   1      23.322 -19.684   0.333  0.00  0.00     0.169 HD
BRANCH  12  15
ATOM     15  C   UNL d   1      20.734 -19.394  -0.013  0.00  0.00     0.032 A 
ATOM     16  C   UNL d   1      19.684 -19.701  -0.895  0.00  0.00     0.017 A 
ATOM     17  C   UNL d   1      18.507 -20.276  -0.420  0.00  0.00     0.002 A 
ATOM     18  C   UNL d   1      18.395 -20.599   0.929  0.00  0.00     0.007 A 
ATOM     19  C   UNL d   1      19.441 -20.304   1.817  0.00  0.00    -0.061 A 
ATOM     20  C   UNL d   1      19.284 -20.559   3.286  0.00  0.00     0.048 C 
ATOM     21  C   UNL d   1      20.614 -19.697   1.343  0.00  0.00     0.023 A 
ENDBRANCH  12  15
ENDBRANCH   8  11
ENDBRANCH   3   5
BRANCH   1  22
ATOM     22  C   UNL d   1      29.304 -13.905  -1.438  0.00  0.00     0.223 C 
BRANCH  22  23
ATOM     23  N   UNL d   1      29.180 -13.777  -2.892  0.00  0.00    -0.381 N 
ATOM     24  H   UNL d   1      29.887 -14.276  -3.435  0.00  0.00     0.160 HD
BRANCH  23  25
ATOM     25  C   UNL d   1      28.046 -13.300  -3.517  0.00  0.00     0.029 A 
ATOM     26  C   UNL d   1      27.123 -14.192  -4.082  0.00  0.00     0.029 A 
ATOM     27  C   UNL d   1      25.965 -13.726  -4.715  0.00  0.00     0.003 A 
ATOM     28  C   UNL d   1      25.734 -12.355  -4.824  0.00  0.00     0.017 A 
ATOM     29  C   UNL d   1      26.626 -11.451  -4.242  0.00  0.00     0.034 A 
ATOM     30  C   UNL d   1      27.787 -11.927  -3.626  0.00  0.00     0.046 A 
BRANCH  29  31
ATOM     31  C   UNL d   1      26.231 -10.025  -4.101  0.00  0.00     0.251 C 
ATOM     32  N   UNL d   1      25.070  -9.605  -4.719  0.00  0.00    -0.357 N 
ATOM     33  H   UNL d   1      24.445 -10.280  -5.140  0.00  0.00     0.162 HD
ATOM     34  O   UNL d   1      26.967  -9.263  -3.470  0.00  0.00    -0.268 OA
BRANCH  32  35
ATOM     35  C   UNL d   1      24.665  -8.212  -4.639  0.00  0.00     0.118 C 
ATOM     36  C   UNL d   1      24.739  -7.505  -5.980  0.00  0.00     0.026 C 
ENDBRANCH  32  35
ENDBRANCH  29  31
ENDBRANCH  23  25
ENDBRANCH  22  23
ENDBRANCH   1  22
TORSDOF 8
ENDMDL
MODEL 9
REMARK VINA RESULT:    -8.976      6.331     10.230
REMARK INTER + INTRA:         -12.870
REMARK INTER:                 -11.362
REMARK INTRA:                  -1.509
REMARK CONF_INDEPENDENT:        2.386
REMARK UNBOUND:                -1.509
REMARK  8 active torsions:
REMARK  status: ('A' for Active; 'I' for Inactive)
REMARK    1  A    between atoms: C_2  and  N_3 
REMARK       I    between atoms: N_3  and  C_4 
REMARK    2  A    between atoms: C_4  and  C_6 
REMARK    3  A    between atoms: C_10  and  N_11 
REMARK    4  A    between atoms: N_11  and  C_12 
REMARK    5  A    between atoms: C_12  and  C_13 
REMARK       I    between atoms: C_13  and  N_15 
REMARK    6  A    between atoms: N_15  and  C_16 
REMARK    7  A    between atoms: C_19  and  N_20 
REMARK       I    between atoms: N_20  and  C_21 
REMARK    8  A    between atoms: C_21  and  C_23 
ROOT
ATOM      1  C   UNL d   1      27.868 -14.272  -0.239  0.00  0.00     0.239 C 
ATOM      2  O   UNL d   1      27.250 -13.938   0.775  0.00  0.00    -0.271 OA
ATOM      3  N   UNL d   1      27.597 -15.418  -0.988  0.00  0.00    -0.326 N 
ATOM      4  H   UNL d   1      28.250 -15.735  -1.694  0.00  0.00     0.169 HD
ENDROOT
BRANCH   3   5
ATOM      5  C   UNL d   1      26.449 -16.211  -0.755  0.00  0.00     0.034 A 
ATOM      6  C   UNL d   1      25.163 -15.804  -1.128  0.00  0.00     0.032 A 
ATOM      7  C   UNL d   1      24.037 -16.615  -0.821  0.00  0.00     0.032 A 
ATOM      8  C   UNL d   1      24.197 -17.843  -0.160  0.00  0.00     0.035 A 
ATOM      9  C   UNL d   1      25.486 -18.196   0.228  0.00  0.00     0.032 A 
ATOM     10  C   UNL d   1      26.589 -17.408  -0.071  0.00  0.00     0.032 A 
BRANCH   8  11
ATOM     11  N   UNL d   1      23.089 -18.709   0.075  0.00  0.00    -0.323 N 
ATOM     12  C   UNL d   1      21.783 -18.445  -0.338  0.00  0.00     0.256 C 
ATOM     13  O   UNL d   1      21.400 -17.476  -0.999  0.00  0.00    -0.267 OA
ATOM     14  H   UNL d   1      23.265 -19.556   0.602  0.00  0.00     0.169 HD
BRANCH  12  15
ATOM     15  C   UNL d   1      20.702 -19.376   0.050  0.00  0.00     0.032 A 
ATOM     16  C   UNL d   1      19.697 -19.644  -0.896  0.00  0.00     0.017 A 
ATOM     17  C   UNL d   1      18.518 -20.281  -0.513  0.00  0.00     0.002 A 
ATOM     18  C   UNL d   1      18.363 -20.705   0.804  0.00  0.00     0.007 A 
ATOM     19  C   UNL d   1      19.363 -20.450   1.754  0.00  0.00    -0.061 A 
ATOM     20  C   UNL d   1      19.155 -20.815   3.192  0.00  0.00     0.048 C 
ATOM     21  C   UNL d   1      20.537 -19.781   1.374  0.00  0.00     0.023 A 
ENDBRANCH  12  15
ENDBRANCH   8  11
ENDBRANCH   3   5
BRANCH   1  22
ATOM     22  C   UNL d   1      29.054 -13.433  -0.723  0.00  0.00     0.223 C 
BRANCH  22  23
ATOM     23  N   UNL d   1      28.692 -12.698  -1.938  0.00  0.00    -0.381 N 
ATOM     24  H   UNL d   1      29.131 -11.782  -2.040  0.00  0.00     0.160 HD
BRANCH  23  25
ATOM     25  C   UNL d   1      28.070 -13.285  -3.021  0.00  0.00     0.029 A 
ATOM     26  C   UNL d   1      26.725 -13.004  -3.301  0.00  0.00     0.029 A 
ATOM     27  C   UNL d   1      26.079 -13.588  -4.397  0.00  0.00     0.003 A 
ATOM     28  C   UNL d   1      26.765 -14.491  -5.210  0.00  0.00     0.017 A 
ATOM     29  C   UNL d   1      28.113 -14.761  -4.966  0.00  0.00     0.034 A 
ATOM     30  C   UNL d   1      28.743 -14.185  -3.859  0.00  0.00     0.046 A 
BRANCH  29  31
ATOM     31  C   UNL d   1      28.910 -15.481  -5.994  0.00  0.00     0.251 C 
ATOM     32  N   UNL d   1      29.659 -16.570  -5.595  0.00  0.00    -0.357 N 
ATOM     33  H   UNL d   1      29.557 -16.941  -4.659  0.00  0.00     0.162 HD
ATOM     34  O   UNL d   1      28.904 -15.061  -7.153  0.00  0.00    -0.268 OA
BRANCH  32  35
ATOM     35  C   UNL d   1      30.483 -17.281  -6.558  0.00  0.00     0.118 C 
ATOM     36  C   UNL d   1      31.654 -16.451  -7.049  0.00  0.00     0.026 C 
ENDBRANCH  32  35
ENDBRANCH  29  31
ENDBRANCH  23  25
ENDBRANCH  22  23
ENDBRANCH   1  22
TORSDOF 8
ENDMDL
