MODEL 1
REMARK VINA RESULT:    -8.363      0.000      0.000
REMARK INTER + INTRA:          -9.572
REMARK INTER:                  -9.258
REMARK INTRA:                  -0.314
REMARK CONF_INDEPENDENT:        0.895
REMARK UNBOUND:                -0.314
REMARK  3 active torsions:
REMARK  status: ('A' for Active; 'I' for Inactive)
REMARK    1  A    between atoms: C_4  and  N_5 
REMARK       I    between atoms: N_5  and  C_6 
REMARK    2  A    between atoms: C_6  and  C_8 
REMARK    3  A    between atoms: C_11  and  O_12 
ROOT
ATOM      1  N   UNL d   1      22.931 -18.579   0.012  0.00  0.00    -0.323 N 
ATOM      2  C   UNL d   1      21.655 -18.282  -0.465  0.00  0.00     0.256 C 
ATOM      3  O   UNL d   1      21.353 -17.401  -1.271  0.00  0.00    -0.267 OA
ATOM      4  H   UNL d   1      23.045 -19.374   0.629  0.00  0.00     0.169 HD
ENDROOT
BRANCH   2   5
ATOM      5  C   UNL d   1      20.510 -19.096   0.002  0.00  0.00     0.034 A 
ATOM      6  C   UNL d   1      19.534 -19.574  -0.875  0.00  0.00     0.020 A 
ATOM      7  C   UNL d   1      18.545 -20.450  -0.401  0.00  0.00     0.039 A 
ATOM      8  C   UNL d   1      18.535 -20.839   0.942  0.00  0.00     0.087 A 
ATOM      9  C   UNL d   1      19.518 -20.369   1.816  0.00  0.00     0.068 A 
ATOM     10 CL   UNL d   1      19.530 -20.823   3.482  0.00  0.00    -0.081 Cl
ATOM     11  C   UNL d   1      20.510 -19.513   1.345  0.00  0.00     0.043 A 
BRANCH   8  12
ATOM     12  O   UNL d   1      17.571 -21.688   1.411  0.00  0.00    -0.359 OA
ATOM     13  H   UNL d   1      17.420 -22.411   0.782  0.00  0.00     0.217 HD
ENDBRANCH   8  12
ENDBRANCH   2   5
BRANCH   1  14
ATOM     14  C   UNL d   1      24.124 -17.902  -0.388  0.00  0.00     0.035 A 
ATOM     15  C   UNL d   1      24.102 -16.871  -1.334  0.00  0.00     0.039 A 
ATOM     16  C   UNL d   1      25.258 -16.212  -1.763  0.00  0.00    -0.021 A 
ATOM     17  C   UNL d   1      25.151 -15.119  -2.781  0.00  0.00     0.051 C 
ATOM     18  C   UNL d   1      26.477 -16.591  -1.223  0.00  0.00     0.122 A 
ATOM     19  C   UNL d   1      26.543 -17.603  -0.268  0.00  0.00     0.045 A 
ATOM     20  F   UNL d   1      27.601 -15.976  -1.615  0.00  0.00    -0.206 F 
ATOM     21  C   UNL d   1      25.369 -18.259   0.154  0.00  0.00     0.032 A 
ENDBRANCH   1  14
TORSDOF 3
ENDMDL
MODEL 2
REMARK VINA RESULT:    -7.902      4.110      7.647
REMARK INTER + INTRA:          -9.068
REMARK INTER:                  -8.797
REMARK INTRA:                  -0.271
REMARK CONF_INDEPENDENT:        0.895
REMARK UNBOUND:                -0.271
REMARK  3 active torsions:
REMARK  status: ('A' for Active; 'I' for Inactive)
REMARK    1  A    between atoms: C_4  and  N_5 
REMARK       I    between atoms: N_5  and  C_6 
REMARK    2  A    between atoms: C_6  and  C_8 
REMARK    3  A    between atoms: C_11  and  O_12 
ROOT
ATOM      1  N   UNL d   1      22.695 -18.507   0.386  0.00  0.00    -0.323 N 
ATOM      2  C   UNL d   1      23.552 -18.124  -0.645  0.00  0.00     0.256 C 
ATOM      3  O   UNL d   1      23.331 -18.195  -1.854  0.00  0.00    -0.267 OA
ATOM      4  H   UNL d   1      22.981 -18.336   1.343  0.00  0.00     0.169 HD
ENDROOT
BRANCH   2   5
ATOM      5  C   UNL d   1      24.870 -17.545  -0.301  0.00  0.00     0.034 A 
ATOM      6  C   UNL d   1      25.790 -18.222   0.504  0.00  0.00     0.020 A 
ATOM      7  C   UNL d   1      27.074 -17.687   0.690  0.00  0.00     0.039 A 
ATOM      8  C   UNL d   1      27.430 -16.483   0.075  0.00  0.00     0.087 A 
ATOM      9  C   UNL d   1      26.514 -15.811  -0.738  0.00  0.00     0.068 A 
ATOM     10 CL   UNL d   1      26.918 -14.319  -1.505  0.00  0.00    -0.081 Cl
ATOM     11  C   UNL d   1      25.244 -16.348  -0.937  0.00  0.00     0.043 A 
BRANCH   8  12
ATOM     12  O   UNL d   1      28.678 -15.954   0.257  0.00  0.00    -0.359 OA
ATOM     13  H   UNL d   1      29.140 -16.412   0.977  0.00  0.00     0.217 HD
ENDBRANCH   8  12
ENDBRANCH   2   5
BRANCH   1  14
ATOM     14  C   UNL d   1      21.382 -19.037   0.195  0.00  0.00     0.035 A 
ATOM     15  C   UNL d   1      20.601 -19.470   1.273  0.00  0.00     0.039 A 
ATOM     16  C   UNL d   1      19.325 -20.019   1.111  0.00  0.00    -0.021 A 
ATOM     17  C   UNL d   1      18.552 -20.461   2.315  0.00  0.00     0.051 C 
ATOM     18  C   UNL d   1      18.809 -20.131  -0.170  0.00  0.00     0.122 A 
ATOM     19  C   UNL d   1      19.548 -19.700  -1.270  0.00  0.00     0.045 A 
ATOM     20  F   UNL d   1      17.588 -20.653  -0.356  0.00  0.00    -0.206 F 
ATOM     21  C   UNL d   1      20.832 -19.150  -1.092  0.00  0.00     0.032 A 
ENDBRANCH   1  14
TORSDOF 3
ENDMDL
MODEL 3
REMARK VINA RESULT:    -7.243      4.005      7.586
REMARK INTER + INTRA:          -8.483
REMARK INTER:                  -8.138
REMARK INTRA:                  -0.345
REMARK CONF_INDEPENDENT:        0.895
REMARK UNBOUND:                -0.345
REMARK  3 active torsions:
REMARK  status: ('A' for Active; 'I' for Inactive)
REMARK    1  A    between atoms: C_4  and  N_5 
REMARK       I    between atoms: N_5  and  C_6 
REMARK    2  A    between atoms: C_6  and  C_8 
REMARK    3  A    between atoms: C_11  and  O_12 
ROOT
ATOM      1  N   UNL d   1      22.078 -18.216  -0.740  0.00  0.00    -0.323 N 
ATOM      2  C   UNL d   1      23.315 -18.096  -0.109  0.00  0.00     0.256 C 
ATOM      3  O   UNL d   1      23.641 -18.576   0.978  0.00  0.00    -0.267 OA
ATOM      4  H   UNL d   1      21.965 -17.819  -1.665  0.00  0.00     0.169 HD
ENDROOT
BRANCH   2   5
ATOM      5  C   UNL d   1      24.393 -17.339  -0.786  0.00  0.00     0.034 A 
ATOM      6  C   UNL d   1      24.123 -16.266  -1.638  0.00  0.00     0.020 A 
ATOM      7  C   UNL d   1      25.183 -15.502  -2.148  0.00  0.00     0.039 A 
ATOM      8  C   UNL d   1      26.503 -15.815  -1.807  0.00  0.00     0.087 A 
ATOM      9  C   UNL d   1      26.773 -16.882  -0.947  0.00  0.00     0.068 A 
ATOM     10 CL   UNL d   1      28.390 -17.299  -0.513  0.00  0.00    -0.081 Cl
ATOM     11  C   UNL d   1      25.721 -17.632  -0.426  0.00  0.00     0.043 A 
BRANCH   8  12
ATOM     12  O   UNL d   1      27.541 -15.076  -2.305  0.00  0.00    -0.359 OA
ATOM     13  H   UNL d   1      28.171 -14.857  -1.600  0.00  0.00     0.217 HD
ENDBRANCH   8  12
ENDBRANCH   2   5
BRANCH   1  14
ATOM     14  C   UNL d   1      20.970 -18.951  -0.219  0.00  0.00     0.035 A 
ATOM     15  C   UNL d   1      20.908 -19.333   1.126  0.00  0.00     0.039 A 
ATOM     16  C   UNL d   1      19.849 -20.078   1.655  0.00  0.00    -0.021 A 
ATOM     17  C   UNL d   1      19.858 -20.449   3.106  0.00  0.00     0.051 C 
ATOM     18  C   UNL d   1      18.812 -20.446   0.812  0.00  0.00     0.122 A 
ATOM     19  C   UNL d   1      18.826 -20.075  -0.531  0.00  0.00     0.045 A 
ATOM     20  F   UNL d   1      17.783 -21.159   1.291  0.00  0.00    -0.206 F 
ATOM     21  C   UNL d   1      19.901 -19.326  -1.049  0.00  0.00     0.032 A 
ENDBRANCH   1  14
TORSDOF 3
ENDMDL
MODEL 4
REMARK VINA RESULT:    -7.097      1.292      2.099
REMARK INTER + INTRA:          -8.355
REMARK INTER:                  -7.992
REMARK INTRA:                  -0.363
REMARK CONF_INDEPENDENT:        0.895
REMARK UNBOUND:                -0.363
REMARK  3 active torsions:
REMARK  status: ('A' for Active; 'I' for Inactive)
REMARK    1  A    between atoms: C_4  and  N_5 
REMARK       I    between atoms: N_5  and  C_6 
REMARK    2  A    between atoms: C_6  and  C_8 
REMARK    3  A    between atoms: C_11  and  O_12 
ROOT
ATOM      1  N   UNL d   1      23.358 -17.575  -1.244  0.00  0.00    -0.323 N 
ATOM      2  C   UNL d   1      22.885 -18.211  -0.097  0.00  0.00     0.256 C 
ATOM      3  O   UNL d   1      23.476 -18.336   0.976  0.00  0.00    -0.267 OA
ATOM      4  H   UNL d   1      22.740 -17.491  -2.042  0.00  0.00     0.169 HD
ENDROOT
BRANCH   2   5
ATOM      5  C   UNL d   1      21.525 -18.796  -0.114  0.00  0.00     0.034 A 
ATOM      6  C   UNL d   1      20.830 -19.023  -1.303  0.00  0.00     0.020 A 
ATOM      7  C   UNL d   1      19.601 -19.700  -1.270  0.00  0.00     0.039 A 
ATOM      8  C   UNL d   1      19.075 -20.142  -0.052  0.00  0.00     0.087 A 
ATOM      9  C   UNL d   1      19.775 -19.924   1.137  0.00  0.00     0.068 A 
ATOM     10 CL   UNL d   1      19.151 -20.450   2.658  0.00  0.00    -0.081 Cl
ATOM     11  C   UNL d   1      21.003 -19.267   1.105  0.00  0.00     0.043 A 
BRANCH   8  12
ATOM     12  O   UNL d   1      17.875 -20.799  -0.012  0.00  0.00    -0.359 OA
ATOM     13  H   UNL d   1      17.430 -20.744  -0.872  0.00  0.00     0.217 HD
ENDBRANCH   8  12
ENDBRANCH   2   5
BRANCH   1  14
ATOM     14  C   UNL d   1      24.630 -16.933  -1.350  0.00  0.00     0.035 A 
ATOM     15  C   UNL d   1      25.776 -17.470  -0.751  0.00  0.00     0.039 A 
ATOM     16  C   UNL d   1      27.027 -16.848  -0.815  0.00  0.00    -0.021 A 
ATOM     17  C   UNL d   1      28.205 -17.484  -0.145  0.00  0.00     0.051 C 
ATOM     18  C   UNL d   1      27.138 -15.653  -1.509  0.00  0.00     0.122 A 
ATOM     19  C   UNL d   1      26.026 -15.091  -2.132  0.00  0.00     0.045 A 
ATOM     20  F   UNL d   1      28.324 -15.034  -1.588  0.00  0.00    -0.206 F 
ATOM     21  C   UNL d   1      24.772 -15.729  -2.058  0.00  0.00     0.032 A 
ENDBRANCH   1  14
TORSDOF 3
ENDMDL
MODEL 5
REMARK VINA RESULT:    -6.554     10.990     13.032
REMARK INTER + INTRA:          -7.837
REMARK INTER:                  -7.449
REMARK INTRA:                  -0.388
REMARK CONF_INDEPENDENT:        0.895
REMARK UNBOUND:                -0.388
REMARK  3 active torsions:
REMARK  status: ('A' for Active; 'I' for Inactive)
REMARK    1  A    between atoms: C_4  and  N_5 
REMARK       I    between atoms: N_5  and  C_6 
REMARK    2  A    between atoms: C_6  and  C_8 
REMARK    3  A    between atoms: C_11  and  O_12 
ROOT
ATOM      1  N   UNL d   1      33.172 -21.964   5.798  0.00  0.00    -0.323 N 
ATOM      2  C   UNL d   1      31.818 -21.632   5.831  0.00  0.00     0.256 C 
ATOM      3  O   UNL d   1      31.186 -21.203   6.796  0.00  0.00    -0.267 OA
ATOM      4  H   UNL d   1      33.580 -22.250   4.916  0.00  0.00     0.169 HD
ENDROOT
BRANCH   2   5
ATOM      5  C   UNL d   1      31.017 -21.773   4.594  0.00  0.00     0.034 A 
ATOM      6  C   UNL d   1      29.633 -21.954   4.623  0.00  0.00     0.020 A 
ATOM      7  C   UNL d   1      28.907 -21.950   3.422  0.00  0.00     0.039 A 
ATOM      8  C   UNL d   1      29.567 -21.767   2.203  0.00  0.00     0.087 A 
ATOM      9  C   UNL d   1      30.950 -21.575   2.174  0.00  0.00     0.068 A 
ATOM     10 CL   UNL d   1      31.796 -21.354   0.686  0.00  0.00    -0.081 Cl
ATOM     11  C   UNL d   1      31.671 -21.562   3.366  0.00  0.00     0.043 A 
BRANCH   8  12
ATOM     12  O   UNL d   1      28.865 -21.766   1.028  0.00  0.00    -0.359 OA
ATOM     13  H   UNL d   1      28.911 -20.894   0.606  0.00  0.00     0.217 HD
ENDBRANCH   8  12
ENDBRANCH   2   5
BRANCH   1  14
ATOM     14  C   UNL d   1      34.066 -21.836   6.905  0.00  0.00     0.035 A 
ATOM     15  C   UNL d   1      34.528 -20.586   7.335  0.00  0.00     0.039 A 
ATOM     16  C   UNL d   1      35.425 -20.434   8.397  0.00  0.00    -0.021 A 
ATOM     17  C   UNL d   1      35.874 -19.063   8.795  0.00  0.00     0.051 C 
ATOM     18  C   UNL d   1      35.869 -21.570   9.057  0.00  0.00     0.122 A 
ATOM     19  C   UNL d   1      35.423 -22.832   8.671  0.00  0.00     0.045 A 
ATOM     20  F   UNL d   1      36.728 -21.455  10.079  0.00  0.00    -0.206 F 
ATOM     21  C   UNL d   1      34.520 -22.969   7.598  0.00  0.00     0.032 A 
ENDBRANCH   1  14
TORSDOF 3
ENDMDL
MODEL 6
REMARK VINA RESULT:    -6.337      5.688      9.367
REMARK INTER + INTRA:          -7.558
REMARK INTER:                  -7.232
REMARK INTRA:                  -0.326
REMARK CONF_INDEPENDENT:        0.895
REMARK UNBOUND:                -0.326
REMARK  3 active torsions:
REMARK  status: ('A' for Active; 'I' for Inactive)
REMARK    1  A    between atoms: C_4  and  N_5 
REMARK       I    between atoms: N_5  and  C_6 
REMARK    2  A    between atoms: C_6  and  C_8 
REMARK    3  A    between atoms: C_11  and  O_12 
ROOT
ATOM      1  N   UNL d   1      26.959 -15.945  -2.987  0.00  0.00    -0.323 N 
ATOM      2  C   UNL d   1      26.349 -15.115  -3.927  0.00  0.00     0.256 C 
ATOM      3  O   UNL d   1      25.155 -14.821  -3.989  0.00  0.00    -0.267 OA
ATOM      4  H   UNL d   1      27.966 -16.052  -3.016  0.00  0.00     0.169 HD
ENDROOT
BRANCH   2   5
ATOM      5  C   UNL d   1      27.186 -14.478  -4.969  0.00  0.00     0.034 A 
ATOM      6  C   UNL d   1      28.198 -15.174  -5.634  0.00  0.00     0.020 A 
ATOM      7  C   UNL d   1      28.872 -14.564  -6.703  0.00  0.00     0.039 A 
ATOM      8  C   UNL d   1      28.534 -13.265  -7.098  0.00  0.00     0.087 A 
ATOM      9  C   UNL d   1      27.515 -12.574  -6.439  0.00  0.00     0.068 A 
ATOM     10 CL   UNL d   1      27.078 -10.967  -6.896  0.00  0.00    -0.081 Cl
ATOM     11  C   UNL d   1      26.833 -13.183  -5.388  0.00  0.00     0.043 A 
BRANCH   8  12
ATOM     12  O   UNL d   1      29.190 -12.663  -8.136  0.00  0.00    -0.359 OA
ATOM     13  H   UNL d   1      29.498 -13.327  -8.774  0.00  0.00     0.217 HD
ENDBRANCH   8  12
ENDBRANCH   2   5
BRANCH   1  14
ATOM     14  C   UNL d   1      26.278 -16.585  -1.907  0.00  0.00     0.035 A 
ATOM     15  C   UNL d   1      24.885 -16.719  -1.893  0.00  0.00     0.039 A 
ATOM     16  C   UNL d   1      24.191 -17.316  -0.836  0.00  0.00    -0.021 A 
ATOM     17  C   UNL d   1      22.698 -17.419  -0.895  0.00  0.00     0.051 C 
ATOM     18  C   UNL d   1      24.915 -17.803   0.241  0.00  0.00     0.122 A 
ATOM     19  C   UNL d   1      26.305 -17.703   0.262  0.00  0.00     0.045 A 
ATOM     20  F   UNL d   1      24.278 -18.381   1.268  0.00  0.00    -0.206 F 
ATOM     21  C   UNL d   1      26.989 -17.098  -0.810  0.00  0.00     0.032 A 
ENDBRANCH   1  14
TORSDOF 3
ENDMDL
MODEL 7
REMARK VINA RESULT:    -6.298      6.103      9.623
REMARK INTER + INTRA:          -7.467
REMARK INTER:                  -7.193
REMARK INTRA:                  -0.274
REMARK CONF_INDEPENDENT:        0.895
REMARK UNBOUND:                -0.274
REMARK  3 active torsions:
REMARK  status: ('A' for Active; 'I' for Inactive)
REMARK    1  A    between atoms: C_4  and  N_5 
REMARK       I    between atoms: N_5  and  C_6 
REMARK    2  A    between atoms: C_6  and  C_8 
REMARK    3  A    between atoms: C_11  and  O_12 
ROOT
ATOM      1  N   UNL d   1      26.884 -15.755  -3.102  0.00  0.00    -0.323 N 
ATOM      2  C   UNL d   1      26.356 -15.046  -4.179  0.00  0.00     0.256 C 
ATOM      3  O   UNL d   1      25.165 -14.839  -4.416  0.00  0.00    -0.267 OA
ATOM      4  H   UNL d   1      27.891 -15.796  -2.995  0.00  0.00     0.169 HD
ENDROOT
BRANCH   2   5
ATOM      5  C   UNL d   1      27.284 -14.439  -5.160  0.00  0.00     0.034 A 
ATOM      6  C   UNL d   1      28.324 -15.166  -5.745  0.00  0.00     0.020 A 
ATOM      7  C   UNL d   1      29.091 -14.581  -6.765  0.00  0.00     0.039 A 
ATOM      8  C   UNL d   1      28.817 -13.278  -7.191  0.00  0.00     0.087 A 
ATOM      9  C   UNL d   1      27.771 -12.555  -6.613  0.00  0.00     0.068 A 
ATOM     10 CL   UNL d   1      27.412 -10.941  -7.110  0.00  0.00    -0.081 Cl
ATOM     11  C   UNL d   1      26.997 -13.139  -5.612  0.00  0.00     0.043 A 
BRANCH   8  12
ATOM     12  O   UNL d   1      29.564 -12.701  -8.181  0.00  0.00    -0.359 OA
ATOM     13  H   UNL d   1      29.701 -13.325  -8.911  0.00  0.00     0.217 HD
ENDBRANCH   8  12
ENDBRANCH   2   5
BRANCH   1  14
ATOM     14  C   UNL d   1      26.105 -16.352  -2.064  0.00  0.00     0.035 A 
ATOM     15  C   UNL d   1      26.692 -17.133  -1.062  0.00  0.00     0.039 A 
ATOM     16  C   UNL d   1      25.950 -17.752  -0.051  0.00  0.00    -0.021 A 
ATOM     17  C   UNL d   1      26.652 -18.574   0.985  0.00  0.00     0.051 C 
ATOM     18  C   UNL d   1      24.575 -17.577  -0.036  0.00  0.00     0.122 A 
ATOM     19  C   UNL d   1      23.951 -16.795  -1.007  0.00  0.00     0.045 A 
ATOM     20  F   UNL d   1      23.838 -18.157   0.921  0.00  0.00    -0.206 F 
ATOM     21  C   UNL d   1      24.712 -16.179  -2.019  0.00  0.00     0.032 A 
ENDBRANCH   1  14
TORSDOF 3
ENDMDL
MODEL 8
REMARK VINA RESULT:    -6.265      5.135      7.342
REMARK INTER + INTRA:          -7.503
REMARK INTER:                  -7.160
REMARK INTRA:                  -0.344
REMARK CONF_INDEPENDENT:        0.895
REMARK UNBOUND:                -0.344
REMARK  3 active torsions:
REMARK  status: ('A' for Active; 'I' for Inactive)
REMARK    1  A    between atoms: C_4  and  N_5 
REMARK       I    between atoms: N_5  and  C_6 
REMARK    2  A    between atoms: C_6  and  C_8 
REMARK    3  A    between atoms: C_11  and  O_12 
ROOT
ATOM      1  N   UNL d   1      26.087 -13.296  -2.813  0.00  0.00    -0.323 N 
ATOM      2  C   UNL d   1      25.485 -14.527  -3.072  0.00  0.00     0.256 C 
ATOM      3  O   UNL d   1      24.780 -14.816  -4.039  0.00  0.00    -0.267 OA
ATOM      4  H   UNL d   1      26.695 -13.214  -2.006  0.00  0.00     0.169 HD
ENDROOT
BRANCH   2   5
ATOM      5  C   UNL d   1      25.703 -15.643  -2.124  0.00  0.00     0.034 A 
ATOM      6  C   UNL d   1      26.953 -15.901  -1.557  0.00  0.00     0.020 A 
ATOM      7  C   UNL d   1      27.075 -16.887  -0.566  0.00  0.00     0.039 A 
ATOM      8  C   UNL d   1      25.951 -17.609  -0.151  0.00  0.00     0.087 A 
ATOM      9  C   UNL d   1      24.699 -17.344  -0.711  0.00  0.00     0.068 A 
ATOM     10 CL   UNL d   1      23.294 -18.222  -0.227  0.00  0.00    -0.081 Cl
ATOM     11  C   UNL d   1      24.573 -16.354  -1.683  0.00  0.00     0.043 A 
BRANCH   8  12
ATOM     12  O   UNL d   1      26.064 -18.575   0.812  0.00  0.00    -0.359 OA
ATOM     13  H   UNL d   1      26.988 -18.670   1.091  0.00  0.00     0.217 HD
ENDBRANCH   8  12
ENDBRANCH   2   5
BRANCH   1  14
ATOM     14  C   UNL d   1      25.994 -12.153  -3.664  0.00  0.00     0.035 A 
ATOM     15  C   UNL d   1      25.865 -10.859  -3.145  0.00  0.00     0.039 A 
ATOM     16  C   UNL d   1      25.744  -9.726  -3.955  0.00  0.00    -0.021 A 
ATOM     17  C   UNL d   1      25.606  -8.376  -3.323  0.00  0.00     0.051 C 
ATOM     18  C   UNL d   1      25.761  -9.891  -5.331  0.00  0.00     0.122 A 
ATOM     19  C   UNL d   1      25.902 -11.159  -5.890  0.00  0.00     0.045 A 
ATOM     20  F   UNL d   1      25.648  -8.823  -6.133  0.00  0.00    -0.206 F 
ATOM     21  C   UNL d   1      26.022 -12.291  -5.061  0.00  0.00     0.032 A 
ENDBRANCH   1  14
TORSDOF 3
ENDMDL
MODEL 9
REMARK VINA RESULT:    -6.160      5.183      7.506
REMARK INTER + INTRA:          -7.428
REMARK INTER:                  -7.055
REMARK INTRA:                  -0.372
REMARK CONF_INDEPENDENT:        0.895
REMARK UNBOUND:                -0.372
REMARK  3 active torsions:
REMARK  status: ('A' for Active; 'I' for Inactive)
REMARK    1  A    between atoms: C_4  and  N_5 
REMARK       I    between atoms: N_5  and  C_6 
REMARK    2  A    between atoms: C_6  and  C_8 
REMARK    3  A    between atoms: C_11  and  O_12 
ROOT
ATOM      1  N   UNL d   1      25.967 -13.068  -3.133  0.00  0.00    -0.323 N 
ATOM      2  C   UNL d   1      25.409 -14.309  -3.437  0.00  0.00     0.256 C 
ATOM      3  O   UNL d   1      24.787 -14.611  -4.456  0.00  0.00    -0.267 OA
ATOM      4  H   UNL d   1      26.508 -12.975  -2.282  0.00  0.00     0.169 HD
ENDROOT
BRANCH   2   5
ATOM      5  C   UNL d   1      25.570 -15.421  -2.473  0.00  0.00     0.034 A 
ATOM      6  C   UNL d   1      26.807 -15.738  -1.907  0.00  0.00     0.020 A 
ATOM      7  C   UNL d   1      26.880 -16.714  -0.901  0.00  0.00     0.039 A 
ATOM      8  C   UNL d   1      25.721 -17.366  -0.469  0.00  0.00     0.087 A 
ATOM      9  C   UNL d   1      24.482 -17.041  -1.027  0.00  0.00     0.068 A 
ATOM     10 CL   UNL d   1      23.034 -17.833  -0.523  0.00  0.00    -0.081 Cl
ATOM     11  C   UNL d   1      24.405 -16.061  -2.015  0.00  0.00     0.043 A 
BRANCH   8  12
ATOM     12  O   UNL d   1      25.786 -18.322   0.508  0.00  0.00    -0.359 OA
ATOM     13  H   UNL d   1      26.702 -18.442   0.805  0.00  0.00     0.217 HD
ENDBRANCH   8  12
ENDBRANCH   2   5
BRANCH   1  14
ATOM     14  C   UNL d   1      25.922 -11.927  -3.991  0.00  0.00     0.035 A 
ATOM     15  C   UNL d   1      26.271 -12.010  -5.344  0.00  0.00     0.039 A 
ATOM     16  C   UNL d   1      26.263 -10.904  -6.199  0.00  0.00    -0.021 A 
ATOM     17  C   UNL d   1      26.652 -11.075  -7.635  0.00  0.00     0.051 C 
ATOM     18  C   UNL d   1      25.885  -9.673  -5.685  0.00  0.00     0.122 A 
ATOM     19  C   UNL d   1      25.517  -9.547  -4.348  0.00  0.00     0.045 A 
ATOM     20  F   UNL d   1      25.867  -8.594  -6.481  0.00  0.00    -0.206 F 
ATOM     21  C   UNL d   1      25.531 -10.671  -3.499  0.00  0.00     0.032 A 
ENDBRANCH   1  14
TORSDOF 3
ENDMDL
