MODEL 1
REMARK VINA RESULT:    -6.944      0.000      0.000
REMARK INTER + INTRA:          -8.572
REMARK INTER:                  -8.137
REMARK INTRA:                  -0.436
REMARK CONF_INDEPENDENT:        1.193
REMARK UNBOUND:                -0.436
REMARK  4 active torsions:
REMARK  status: ('A' for Active; 'I' for Inactive)
REMARK       I    between atoms: C_2  and  N_3 
REMARK    1  A    between atoms: C_2  and  C_12 
REMARK    2  A    between atoms: N_3  and  C_4 
REMARK    3  A    between atoms: C_4  and  C_5 
REMARK    4  A    between atoms: C_9  and  O_10 
ROOT
ATOM      1  O   UNL d   1      25.168 -15.203  -4.189  0.00  0.00    -0.268 OA
ATOM      2  C   UNL d   1      25.883 -14.782  -3.281  0.00  0.00     0.253 C 
ATOM      3  N   UNL d   1      26.271 -13.465  -3.180  0.00  0.00    -0.353 N 
ATOM      4  H   UNL d   1      26.909 -13.171  -2.450  0.00  0.00     0.163 HD
ENDROOT
BRANCH   2   5
ATOM      5  C   UNL d   1      26.368 -15.695  -2.195  0.00  0.00     0.049 A 
ATOM      6  C   UNL d   1      27.700 -15.816  -2.045  0.00  0.00     0.092 A 
ATOM      7  C   UNL d   1      28.295 -16.713  -1.022  0.00  0.00     0.246 A 
ATOM      8  O   UNL d   1      29.508 -16.788  -0.872  0.00  0.00    -0.268 OA
ATOM      9  N   UNL d   1      27.426 -17.441  -0.257  0.00  0.00    -0.323 N 
ATOM     10  C   UNL d   1      26.036 -17.385  -0.406  0.00  0.00     0.046 A 
ATOM     11  H   UNL d   1      27.848 -18.057   0.427  0.00  0.00     0.169 HD
ATOM     12  C   UNL d   1      25.226 -18.201   0.388  0.00  0.00     0.030 A 
ATOM     13  C   UNL d   1      25.476 -16.527  -1.366  0.00  0.00     0.006 A 
ATOM     14  C   UNL d   1      23.841 -18.160   0.229  0.00  0.00     0.002 A 
ATOM     15  C   UNL d   1      23.273 -17.327  -0.728  0.00  0.00     0.001 A 
ATOM     16  C   UNL d   1      24.087 -16.534  -1.532  0.00  0.00     0.015 A 
ENDBRANCH   2   5
BRANCH   3  17
ATOM     17  C   UNL d   1      25.768 -12.461  -4.096  0.00  0.00     0.161 C 
BRANCH  17  18
ATOM     18  C   UNL d   1      26.599 -12.342  -5.350  0.00  0.00    -0.038 A 
ATOM     19  C   UNL d   1      26.568 -11.185  -6.145  0.00  0.00     0.009 A 
ATOM     20  C   UNL d   1      27.320 -11.110  -7.325  0.00  0.00     0.003 A 
ATOM     21  C   UNL d   1      28.117 -12.186  -7.723  0.00  0.00     0.036 A 
ATOM     22  C   UNL d   1      28.155 -13.329  -6.932  0.00  0.00     0.066 A 
ATOM     23  C   UNL d   1      27.404 -13.414  -5.762  0.00  0.00     0.045 A 
BRANCH  22  24
ATOM     24  O   UNL d   1      28.918 -14.411  -7.262  0.00  0.00    -0.361 OA
ATOM     25  H   UNL d   1      29.020 -14.450  -8.227  0.00  0.00     0.217 HD
ENDBRANCH  22  24
ENDBRANCH  17  18
ENDBRANCH   3  17
TORSDOF 4
ENDMDL
MODEL 2
REMARK VINA RESULT:    -6.639      2.573      6.716
REMARK INTER + INTRA:          -8.100
REMARK INTER:                  -7.832
REMARK INTRA:                  -0.268
REMARK CONF_INDEPENDENT:        1.193
REMARK UNBOUND:                -0.268
REMARK  4 active torsions:
REMARK  status: ('A' for Active; 'I' for Inactive)
REMARK       I    between atoms: C_2  and  N_3 
REMARK    1  A    between atoms: C_2  and  C_12 
REMARK    2  A    between atoms: N_3  and  C_4 
REMARK    3  A    between atoms: C_4  and  C_5 
REMARK    4  A    between atoms: C_9  and  O_10 
ROOT
ATOM      1  O   UNL d   1      24.819 -15.213  -3.125  0.00  0.00    -0.268 OA
ATOM      2  C   UNL d   1      25.874 -15.451  -2.538  0.00  0.00     0.253 C 
ATOM      3  N   UNL d   1      25.955 -15.600  -1.172  0.00  0.00    -0.353 N 
ATOM      4  H   UNL d   1      26.853 -15.736  -0.722  0.00  0.00     0.163 HD
ENDROOT
BRANCH   2   5
ATOM      5  C   UNL d   1      27.157 -15.617  -3.295  0.00  0.00     0.049 A 
ATOM      6  C   UNL d   1      27.172 -15.206  -4.577  0.00  0.00     0.092 A 
ATOM      7  C   UNL d   1      28.377 -15.345  -5.432  0.00  0.00     0.246 A 
ATOM      8  O   UNL d   1      28.388 -14.936  -6.586  0.00  0.00    -0.268 OA
ATOM      9  N   UNL d   1      29.469 -15.945  -4.868  0.00  0.00    -0.323 N 
ATOM     10  C   UNL d   1      29.488 -16.431  -3.556  0.00  0.00     0.046 A 
ATOM     11  H   UNL d   1      30.279 -16.045  -5.468  0.00  0.00     0.169 HD
ATOM     12  C   UNL d   1      30.634 -17.073  -3.078  0.00  0.00     0.030 A 
ATOM     13  C   UNL d   1      28.351 -16.286  -2.746  0.00  0.00     0.006 A 
ATOM     14  C   UNL d   1      30.650 -17.574  -1.776  0.00  0.00     0.002 A 
ATOM     15  C   UNL d   1      29.526 -17.452  -0.968  0.00  0.00     0.001 A 
ATOM     16  C   UNL d   1      28.379 -16.832  -1.458  0.00  0.00     0.015 A 
ENDBRANCH   2   5
BRANCH   3  17
ATOM     17  C   UNL d   1      24.767 -15.585  -0.343  0.00  0.00     0.161 C 
BRANCH  17  18
ATOM     18  C   UNL d   1      23.965 -16.860  -0.443  0.00  0.00    -0.038 A 
ATOM     19  C   UNL d   1      24.580 -18.121  -0.389  0.00  0.00     0.009 A 
ATOM     20  C   UNL d   1      23.819 -19.291  -0.521  0.00  0.00     0.003 A 
ATOM     21  C   UNL d   1      22.436 -19.217  -0.701  0.00  0.00     0.036 A 
ATOM     22  C   UNL d   1      21.825 -17.968  -0.745  0.00  0.00     0.066 A 
ATOM     23  C   UNL d   1      22.576 -16.802  -0.624  0.00  0.00     0.045 A 
BRANCH  22  24
ATOM     24  O   UNL d   1      20.479 -17.829  -0.912  0.00  0.00    -0.361 OA
ATOM     25  H   UNL d   1      20.308 -17.214  -1.644  0.00  0.00     0.217 HD
ENDBRANCH  22  24
ENDBRANCH  17  18
ENDBRANCH   3  17
TORSDOF 4
ENDMDL
MODEL 3
REMARK VINA RESULT:    -6.633      1.871      2.650
REMARK INTER + INTRA:          -8.244
REMARK INTER:                  -7.826
REMARK INTRA:                  -0.418
REMARK CONF_INDEPENDENT:        1.193
REMARK UNBOUND:                -0.418
REMARK  4 active torsions:
REMARK  status: ('A' for Active; 'I' for Inactive)
REMARK       I    between atoms: C_2  and  N_3 
REMARK    1  A    between atoms: C_2  and  C_12 
REMARK    2  A    between atoms: N_3  and  C_4 
REMARK    3  A    between atoms: C_4  and  C_5 
REMARK    4  A    between atoms: C_9  and  O_10 
ROOT
ATOM      1  O   UNL d   1      27.136 -15.575  -4.960  0.00  0.00    -0.268 OA
ATOM      2  C   UNL d   1      26.849 -15.204  -3.823  0.00  0.00     0.253 C 
ATOM      3  N   UNL d   1      26.037 -14.121  -3.568  0.00  0.00    -0.353 N 
ATOM      4  H   UNL d   1      25.874 -13.813  -2.618  0.00  0.00     0.163 HD
ENDROOT
BRANCH   2   5
ATOM      5  C   UNL d   1      27.361 -15.939  -2.620  0.00  0.00     0.049 A 
ATOM      6  C   UNL d   1      28.696 -16.045  -2.489  0.00  0.00     0.092 A 
ATOM      7  C   UNL d   1      29.316 -16.774  -1.354  0.00  0.00     0.246 A 
ATOM      8  O   UNL d   1      30.533 -16.835  -1.227  0.00  0.00    -0.268 OA
ATOM      9  N   UNL d   1      28.467 -17.366  -0.461  0.00  0.00    -0.323 N 
ATOM     10  C   UNL d   1      27.073 -17.322  -0.579  0.00  0.00     0.046 A 
ATOM     11  H   UNL d   1      28.905 -17.870   0.300  0.00  0.00     0.169 HD
ATOM     12  C   UNL d   1      26.283 -17.996   0.356  0.00  0.00     0.030 A 
ATOM     13  C   UNL d   1      26.490 -16.622  -1.647  0.00  0.00     0.006 A 
ATOM     14  C   UNL d   1      24.894 -17.970   0.231  0.00  0.00     0.002 A 
ATOM     15  C   UNL d   1      24.302 -17.293  -0.830  0.00  0.00     0.001 A 
ATOM     16  C   UNL d   1      25.096 -16.644  -1.772  0.00  0.00     0.015 A 
ENDBRANCH   2   5
BRANCH   3  17
ATOM     17  C   UNL d   1      25.382 -13.405  -4.644  0.00  0.00     0.161 C 
BRANCH  17  18
ATOM     18  C   UNL d   1      25.724 -11.936  -4.666  0.00  0.00    -0.038 A 
ATOM     19  C   UNL d   1      26.311 -11.335  -5.790  0.00  0.00     0.009 A 
ATOM     20  C   UNL d   1      26.654  -9.976  -5.775  0.00  0.00     0.003 A 
ATOM     21  C   UNL d   1      26.408  -9.199  -4.641  0.00  0.00     0.036 A 
ATOM     22  C   UNL d   1      25.817  -9.791  -3.530  0.00  0.00     0.066 A 
ATOM     23  C   UNL d   1      25.481 -11.142  -3.535  0.00  0.00     0.045 A 
BRANCH  22  24
ATOM     24  O   UNL d   1      25.544  -9.086  -2.395  0.00  0.00    -0.361 OA
ATOM     25  H   UNL d   1      24.780  -8.507  -2.552  0.00  0.00     0.217 HD
ENDBRANCH  22  24
ENDBRANCH  17  18
ENDBRANCH   3  17
TORSDOF 4
ENDMDL
MODEL 4
REMARK VINA RESULT:    -6.602      5.470      7.557
REMARK INTER + INTRA:          -8.262
REMARK INTER:                  -7.795
REMARK INTRA:                  -0.467
REMARK CONF_INDEPENDENT:        1.193
REMARK UNBOUND:                -0.467
REMARK  4 active torsions:
REMARK  status: ('A' for Active; 'I' for Inactive)
REMARK       I    between atoms: C_2  and  N_3 
REMARK    1  A    between atoms: C_2  and  C_12 
REMARK    2  A    between atoms: N_3  and  C_4 
REMARK    3  A    between atoms: C_4  and  C_5 
REMARK    4  A    between atoms: C_9  and  O_10 
ROOT
ATOM      1  O   UNL d   1      28.115 -12.087  -0.101  0.00  0.00    -0.268 OA
ATOM      2  C   UNL d   1      27.403 -12.551   0.787  0.00  0.00     0.253 C 
ATOM      3  N   UNL d   1      26.596 -13.652   0.605  0.00  0.00    -0.353 N 
ATOM      4  H   UNL d   1      25.980 -13.967   1.345  0.00  0.00     0.163 HD
ENDROOT
BRANCH   2   5
ATOM      5  C   UNL d   1      27.385 -11.943   2.158  0.00  0.00     0.049 A 
ATOM      6  C   UNL d   1      27.068 -10.638   2.247  0.00  0.00     0.092 A 
ATOM      7  C   UNL d   1      27.046  -9.924   3.548  0.00  0.00     0.246 A 
ATOM      8  O   UNL d   1      26.722  -8.745   3.619  0.00  0.00    -0.268 OA
ATOM      9  N   UNL d   1      27.398 -10.644   4.655  0.00  0.00    -0.323 N 
ATOM     10  C   UNL d   1      27.780 -11.990   4.609  0.00  0.00     0.046 A 
ATOM     11  H   UNL d   1      27.391 -10.139   5.533  0.00  0.00     0.169 HD
ATOM     12  C   UNL d   1      28.169 -12.634   5.786  0.00  0.00     0.030 A 
ATOM     13  C   UNL d   1      27.788 -12.666   3.379  0.00  0.00     0.006 A 
ATOM     14  C   UNL d   1      28.568 -13.970   5.741  0.00  0.00     0.002 A 
ATOM     15  C   UNL d   1      28.596 -14.648   4.527  0.00  0.00     0.001 A 
ATOM     16  C   UNL d   1      28.229 -13.993   3.354  0.00  0.00     0.015 A 
ENDBRANCH   2   5
BRANCH   3  17
ATOM     17  C   UNL d   1      26.618 -14.401  -0.635  0.00  0.00     0.161 C 
BRANCH  17  18
ATOM     18  C   UNL d   1      26.048 -15.791  -0.492  0.00  0.00    -0.038 A 
ATOM     19  C   UNL d   1      24.776 -16.118  -0.988  0.00  0.00     0.009 A 
ATOM     20  C   UNL d   1      24.250 -17.405  -0.812  0.00  0.00     0.003 A 
ATOM     21  C   UNL d   1      24.991 -18.384  -0.145  0.00  0.00     0.036 A 
ATOM     22  C   UNL d   1      26.255 -18.064   0.339  0.00  0.00     0.066 A 
ATOM     23  C   UNL d   1      26.779 -16.785   0.175  0.00  0.00     0.045 A 
BRANCH  22  24
ATOM     24  O   UNL d   1      27.030 -18.976   0.992  0.00  0.00    -0.361 OA
ATOM     25  H   UNL d   1      27.956 -18.861   0.725  0.00  0.00     0.217 HD
ENDBRANCH  22  24
ENDBRANCH  17  18
ENDBRANCH   3  17
TORSDOF 4
ENDMDL
MODEL 5
REMARK VINA RESULT:    -6.531      1.927      7.028
REMARK INTER + INTRA:          -8.202
REMARK INTER:                  -7.724
REMARK INTRA:                  -0.478
REMARK CONF_INDEPENDENT:        1.193
REMARK UNBOUND:                -0.478
REMARK  4 active torsions:
REMARK  status: ('A' for Active; 'I' for Inactive)
REMARK       I    between atoms: C_2  and  N_3 
REMARK    1  A    between atoms: C_2  and  C_12 
REMARK    2  A    between atoms: N_3  and  C_4 
REMARK    3  A    between atoms: C_4  and  C_5 
REMARK    4  A    between atoms: C_9  and  O_10 
ROOT
ATOM      1  O   UNL d   1      23.982 -14.054  -4.266  0.00  0.00    -0.268 OA
ATOM      2  C   UNL d   1      25.167 -14.063  -3.937  0.00  0.00     0.253 C 
ATOM      3  N   UNL d   1      25.633 -14.732  -2.828  0.00  0.00    -0.353 N 
ATOM      4  H   UNL d   1      26.607 -14.665  -2.558  0.00  0.00     0.163 HD
ENDROOT
BRANCH   2   5
ATOM      5  C   UNL d   1      26.200 -13.346  -4.754  0.00  0.00     0.049 A 
ATOM      6  C   UNL d   1      25.910 -12.091  -5.145  0.00  0.00     0.092 A 
ATOM      7  C   UNL d   1      26.843 -11.295  -5.980  0.00  0.00     0.246 A 
ATOM      8  O   UNL d   1      26.583 -10.142  -6.301  0.00  0.00    -0.268 OA
ATOM      9  N   UNL d   1      28.003 -11.907  -6.367  0.00  0.00    -0.323 N 
ATOM     10  C   UNL d   1      28.329 -13.225  -6.025  0.00  0.00     0.046 A 
ATOM     11  H   UNL d   1      28.624 -11.356  -6.947  0.00  0.00     0.169 HD
ATOM     12  C   UNL d   1      29.516 -13.785  -6.504  0.00  0.00     0.030 A 
ATOM     13  C   UNL d   1      27.449 -13.971  -5.225  0.00  0.00     0.006 A 
ATOM     14  C   UNL d   1      29.835 -15.104  -6.180  0.00  0.00     0.002 A 
ATOM     15  C   UNL d   1      28.965 -15.860  -5.401  0.00  0.00     0.001 A 
ATOM     16  C   UNL d   1      27.773 -15.303  -4.947  0.00  0.00     0.015 A 
ENDBRANCH   2   5
BRANCH   3  17
ATOM     17  C   UNL d   1      24.755 -15.563  -2.028  0.00  0.00     0.161 C 
BRANCH  17  18
ATOM     18  C   UNL d   1      25.505 -16.503  -1.117  0.00  0.00    -0.038 A 
ATOM     19  C   UNL d   1      24.832 -17.387  -0.259  0.00  0.00     0.009 A 
ATOM     20  C   UNL d   1      25.549 -18.226   0.605  0.00  0.00     0.003 A 
ATOM     21  C   UNL d   1      26.945 -18.198   0.619  0.00  0.00     0.036 A 
ATOM     22  C   UNL d   1      27.613 -17.330  -0.237  0.00  0.00     0.066 A 
ATOM     23  C   UNL d   1      26.907 -16.487  -1.093  0.00  0.00     0.045 A 
BRANCH  22  24
ATOM     24  O   UNL d   1      28.974 -17.259  -0.277  0.00  0.00    -0.361 OA
ATOM     25  H   UNL d   1      29.332 -17.450   0.605  0.00  0.00     0.217 HD
ENDBRANCH  22  24
ENDBRANCH  17  18
ENDBRANCH   3  17
TORSDOF 4
ENDMDL
MODEL 6
REMARK VINA RESULT:    -6.511      1.830      3.014
REMARK INTER + INTRA:          -8.167
REMARK INTER:                  -7.704
REMARK INTRA:                  -0.463
REMARK CONF_INDEPENDENT:        1.193
REMARK UNBOUND:                -0.463
REMARK  4 active torsions:
REMARK  status: ('A' for Active; 'I' for Inactive)
REMARK       I    between atoms: C_2  and  N_3 
REMARK    1  A    between atoms: C_2  and  C_12 
REMARK    2  A    between atoms: N_3  and  C_4 
REMARK    3  A    between atoms: C_4  and  C_5 
REMARK    4  A    between atoms: C_9  and  O_10 
ROOT
ATOM      1  O   UNL d   1      24.049 -14.460  -3.364  0.00  0.00    -0.268 OA
ATOM      2  C   UNL d   1      24.766 -14.695  -2.393  0.00  0.00     0.253 C 
ATOM      3  N   UNL d   1      25.784 -13.861  -1.991  0.00  0.00    -0.353 N 
ATOM      4  H   UNL d   1      26.389 -14.121  -1.222  0.00  0.00     0.163 HD
ENDROOT
BRANCH   2   5
ATOM      5  C   UNL d   1      24.555 -15.924  -1.559  0.00  0.00     0.049 A 
ATOM      6  C   UNL d   1      23.283 -16.262  -1.276  0.00  0.00     0.092 A 
ATOM      7  C   UNL d   1      22.954 -17.441  -0.436  0.00  0.00     0.246 A 
ATOM      8  O   UNL d   1      21.792 -17.758  -0.214  0.00  0.00    -0.268 OA
ATOM      9  N   UNL d   1      24.006 -18.153   0.070  0.00  0.00    -0.323 N 
ATOM     10  C   UNL d   1      25.345 -17.814  -0.157  0.00  0.00     0.046 A 
ATOM     11  H   UNL d   1      23.766 -18.946   0.652  0.00  0.00     0.169 HD
ATOM     12  C   UNL d   1      26.356 -18.573   0.439  0.00  0.00     0.030 A 
ATOM     13  C   UNL d   1      25.652 -16.706  -0.962  0.00  0.00     0.006 A 
ATOM     14  C   UNL d   1      27.691 -18.227   0.229  0.00  0.00     0.002 A 
ATOM     15  C   UNL d   1      28.010 -17.123  -0.553  0.00  0.00     0.001 A 
ATOM     16  C   UNL d   1      26.998 -16.358  -1.125  0.00  0.00     0.015 A 
ENDBRANCH   2   5
BRANCH   3  17
ATOM     17  C   UNL d   1      26.008 -12.584  -2.639  0.00  0.00     0.161 C 
BRANCH  17  18
ATOM     18  C   UNL d   1      26.677 -12.718  -3.985  0.00  0.00    -0.038 A 
ATOM     19  C   UNL d   1      26.954 -11.597  -4.783  0.00  0.00     0.009 A 
ATOM     20  C   UNL d   1      27.542 -11.748  -6.046  0.00  0.00     0.003 A 
ATOM     21  C   UNL d   1      27.867 -13.018  -6.525  0.00  0.00     0.036 A 
ATOM     22  C   UNL d   1      27.602 -14.129  -5.732  0.00  0.00     0.066 A 
ATOM     23  C   UNL d   1      27.010 -13.988  -4.480  0.00  0.00     0.045 A 
BRANCH  22  24
ATOM     24  O   UNL d   1      27.901 -15.396  -6.139  0.00  0.00    -0.361 OA
ATOM     25  H   UNL d   1      28.189 -15.920  -5.374  0.00  0.00     0.217 HD
ENDBRANCH  22  24
ENDBRANCH  17  18
ENDBRANCH   3  17
TORSDOF 4
ENDMDL
MODEL 7
REMARK VINA RESULT:    -6.498      1.612      7.049
REMARK INTER + INTRA:          -8.178
REMARK INTER:                  -7.691
REMARK INTRA:                  -0.487
REMARK CONF_INDEPENDENT:        1.193
REMARK UNBOUND:                -0.487
REMARK  4 active torsions:
REMARK  status: ('A' for Active; 'I' for Inactive)
REMARK       I    between atoms: C_2  and  N_3 
REMARK    1  A    between atoms: C_2  and  C_12 
REMARK    2  A    between atoms: N_3  and  C_4 
REMARK    3  A    between atoms: C_4  and  C_5 
REMARK    4  A    between atoms: C_9  and  O_10 
ROOT
ATOM      1  O   UNL d   1      24.990 -14.479  -3.700  0.00  0.00    -0.268 OA
ATOM      2  C   UNL d   1      26.197 -14.251  -3.636  0.00  0.00     0.253 C 
ATOM      3  N   UNL d   1      26.868 -14.085  -2.444  0.00  0.00    -0.353 N 
ATOM      4  H   UNL d   1      27.850 -13.839  -2.437  0.00  0.00     0.163 HD
ENDROOT
BRANCH   2   5
ATOM      5  C   UNL d   1      27.032 -14.157  -4.878  0.00  0.00     0.049 A 
ATOM      6  C   UNL d   1      27.877 -15.175  -5.127  0.00  0.00     0.092 A 
ATOM      7  C   UNL d   1      28.772 -15.179  -6.311  0.00  0.00     0.246 A 
ATOM      8  O   UNL d   1      29.512 -16.127  -6.545  0.00  0.00    -0.268 OA
ATOM      9  N   UNL d   1      28.727 -14.080  -7.124  0.00  0.00    -0.323 N 
ATOM     10  C   UNL d   1      27.900 -12.977  -6.882  0.00  0.00     0.046 A 
ATOM     11  H   UNL d   1      29.353 -14.092  -7.920  0.00  0.00     0.169 HD
ATOM     12  C   UNL d   1      27.954 -11.877  -7.742  0.00  0.00     0.030 A 
ATOM     13  C   UNL d   1      27.046 -12.983  -5.769  0.00  0.00     0.006 A 
ATOM     14  C   UNL d   1      27.144 -10.769  -7.494  0.00  0.00     0.002 A 
ATOM     15  C   UNL d   1      26.304 -10.753  -6.386  0.00  0.00     0.001 A 
ATOM     16  C   UNL d   1      26.273 -11.843  -5.520  0.00  0.00     0.015 A 
ENDBRANCH   2   5
BRANCH   3  17
ATOM     17  C   UNL d   1      26.198 -14.274  -1.173  0.00  0.00     0.161 C 
BRANCH  17  18
ATOM     18  C   UNL d   1      25.810 -15.710  -0.921  0.00  0.00    -0.038 A 
ATOM     19  C   UNL d   1      24.527 -16.190  -1.231  0.00  0.00     0.009 A 
ATOM     20  C   UNL d   1      24.178 -17.519  -0.954  0.00  0.00     0.003 A 
ATOM     21  C   UNL d   1      25.105 -18.386  -0.373  0.00  0.00     0.036 A 
ATOM     22  C   UNL d   1      26.379 -17.914  -0.075  0.00  0.00     0.066 A 
ATOM     23  C   UNL d   1      26.731 -16.593  -0.339  0.00  0.00     0.045 A 
BRANCH  22  24
ATOM     24  O   UNL d   1      27.332 -18.712   0.486  0.00  0.00    -0.361 OA
ATOM     25  H   UNL d   1      28.148 -18.201   0.608  0.00  0.00     0.217 HD
ENDBRANCH  22  24
ENDBRANCH  17  18
ENDBRANCH   3  17
TORSDOF 4
ENDMDL
MODEL 8
REMARK VINA RESULT:    -6.469      2.045      7.364
REMARK INTER + INTRA:          -8.069
REMARK INTER:                  -7.662
REMARK INTRA:                  -0.407
REMARK CONF_INDEPENDENT:        1.193
REMARK UNBOUND:                -0.407
REMARK  4 active torsions:
REMARK  status: ('A' for Active; 'I' for Inactive)
REMARK       I    between atoms: C_2  and  N_3 
REMARK    1  A    between atoms: C_2  and  C_12 
REMARK    2  A    between atoms: N_3  and  C_4 
REMARK    3  A    between atoms: C_4  and  C_5 
REMARK    4  A    between atoms: C_9  and  O_10 
ROOT
ATOM      1  O   UNL d   1      26.541 -13.116  -2.811  0.00  0.00    -0.268 OA
ATOM      2  C   UNL d   1      26.408 -14.012  -3.643  0.00  0.00     0.253 C 
ATOM      3  N   UNL d   1      25.502 -15.039  -3.502  0.00  0.00    -0.353 N 
ATOM      4  H   UNL d   1      25.466 -15.790  -4.181  0.00  0.00     0.163 HD
ENDROOT
BRANCH   2   5
ATOM      5  C   UNL d   1      27.231 -14.029  -4.897  0.00  0.00     0.049 A 
ATOM      6  C   UNL d   1      28.038 -15.088  -5.087  0.00  0.00     0.092 A 
ATOM      7  C   UNL d   1      28.918 -15.200  -6.277  0.00  0.00     0.246 A 
ATOM      8  O   UNL d   1      29.623 -16.185  -6.456  0.00  0.00    -0.268 OA
ATOM      9  N   UNL d   1      28.899 -14.156  -7.160  0.00  0.00    -0.323 N 
ATOM     10  C   UNL d   1      28.112 -13.012  -6.984  0.00  0.00     0.046 A 
ATOM     11  H   UNL d   1      29.514 -14.241  -7.960  0.00  0.00     0.169 HD
ATOM     12  C   UNL d   1      28.191 -11.973  -7.915  0.00  0.00     0.030 A 
ATOM     13  C   UNL d   1      27.272 -12.916  -5.863  0.00  0.00     0.006 A 
ATOM     14  C   UNL d   1      27.421 -10.824  -7.732  0.00  0.00     0.002 A 
ATOM     15  C   UNL d   1      26.596 -10.708  -6.618  0.00  0.00     0.001 A 
ATOM     16  C   UNL d   1      26.540 -11.737  -5.682  0.00  0.00     0.015 A 
ENDBRANCH   2   5
BRANCH   3  17
ATOM     17  C   UNL d   1      24.565 -15.068  -2.397  0.00  0.00     0.161 C 
BRANCH  17  18
ATOM     18  C   UNL d   1      24.743 -16.274  -1.508  0.00  0.00    -0.038 A 
ATOM     19  C   UNL d   1      25.987 -16.592  -0.939  0.00  0.00     0.009 A 
ATOM     20  C   UNL d   1      26.136 -17.737  -0.146  0.00  0.00     0.003 A 
ATOM     21  C   UNL d   1      25.046 -18.575   0.096  0.00  0.00     0.036 A 
ATOM     22  C   UNL d   1      23.811 -18.257  -0.458  0.00  0.00     0.066 A 
ATOM     23  C   UNL d   1      23.657 -17.124  -1.255  0.00  0.00     0.045 A 
BRANCH  22  24
ATOM     24  O   UNL d   1      22.706 -19.030  -0.254  0.00  0.00    -0.361 OA
ATOM     25  H   UNL d   1      22.939 -19.777   0.321  0.00  0.00     0.217 HD
ENDBRANCH  22  24
ENDBRANCH  17  18
ENDBRANCH   3  17
TORSDOF 4
ENDMDL
MODEL 9
REMARK VINA RESULT:    -6.348      4.252      5.833
REMARK INTER + INTRA:          -8.081
REMARK INTER:                  -7.542
REMARK INTRA:                  -0.539
REMARK CONF_INDEPENDENT:        1.193
REMARK UNBOUND:                -0.539
REMARK  4 active torsions:
REMARK  status: ('A' for Active; 'I' for Inactive)
REMARK       I    between atoms: C_2  and  N_3 
REMARK    1  A    between atoms: C_2  and  C_12 
REMARK    2  A    between atoms: N_3  and  C_4 
REMARK    3  A    between atoms: C_4  and  C_5 
REMARK    4  A    between atoms: C_9  and  O_10 
ROOT
ATOM      1  O   UNL d   1      26.613 -13.906   0.887  0.00  0.00    -0.268 OA
ATOM      2  C   UNL d   1      27.407 -14.818   1.114  0.00  0.00     0.253 C 
ATOM      3  N   UNL d   1      27.247 -16.093   0.621  0.00  0.00    -0.353 N 
ATOM      4  H   UNL d   1      27.892 -16.830   0.880  0.00  0.00     0.163 HD
ENDROOT
BRANCH   2   5
ATOM      5  C   UNL d   1      28.634 -14.583   1.943  0.00  0.00     0.049 A 
ATOM      6  C   UNL d   1      29.824 -14.807   1.355  0.00  0.00     0.092 A 
ATOM      7  C   UNL d   1      31.104 -14.635   2.086  0.00  0.00     0.246 A 
ATOM      8  O   UNL d   1      32.181 -14.808   1.530  0.00  0.00    -0.268 OA
ATOM      9  N   UNL d   1      31.021 -14.272   3.402  0.00  0.00    -0.323 N 
ATOM     10  C   UNL d   1      29.808 -14.073   4.070  0.00  0.00     0.046 A 
ATOM     11  H   UNL d   1      31.903 -14.171   3.890  0.00  0.00     0.169 HD
ATOM     12  C   UNL d   1      29.818 -13.748   5.430  0.00  0.00     0.030 A 
ATOM     13  C   UNL d   1      28.600 -14.224   3.373  0.00  0.00     0.006 A 
ATOM     14  C   UNL d   1      28.610 -13.567   6.103  0.00  0.00     0.002 A 
ATOM     15  C   UNL d   1      27.405 -13.729   5.429  0.00  0.00     0.001 A 
ATOM     16  C   UNL d   1      27.402 -14.075   4.081  0.00  0.00     0.015 A 
ENDBRANCH   2   5
BRANCH   3  17
ATOM     17  C   UNL d   1      26.169 -16.415  -0.293  0.00  0.00     0.161 C 
BRANCH  17  18
ATOM     18  C   UNL d   1      26.327 -15.758  -1.642  0.00  0.00    -0.038 A 
ATOM     19  C   UNL d   1      27.581 -15.651  -2.265  0.00  0.00     0.009 A 
ATOM     20  C   UNL d   1      27.710 -15.004  -3.502  0.00  0.00     0.003 A 
ATOM     21  C   UNL d   1      26.589 -14.463  -4.135  0.00  0.00     0.036 A 
ATOM     22  C   UNL d   1      25.346 -14.576  -3.524  0.00  0.00     0.066 A 
ATOM     23  C   UNL d   1      25.211 -15.210  -2.291  0.00  0.00     0.045 A 
BRANCH  22  24
ATOM     24  O   UNL d   1      24.212 -14.075  -4.093  0.00  0.00    -0.361 OA
ATOM     25  H   UNL d   1      24.392 -13.848  -5.020  0.00  0.00     0.217 HD
ENDBRANCH  22  24
ENDBRANCH  17  18
ENDBRANCH   3  17
TORSDOF 4
ENDMDL
