MODEL 1
REMARK VINA RESULT:    -8.242      0.000      0.000
REMARK INTER + INTRA:          -9.837
REMARK INTER:                  -9.137
REMARK INTRA:                  -0.701
REMARK CONF_INDEPENDENT:        0.895
REMARK UNBOUND:                -0.701
REMARK  3 active torsions:
REMARK  status: ('A' for Active; 'I' for Inactive)
REMARK    1  A    between atoms: C_5  and  C_6 
REMARK       I    between atoms: C_6  and  N_7 
REMARK    2  A    between atoms: C_10  and  N_11 
REMARK       I    between atoms: N_11  and  C_12 
REMARK    3  A    between atoms: C_12  and  C_14 
ROOT
ATOM      1  C   UNL d   1      29.962 -17.017  -3.421  0.00  0.00     0.050 C 
ATOM      2  C   UNL d   1      28.811 -16.057  -3.503  0.00  0.00    -0.035 C 
ATOM      3  C   UNL d   1      28.744 -15.347  -4.704  0.00  0.00     0.010 C 
ATOM      4  C   UNL d   1      27.657 -14.549  -5.015  0.00  0.00     0.017 C 
ATOM      5  C   UNL d   1      26.602 -14.416  -4.117  0.00  0.00     0.034 C 
ATOM      6  C   UNL d   1      26.693 -15.052  -2.856  0.00  0.00     0.047 C 
ATOM      7  C   UNL d   1      27.828 -15.831  -2.513  0.00  0.00     0.042 C 
ENDROOT
BRANCH   7   8
ATOM      8  N   UNL d   1      27.911 -16.336  -1.179  0.00  0.00    -0.322 N 
ATOM      9  C   UNL d   1      26.901 -16.427  -0.227  0.00  0.00     0.256 C 
ATOM     10  O   UNL d   1      27.077 -15.974   0.903  0.00  0.00    -0.267 OA
ATOM     11  H   UNL d   1      28.843 -16.421  -0.786  0.00  0.00     0.169 HD
BRANCH   9  12
ATOM     12  C   UNL d   1      25.595 -17.111  -0.567  0.00  0.00     0.032 A 
ATOM     13  C   UNL d   1      25.398 -18.445  -0.149  0.00  0.00     0.018 A 
ATOM     14  C   UNL d   1      24.108 -19.005  -0.145  0.00  0.00     0.020 A 
ATOM     15  C   UNL d   1      23.010 -18.228  -0.516  0.00  0.00     0.011 A 
ATOM     16 BR   UNL d   1      21.263 -18.951  -0.458  0.00  0.00    -0.051 Br
ATOM     17  C   UNL d   1      23.187 -16.904  -0.907  0.00  0.00     0.020 A 
ATOM     18  C   UNL d   1      24.480 -16.373  -1.013  0.00  0.00     0.018 A 
ENDBRANCH   9  12
ENDBRANCH   7   8
BRANCH   5  19
ATOM     19  C   UNL d   1      25.397 -13.595  -4.475  0.00  0.00     0.249 C 
ATOM     20  N   UNL d   1      25.602 -12.302  -4.907  0.00  0.00    -0.366 N 
ATOM     21  H   UNL d   1      26.494 -11.847  -5.014  0.00  0.00     0.159 HD
ATOM     22  H   UNL d   1      24.786 -11.758  -5.154  0.00  0.00     0.159 HD
ATOM     23  O   UNL d   1      24.271 -14.042  -4.394  0.00  0.00    -0.268 OA
ENDBRANCH   5  19
TORSDOF 3
ENDMDL
MODEL 2
REMARK VINA RESULT:    -7.861      0.793      1.414
REMARK INTER + INTRA:          -9.467
REMARK INTER:                  -8.756
REMARK INTRA:                  -0.711
REMARK CONF_INDEPENDENT:        0.895
REMARK UNBOUND:                -0.711
REMARK  3 active torsions:
REMARK  status: ('A' for Active; 'I' for Inactive)
REMARK    1  A    between atoms: C_5  and  C_6 
REMARK       I    between atoms: C_6  and  N_7 
REMARK    2  A    between atoms: C_10  and  N_11 
REMARK       I    between atoms: N_11  and  C_12 
REMARK    3  A    between atoms: C_12  and  C_14 
ROOT
ATOM      1  C   UNL d   1      30.029 -17.155  -4.040  0.00  0.00     0.050 C 
ATOM      2  C   UNL d   1      28.927 -16.141  -3.941  0.00  0.00    -0.035 C 
ATOM      3  C   UNL d   1      28.559 -15.576  -5.164  0.00  0.00     0.010 C 
ATOM      4  C   UNL d   1      27.451 -14.754  -5.279  0.00  0.00     0.017 C 
ATOM      5  C   UNL d   1      26.681 -14.450  -4.159  0.00  0.00     0.034 C 
ATOM      6  C   UNL d   1      27.091 -14.936  -2.896  0.00  0.00     0.047 C 
ATOM      7  C   UNL d   1      28.254 -15.738  -2.765  0.00  0.00     0.042 C 
ENDROOT
BRANCH   7   8
ATOM      8  N   UNL d   1      28.680 -16.085  -1.446  0.00  0.00    -0.322 N 
ATOM      9  C   UNL d   1      27.981 -15.952  -0.251  0.00  0.00     0.256 C 
ATOM     10  O   UNL d   1      28.503 -15.388   0.708  0.00  0.00    -0.267 OA
ATOM     11  H   UNL d   1      29.678 -16.222  -1.315  0.00  0.00     0.169 HD
BRANCH   9  12
ATOM     12  C   UNL d   1      26.587 -16.527  -0.117  0.00  0.00     0.032 A 
ATOM     13  C   UNL d   1      25.490 -15.762  -0.567  0.00  0.00     0.018 A 
ATOM     14  C   UNL d   1      24.237 -16.368  -0.771  0.00  0.00     0.020 A 
ATOM     15  C   UNL d   1      24.085 -17.739  -0.566  0.00  0.00     0.011 A 
ATOM     16 BR   UNL d   1      22.421 -18.577  -0.893  0.00  0.00    -0.051 Br
ATOM     17  C   UNL d   1      25.164 -18.510  -0.145  0.00  0.00     0.020 A 
ATOM     18  C   UNL d   1      26.387 -17.896   0.159  0.00  0.00     0.018 A 
ENDBRANCH   9  12
ENDBRANCH   7   8
BRANCH   5  19
ATOM     19  C   UNL d   1      25.448 -13.604  -4.292  0.00  0.00     0.249 C 
ATOM     20  N   UNL d   1      25.613 -12.259  -4.545  0.00  0.00    -0.366 N 
ATOM     21  H   UNL d   1      26.490 -11.779  -4.659  0.00  0.00     0.159 HD
ATOM     22  H   UNL d   1      24.776 -11.697  -4.641  0.00  0.00     0.159 HD
ATOM     23  O   UNL d   1      24.334 -14.075  -4.183  0.00  0.00    -0.268 OA
ENDBRANCH   5  19
TORSDOF 3
ENDMDL
MODEL 3
REMARK VINA RESULT:    -7.758      3.248      5.558
REMARK INTER + INTRA:          -9.364
REMARK INTER:                  -8.653
REMARK INTRA:                  -0.711
REMARK CONF_INDEPENDENT:        0.895
REMARK UNBOUND:                -0.711
REMARK  3 active torsions:
REMARK  status: ('A' for Active; 'I' for Inactive)
REMARK    1  A    between atoms: C_5  and  C_6 
REMARK       I    between atoms: C_6  and  N_7 
REMARK    2  A    between atoms: C_10  and  N_11 
REMARK       I    between atoms: N_11  and  C_12 
REMARK    3  A    between atoms: C_12  and  C_14 
ROOT
ATOM      1  C   UNL d   1      27.048 -12.432  -0.844  0.00  0.00     0.050 C 
ATOM      2  C   UNL d   1      27.398 -13.009   0.496  0.00  0.00    -0.035 C 
ATOM      3  C   UNL d   1      27.358 -12.086   1.544  0.00  0.00     0.010 C 
ATOM      4  C   UNL d   1      27.486 -12.481   2.865  0.00  0.00     0.017 C 
ATOM      5  C   UNL d   1      27.683 -13.823   3.181  0.00  0.00     0.034 C 
ATOM      6  C   UNL d   1      27.821 -14.760   2.131  0.00  0.00     0.047 C 
ATOM      7  C   UNL d   1      27.739 -14.353   0.774  0.00  0.00     0.042 C 
ENDROOT
BRANCH   7   8
ATOM      8  N   UNL d   1      28.015 -15.328  -0.232  0.00  0.00    -0.322 N 
ATOM      9  C   UNL d   1      27.557 -16.639  -0.312  0.00  0.00     0.256 C 
ATOM     10  O   UNL d   1      28.353 -17.560  -0.485  0.00  0.00    -0.267 OA
ATOM     11  H   UNL d   1      28.813 -15.144  -0.833  0.00  0.00     0.169 HD
BRANCH   9  12
ATOM     12  C   UNL d   1      26.076 -16.934  -0.217  0.00  0.00     0.032 A 
ATOM     13  C   UNL d   1      25.192 -16.264  -1.090  0.00  0.00     0.018 A 
ATOM     14  C   UNL d   1      23.879 -16.733  -1.271  0.00  0.00     0.020 A 
ATOM     15  C   UNL d   1      23.456 -17.891  -0.615  0.00  0.00     0.011 A 
ATOM     16 BR   UNL d   1      21.713 -18.566  -0.895  0.00  0.00    -0.051 Br
ATOM     17  C   UNL d   1      24.325 -18.575   0.230  0.00  0.00     0.020 A 
ATOM     18  C   UNL d   1      25.600 -18.055   0.495  0.00  0.00     0.018 A 
ENDBRANCH   9  12
ENDBRANCH   7   8
BRANCH   5  19
ATOM     19  C   UNL d   1      27.768 -14.260   4.615  0.00  0.00     0.249 C 
ATOM     20  N   UNL d   1      28.720 -15.200   4.948  0.00  0.00    -0.366 N 
ATOM     21  H   UNL d   1      29.379 -15.627   4.318  0.00  0.00     0.159 HD
ATOM     22  H   UNL d   1      28.775 -15.484   5.918  0.00  0.00     0.159 HD
ATOM     23  O   UNL d   1      27.030 -13.808   5.466  0.00  0.00    -0.268 OA
ENDBRANCH   5  19
TORSDOF 3
ENDMDL
MODEL 4
REMARK VINA RESULT:    -7.680      3.677      6.046
REMARK INTER + INTRA:          -9.154
REMARK INTER:                  -8.575
REMARK INTRA:                  -0.580
REMARK CONF_INDEPENDENT:        0.895
REMARK UNBOUND:                -0.580
REMARK  3 active torsions:
REMARK  status: ('A' for Active; 'I' for Inactive)
REMARK    1  A    between atoms: C_5  and  C_6 
REMARK       I    between atoms: C_6  and  N_7 
REMARK    2  A    between atoms: C_10  and  N_11 
REMARK       I    between atoms: N_11  and  C_12 
REMARK    3  A    between atoms: C_12  and  C_14 
ROOT
ATOM      1  C   UNL d   1      27.555 -17.008  -0.608  0.00  0.00     0.050 C 
ATOM      2  C   UNL d   1      26.104 -17.351  -0.773  0.00  0.00    -0.035 C 
ATOM      3  C   UNL d   1      25.611 -18.228   0.196  0.00  0.00     0.010 C 
ATOM      4  C   UNL d   1      24.260 -18.515   0.295  0.00  0.00     0.017 C 
ATOM      5  C   UNL d   1      23.353 -17.946  -0.595  0.00  0.00     0.034 C 
ATOM      6  C   UNL d   1      23.843 -17.130  -1.642  0.00  0.00     0.047 C 
ATOM      7  C   UNL d   1      25.232 -16.872  -1.777  0.00  0.00     0.042 C 
ENDROOT
BRANCH   7   8
ATOM      8  N   UNL d   1      25.666 -16.147  -2.929  0.00  0.00    -0.322 N 
ATOM      9  C   UNL d   1      25.505 -14.795  -3.208  0.00  0.00     0.256 C 
ATOM     10  O   UNL d   1      25.031 -14.440  -4.286  0.00  0.00    -0.267 OA
ATOM     11  H   UNL d   1      25.908 -16.701  -3.746  0.00  0.00     0.169 HD
BRANCH   9  12
ATOM     12  C   UNL d   1      25.942 -13.753  -2.201  0.00  0.00     0.032 A 
ATOM     13  C   UNL d   1      26.280 -14.171  -0.896  0.00  0.00     0.018 A 
ATOM     14  C   UNL d   1      26.996 -13.315  -0.039  0.00  0.00     0.020 A 
ATOM     15  C   UNL d   1      27.409 -12.061  -0.492  0.00  0.00     0.011 A 
ATOM     16 BR   UNL d   1      28.422 -10.925   0.629  0.00  0.00    -0.051 Br
ATOM     17  C   UNL d   1      27.102 -11.646  -1.785  0.00  0.00     0.020 A 
ATOM     18  C   UNL d   1      26.302 -12.452  -2.607  0.00  0.00     0.018 A 
ENDBRANCH   9  12
ENDBRANCH   7   8
BRANCH   5  19
ATOM     19  C   UNL d   1      21.882 -18.213  -0.456  0.00  0.00     0.249 C 
ATOM     20  N   UNL d   1      21.494 -19.365   0.193  0.00  0.00    -0.366 N 
ATOM     21  H   UNL d   1      22.106 -20.055   0.596  0.00  0.00     0.159 HD
ATOM     22  H   UNL d   1      20.501 -19.534   0.289  0.00  0.00     0.159 HD
ATOM     23  O   UNL d   1      21.049 -17.446  -0.895  0.00  0.00    -0.268 OA
ENDBRANCH   5  19
TORSDOF 3
ENDMDL
MODEL 5
REMARK VINA RESULT:    -7.327      3.496      6.257
REMARK INTER + INTRA:          -8.889
REMARK INTER:                  -8.222
REMARK INTRA:                  -0.667
REMARK CONF_INDEPENDENT:        0.895
REMARK UNBOUND:                -0.667
REMARK  3 active torsions:
REMARK  status: ('A' for Active; 'I' for Inactive)
REMARK    1  A    between atoms: C_5  and  C_6 
REMARK       I    between atoms: C_6  and  N_7 
REMARK    2  A    between atoms: C_10  and  N_11 
REMARK       I    between atoms: N_11  and  C_12 
REMARK    3  A    between atoms: C_12  and  C_14 
ROOT
ATOM      1  C   UNL d   1      27.298 -15.162  -0.371  0.00  0.00     0.050 C 
ATOM      2  C   UNL d   1      26.170 -16.085  -0.727  0.00  0.00    -0.035 C 
ATOM      3  C   UNL d   1      26.251 -17.344  -0.128  0.00  0.00     0.010 C 
ATOM      4  C   UNL d   1      25.212 -18.255  -0.211  0.00  0.00     0.017 C 
ATOM      5  C   UNL d   1      24.056 -17.941  -0.921  0.00  0.00     0.034 C 
ATOM      6  C   UNL d   1      23.993 -16.710  -1.613  0.00  0.00     0.047 C 
ATOM      7  C   UNL d   1      25.075 -15.793  -1.572  0.00  0.00     0.042 C 
ENDROOT
BRANCH   7   8
ATOM      8  N   UNL d   1      24.995 -14.629  -2.397  0.00  0.00    -0.322 N 
ATOM      9  C   UNL d   1      26.023 -13.969  -3.061  0.00  0.00     0.256 C 
ATOM     10  O   UNL d   1      26.161 -12.755  -2.928  0.00  0.00    -0.267 OA
ATOM     11  H   UNL d   1      24.149 -14.073  -2.311  0.00  0.00     0.169 HD
BRANCH   9  12
ATOM     12  C   UNL d   1      26.955 -14.737  -3.973  0.00  0.00     0.032 A 
ATOM     13  C   UNL d   1      27.016 -14.381  -5.337  0.00  0.00     0.018 A 
ATOM     14  C   UNL d   1      28.082 -14.825  -6.140  0.00  0.00     0.020 A 
ATOM     15  C   UNL d   1      29.107 -15.587  -5.579  0.00  0.00     0.011 A 
ATOM     16 BR   UNL d   1      30.576 -16.140  -6.634  0.00  0.00    -0.051 Br
ATOM     17  C   UNL d   1      29.072 -15.925  -4.229  0.00  0.00     0.020 A 
ATOM     18  C   UNL d   1      27.962 -15.574  -3.449  0.00  0.00     0.018 A 
ENDBRANCH   9  12
ENDBRANCH   7   8
BRANCH   5  19
ATOM     19  C   UNL d   1      22.907 -18.906  -0.967  0.00  0.00     0.249 C 
ATOM     20  N   UNL d   1      22.357 -19.312   0.230  0.00  0.00    -0.366 N 
ATOM     21  H   UNL d   1      22.648 -19.017   1.147  0.00  0.00     0.159 HD
ATOM     22  H   UNL d   1      21.577 -19.956   0.190  0.00  0.00     0.159 HD
ATOM     23  O   UNL d   1      22.464 -19.324  -2.018  0.00  0.00    -0.268 OA
ENDBRANCH   5  19
TORSDOF 3
ENDMDL
MODEL 6
REMARK VINA RESULT:    -7.242      2.212      2.934
REMARK INTER + INTRA:          -8.754
REMARK INTER:                  -8.137
REMARK INTRA:                  -0.617
REMARK CONF_INDEPENDENT:        0.895
REMARK UNBOUND:                -0.617
REMARK  3 active torsions:
REMARK  status: ('A' for Active; 'I' for Inactive)
REMARK    1  A    between atoms: C_5  and  C_6 
REMARK       I    between atoms: C_6  and  N_7 
REMARK    2  A    between atoms: C_10  and  N_11 
REMARK       I    between atoms: N_11  and  C_12 
REMARK    3  A    between atoms: C_12  and  C_14 
ROOT
ATOM      1  C   UNL d   1      25.872 -13.525  -2.619  0.00  0.00     0.050 C 
ATOM      2  C   UNL d   1      26.852 -14.372  -3.377  0.00  0.00    -0.035 C 
ATOM      3  C   UNL d   1      26.714 -14.302  -4.765  0.00  0.00     0.010 C 
ATOM      4  C   UNL d   1      27.639 -14.883  -5.616  0.00  0.00     0.017 C 
ATOM      5  C   UNL d   1      28.729 -15.579  -5.101  0.00  0.00     0.034 C 
ATOM      6  C   UNL d   1      28.836 -15.742  -3.700  0.00  0.00     0.047 C 
ATOM      7  C   UNL d   1      27.864 -15.190  -2.825  0.00  0.00     0.042 C 
ENDROOT
BRANCH   7   8
ATOM      8  N   UNL d   1      27.966 -15.503  -1.435  0.00  0.00    -0.322 N 
ATOM      9  C   UNL d   1      26.943 -15.619  -0.500  0.00  0.00     0.256 C 
ATOM     10  O   UNL d   1      27.008 -15.005   0.563  0.00  0.00    -0.267 OA
ATOM     11  H   UNL d   1      28.885 -15.400  -1.015  0.00  0.00     0.169 HD
BRANCH   9  12
ATOM     12  C   UNL d   1      25.762 -16.526  -0.773  0.00  0.00     0.032 A 
ATOM     13  C   UNL d   1      25.736 -17.805  -0.178  0.00  0.00     0.018 A 
ATOM     14  C   UNL d   1      24.538 -18.541  -0.127  0.00  0.00     0.020 A 
ATOM     15  C   UNL d   1      23.359 -17.989  -0.631  0.00  0.00     0.011 A 
ATOM     16 BR   UNL d   1      21.731 -18.942  -0.516  0.00  0.00    -0.051 Br
ATOM     17  C   UNL d   1      23.366 -16.718  -1.200  0.00  0.00     0.020 A 
ATOM     18  C   UNL d   1      24.576 -16.024  -1.347  0.00  0.00     0.018 A 
ENDBRANCH   9  12
ENDBRANCH   7   8
BRANCH   5  19
ATOM     19  C   UNL d   1      29.761 -16.163  -6.021  0.00  0.00     0.249 C 
ATOM     20  N   UNL d   1      29.896 -15.608  -7.276  0.00  0.00    -0.366 N 
ATOM     21  H   UNL d   1      29.369 -14.833  -7.642  0.00  0.00     0.159 HD
ATOM     22  H   UNL d   1      30.600 -16.002  -7.887  0.00  0.00     0.159 HD
ATOM     23  O   UNL d   1      30.464 -17.095  -5.685  0.00  0.00    -0.268 OA
ENDBRANCH   5  19
TORSDOF 3
ENDMDL
MODEL 7
REMARK VINA RESULT:    -7.236      1.324      1.790
REMARK INTER + INTRA:          -8.830
REMARK INTER:                  -8.131
REMARK INTRA:                  -0.699
REMARK CONF_INDEPENDENT:        0.895
REMARK UNBOUND:                -0.699
REMARK  3 active torsions:
REMARK  status: ('A' for Active; 'I' for Inactive)
REMARK    1  A    between atoms: C_5  and  C_6 
REMARK       I    between atoms: C_6  and  N_7 
REMARK    2  A    between atoms: C_10  and  N_11 
REMARK       I    between atoms: N_11  and  C_12 
REMARK    3  A    between atoms: C_12  and  C_14 
ROOT
ATOM      1  C   UNL d   1      30.799 -18.197  -1.371  0.00  0.00     0.050 C 
ATOM      2  C   UNL d   1      29.974 -17.229  -2.167  0.00  0.00    -0.035 C 
ATOM      3  C   UNL d   1      30.415 -17.049  -3.481  0.00  0.00     0.010 C 
ATOM      4  C   UNL d   1      29.676 -16.325  -4.401  0.00  0.00     0.017 C 
ATOM      5  C   UNL d   1      28.472 -15.735  -4.028  0.00  0.00     0.034 C 
ATOM      6  C   UNL d   1      28.055 -15.826  -2.680  0.00  0.00     0.047 C 
ATOM      7  C   UNL d   1      28.833 -16.524  -1.720  0.00  0.00     0.042 C 
ENDROOT
BRANCH   7   8
ATOM      8  N   UNL d   1      28.418 -16.466  -0.355  0.00  0.00    -0.322 N 
ATOM      9  C   UNL d   1      27.167 -16.133   0.153  0.00  0.00     0.256 C 
ATOM     10  O   UNL d   1      27.066 -15.280   1.032  0.00  0.00    -0.267 OA
ATOM     11  H   UNL d   1      29.158 -16.428   0.341  0.00  0.00     0.169 HD
BRANCH   9  12
ATOM     12  C   UNL d   1      25.929 -16.842  -0.352  0.00  0.00     0.032 A 
ATOM     13  C   UNL d   1      25.586 -18.092   0.208  0.00  0.00     0.018 A 
ATOM     14  C   UNL d   1      24.297 -18.624   0.021  0.00  0.00     0.020 A 
ATOM     15  C   UNL d   1      23.339 -17.898  -0.687  0.00  0.00     0.011 A 
ATOM     16 BR   UNL d   1      21.586 -18.575  -0.895  0.00  0.00    -0.051 Br
ATOM     17  C   UNL d   1      23.656 -16.653  -1.224  0.00  0.00     0.020 A 
ATOM     18  C   UNL d   1      24.967 -16.165  -1.130  0.00  0.00     0.018 A 
ENDBRANCH   9  12
ENDBRANCH   7   8
BRANCH   5  19
ATOM     19  C   UNL d   1      27.642 -14.996  -5.038  0.00  0.00     0.249 C 
ATOM     20  N   UNL d   1      27.826 -13.635  -5.154  0.00  0.00    -0.366 N 
ATOM     21  H   UNL d   1      28.475 -13.077  -4.624  0.00  0.00     0.159 HD
ATOM     22  H   UNL d   1      27.268 -13.146  -5.842  0.00  0.00     0.159 HD
ATOM     23  O   UNL d   1      26.833 -15.567  -5.740  0.00  0.00    -0.268 OA
ENDBRANCH   5  19
TORSDOF 3
ENDMDL
MODEL 8
REMARK VINA RESULT:    -7.136      1.691      2.341
REMARK INTER + INTRA:          -8.788
REMARK INTER:                  -8.031
REMARK INTRA:                  -0.758
REMARK CONF_INDEPENDENT:        0.895
REMARK UNBOUND:                -0.758
REMARK  3 active torsions:
REMARK  status: ('A' for Active; 'I' for Inactive)
REMARK    1  A    between atoms: C_5  and  C_6 
REMARK       I    between atoms: C_6  and  N_7 
REMARK    2  A    between atoms: C_10  and  N_11 
REMARK       I    between atoms: N_11  and  C_12 
REMARK    3  A    between atoms: C_12  and  C_14 
ROOT
ATOM      1  C   UNL d   1      28.561 -14.273   0.596  0.00  0.00     0.050 C 
ATOM      2  C   UNL d   1      27.617 -14.181  -0.567  0.00  0.00    -0.035 C 
ATOM      3  C   UNL d   1      27.166 -12.886  -0.834  0.00  0.00     0.010 C 
ATOM      4  C   UNL d   1      26.428 -12.595  -1.969  0.00  0.00     0.017 C 
ATOM      5  C   UNL d   1      26.095 -13.604  -2.870  0.00  0.00     0.034 C 
ATOM      6  C   UNL d   1      26.462 -14.936  -2.569  0.00  0.00     0.047 C 
ATOM      7  C   UNL d   1      27.175 -15.247  -1.383  0.00  0.00     0.042 C 
ENDROOT
BRANCH   7   8
ATOM      8  N   UNL d   1      27.398 -16.626  -1.081  0.00  0.00    -0.322 N 
ATOM      9  C   UNL d   1      26.718 -17.432  -0.176  0.00  0.00     0.256 C 
ATOM     10  O   UNL d   1      27.342 -18.086   0.657  0.00  0.00    -0.267 OA
ATOM     11  H   UNL d   1      28.292 -17.012  -1.371  0.00  0.00     0.169 HD
BRANCH   9  12
ATOM     12  C   UNL d   1      25.209 -17.532  -0.232  0.00  0.00     0.032 A 
ATOM     13  C   UNL d   1      24.558 -17.312  -1.465  0.00  0.00     0.018 A 
ATOM     14  C   UNL d   1      23.222 -17.711  -1.645  0.00  0.00     0.020 A 
ATOM     15  C   UNL d   1      22.545 -18.364  -0.614  0.00  0.00     0.011 A 
ATOM     16 BR   UNL d   1      20.767 -18.958  -0.863  0.00  0.00    -0.051 Br
ATOM     17  C   UNL d   1      23.181 -18.608   0.599  0.00  0.00     0.020 A 
ATOM     18  C   UNL d   1      24.477 -18.121   0.820  0.00  0.00     0.018 A 
ENDBRANCH   9  12
ENDBRANCH   7   8
BRANCH   5  19
ATOM     19  C   UNL d   1      25.343 -13.281  -4.128  0.00  0.00     0.249 C 
ATOM     20  N   UNL d   1      25.552 -12.048  -4.707  0.00  0.00    -0.366 N 
ATOM     21  H   UNL d   1      26.173 -11.331  -4.370  0.00  0.00     0.159 HD
ATOM     22  H   UNL d   1      25.046 -11.841  -5.559  0.00  0.00     0.159 HD
ATOM     23  O   UNL d   1      24.571 -14.072  -4.632  0.00  0.00    -0.268 OA
ENDBRANCH   5  19
TORSDOF 3
ENDMDL
MODEL 9
REMARK VINA RESULT:    -7.029      3.802      5.814
REMARK INTER + INTRA:          -8.792
REMARK INTER:                  -7.924
REMARK INTRA:                  -0.868
REMARK CONF_INDEPENDENT:        0.895
REMARK UNBOUND:                -0.868
REMARK  3 active torsions:
REMARK  status: ('A' for Active; 'I' for Inactive)
REMARK    1  A    between atoms: C_5  and  C_6 
REMARK       I    between atoms: C_6  and  N_7 
REMARK    2  A    between atoms: C_10  and  N_11 
REMARK       I    between atoms: N_11  and  C_12 
REMARK    3  A    between atoms: C_12  and  C_14 
ROOT
ATOM      1  C   UNL d   1      28.170 -17.312  -0.145  0.00  0.00     0.050 C 
ATOM      2  C   UNL d   1      26.692 -17.294  -0.404  0.00  0.00    -0.035 C 
ATOM      3  C   UNL d   1      26.038 -18.479  -0.062  0.00  0.00     0.010 C 
ATOM      4  C   UNL d   1      24.657 -18.575  -0.075  0.00  0.00     0.017 C 
ATOM      5  C   UNL d   1      23.879 -17.485  -0.456  0.00  0.00     0.034 C 
ATOM      6  C   UNL d   1      24.525 -16.306  -0.896  0.00  0.00     0.047 C 
ATOM      7  C   UNL d   1      25.941 -16.219  -0.931  0.00  0.00     0.042 C 
ENDROOT
BRANCH   7   8
ATOM      8  N   UNL d   1      26.522 -15.048  -1.506  0.00  0.00    -0.322 N 
ATOM      9  C   UNL d   1      26.664 -13.786  -0.938  0.00  0.00     0.256 C 
ATOM     10  O   UNL d   1      26.278 -12.790  -1.547  0.00  0.00    -0.267 OA
ATOM     11  H   UNL d   1      26.635 -15.049  -2.516  0.00  0.00     0.169 HD
BRANCH   9  12
ATOM     12  C   UNL d   1      27.320 -13.632   0.416  0.00  0.00     0.032 A 
ATOM     13  C   UNL d   1      26.542 -13.171   1.500  0.00  0.00     0.018 A 
ATOM     14  C   UNL d   1      27.002 -13.324   2.821  0.00  0.00     0.020 A 
ATOM     15  C   UNL d   1      28.214 -13.970   3.066  0.00  0.00     0.011 A 
ATOM     16 BR   UNL d   1      28.816 -14.234   4.839  0.00  0.00    -0.051 Br
ATOM     17  C   UNL d   1      28.981 -14.450   2.008  0.00  0.00     0.020 A 
ATOM     18  C   UNL d   1      28.579 -14.209   0.687  0.00  0.00     0.018 A 
ENDBRANCH   9  12
ENDBRANCH   7   8
BRANCH   5  19
ATOM     19  C   UNL d   1      22.381 -17.570  -0.419  0.00  0.00     0.249 C 
ATOM     20  N   UNL d   1      21.811 -18.674   0.178  0.00  0.00    -0.366 N 
ATOM     21  H   UNL d   1      22.306 -19.439   0.605  0.00  0.00     0.159 HD
ATOM     22  H   UNL d   1      20.801 -18.720   0.206  0.00  0.00     0.159 HD
ATOM     23  O   UNL d   1      21.679 -16.700  -0.895  0.00  0.00    -0.268 OA
ENDBRANCH   5  19
TORSDOF 3
ENDMDL
