MODEL 1
REMARK VINA RESULT:    -7.940      0.000      0.000
REMARK INTER + INTRA:         -10.670
REMARK INTER:                  -9.730
REMARK INTRA:                  -0.939
REMARK CONF_INDEPENDENT:        1.790
REMARK UNBOUND:                -0.939
REMARK  6 active torsions:
REMARK  status: ('A' for Active; 'I' for Inactive)
REMARK    1  A    between atoms: O_2  and  N_3 
REMARK       I    between atoms: N_3  and  C_4 
REMARK       I    between atoms: C_4  and  N_6 
REMARK    2  A    between atoms: N_6  and  C_7 
REMARK    3  A    between atoms: C_7  and  C_9 
REMARK    4  A    between atoms: C_12  and  O_13 
REMARK    5  A    between atoms: O_13  and  C_14 
REMARK    6  A    between atoms: C_19  and  O_20 
ROOT
ATOM      1  C   UNL d   1      25.121 -15.998  -2.231  0.00  0.00    -0.033 C 
ATOM      2  C   UNL d   1      23.825 -15.575  -1.914  0.00  0.00     0.012 C 
ATOM      3  C   UNL d   1      23.095 -16.227  -0.906  0.00  0.00     0.040 C 
ATOM      4  C   UNL d   1      23.616 -17.360  -0.266  0.00  0.00     0.102 C 
ATOM      5  C   UNL d   1      24.908 -17.784  -0.601  0.00  0.00     0.102 C 
ATOM      6  C   UNL d   1      25.586 -17.158  -1.616  0.00  0.00     0.049 C 
ENDROOT
BRANCH   1   7
ATOM      7  C   UNL d   1      26.096 -15.284  -3.158  0.00  0.00     0.115 C 
ATOM      8  C   UNL d   1      27.452 -15.066  -2.429  0.00  0.00     0.037 C 
BRANCH   7   9
ATOM      9  N   UNL d   1      25.574 -14.007  -3.624  0.00  0.00    -0.333 N 
ATOM     10  C   UNL d   1      26.085 -13.399  -4.742  0.00  0.00     0.340 C 
ATOM     11  N   UNL d   1      25.542 -12.170  -4.991  0.00  0.00    -0.217 N 
ATOM     12  O   UNL d   1      26.964 -13.919  -5.436  0.00  0.00    -0.245 OA
ATOM     13  H   UNL d   1      24.776 -11.764  -4.475  0.00  0.00     0.199 HD
ATOM     14  H   UNL d   1      24.909 -13.512  -3.054  0.00  0.00     0.165 HD
BRANCH  11  15
ATOM     15  O   UNL d   1      26.052 -11.503  -6.129  0.00  0.00    -0.281 OA
ATOM     16  C   UNL d   1      25.573 -10.168  -6.177  0.00  0.00     0.237 C 
ENDBRANCH  11  15
ENDBRANCH   7   9
ENDBRANCH   1   7
BRANCH   5  17
ATOM     17  O   UNL d   1      25.526 -18.777   0.082  0.00  0.00    -0.353 OA
ATOM     18  C   UNL d   1      26.623 -18.570   0.951  0.00  0.00     0.210 C 
ENDBRANCH   5  17
BRANCH   4  19
ATOM     19  O   UNL d   1      22.748 -17.964   0.610  0.00  0.00    -0.343 OA
BRANCH  19  20
ATOM     20  C   UNL d   1      21.837 -18.960   0.144  0.00  0.00     0.129 C 
ATOM     21  C   UNL d   1      20.680 -19.336   1.088  0.00  0.00     0.032 C 
ATOM     22  C   UNL d   1      19.585 -19.837   0.150  0.00  0.00     0.002 C 
ATOM     23  C   UNL d   1      19.899 -19.325  -1.270  0.00  0.00     0.002 C 
ATOM     24  C   UNL d   1      21.259 -18.636  -1.239  0.00  0.00     0.032 C 
ENDBRANCH  19  20
ENDBRANCH   4  19
TORSDOF 6
ENDMDL
MODEL 2
REMARK VINA RESULT:    -7.931      3.527      7.990
REMARK INTER + INTRA:         -10.978
REMARK INTER:                  -9.720
REMARK INTRA:                  -1.257
REMARK CONF_INDEPENDENT:        1.790
REMARK UNBOUND:                -1.257
REMARK  6 active torsions:
REMARK  status: ('A' for Active; 'I' for Inactive)
REMARK    1  A    between atoms: O_2  and  N_3 
REMARK       I    between atoms: N_3  and  C_4 
REMARK       I    between atoms: C_4  and  N_6 
REMARK    2  A    between atoms: N_6  and  C_7 
REMARK    3  A    between atoms: C_7  and  C_9 
REMARK    4  A    between atoms: C_12  and  O_13 
REMARK    5  A    between atoms: O_13  and  C_14 
REMARK    6  A    between atoms: C_19  and  O_20 
ROOT
ATOM      1  C   UNL d   1      24.058 -17.999  -0.796  0.00  0.00    -0.033 C 
ATOM      2  C   UNL d   1      24.864 -18.557   0.204  0.00  0.00     0.012 C 
ATOM      3  C   UNL d   1      26.177 -18.095   0.393  0.00  0.00     0.040 C 
ATOM      4  C   UNL d   1      26.728 -17.135  -0.469  0.00  0.00     0.102 C 
ATOM      5  C   UNL d   1      25.917 -16.595  -1.475  0.00  0.00     0.102 C 
ATOM      6  C   UNL d   1      24.652 -17.090  -1.666  0.00  0.00     0.049 C 
ENDROOT
BRANCH   1   7
ATOM      7  C   UNL d   1      22.572 -18.260  -0.999  0.00  0.00     0.115 C 
ATOM      8  C   UNL d   1      21.783 -16.925  -0.895  0.00  0.00     0.037 C 
BRANCH   7   9
ATOM      9  N   UNL d   1      22.046 -19.220  -0.037  0.00  0.00    -0.333 N 
ATOM     10  C   UNL d   1      20.853 -19.858  -0.254  0.00  0.00     0.340 C 
ATOM     11  N   UNL d   1      20.467 -20.660   0.783  0.00  0.00    -0.217 N 
ATOM     12  O   UNL d   1      20.194 -19.700  -1.286  0.00  0.00    -0.245 OA
ATOM     13  H   UNL d   1      21.027 -20.853   1.601  0.00  0.00     0.199 HD
ATOM     14  H   UNL d   1      22.511 -19.329   0.849  0.00  0.00     0.165 HD
BRANCH  11  15
ATOM     15  O   UNL d   1      19.232 -21.328   0.606  0.00  0.00    -0.281 OA
ATOM     16  C   UNL d   1      18.261 -20.819   1.506  0.00  0.00     0.237 C 
ENDBRANCH  11  15
ENDBRANCH   7   9
ENDBRANCH   1   7
BRANCH   5  17
ATOM     17  O   UNL d   1      26.338 -15.561  -2.243  0.00  0.00    -0.353 OA
ATOM     18  C   UNL d   1      25.472 -14.740  -3.002  0.00  0.00     0.210 C 
ENDBRANCH   5  17
BRANCH   4  19
ATOM     19  O   UNL d   1      28.055 -16.866  -0.240  0.00  0.00    -0.343 OA
BRANCH  19  20
ATOM     20  C   UNL d   1      28.448 -15.600   0.291  0.00  0.00     0.129 C 
ATOM     21  C   UNL d   1      28.820 -14.508  -0.728  0.00  0.00     0.032 C 
ATOM     22  C   UNL d   1      28.537 -13.202   0.009  0.00  0.00     0.002 C 
ATOM     23  C   UNL d   1      27.601 -13.513   1.193  0.00  0.00     0.002 C 
ATOM     24  C   UNL d   1      27.424 -15.025   1.277  0.00  0.00     0.032 C 
ENDBRANCH  19  20
ENDBRANCH   4  19
TORSDOF 6
ENDMDL
MODEL 3
REMARK VINA RESULT:    -7.832      3.595      8.212
REMARK INTER + INTRA:         -10.661
REMARK INTER:                  -9.622
REMARK INTRA:                  -1.038
REMARK CONF_INDEPENDENT:        1.790
REMARK UNBOUND:                -1.038
REMARK  6 active torsions:
REMARK  status: ('A' for Active; 'I' for Inactive)
REMARK    1  A    between atoms: O_2  and  N_3 
REMARK       I    between atoms: N_3  and  C_4 
REMARK       I    between atoms: C_4  and  N_6 
REMARK    2  A    between atoms: N_6  and  C_7 
REMARK    3  A    between atoms: C_7  and  C_9 
REMARK    4  A    between atoms: C_12  and  O_13 
REMARK    5  A    between atoms: O_13  and  C_14 
REMARK    6  A    between atoms: C_19  and  O_20 
ROOT
ATOM      1  C   UNL d   1      24.080 -17.910  -0.774  0.00  0.00    -0.033 C 
ATOM      2  C   UNL d   1      24.893 -18.486   0.210  0.00  0.00     0.012 C 
ATOM      3  C   UNL d   1      26.208 -18.029   0.398  0.00  0.00     0.040 C 
ATOM      4  C   UNL d   1      26.753 -17.054  -0.450  0.00  0.00     0.102 C 
ATOM      5  C   UNL d   1      25.936 -16.494  -1.440  0.00  0.00     0.102 C 
ATOM      6  C   UNL d   1      24.669 -16.985  -1.632  0.00  0.00     0.049 C 
ENDROOT
BRANCH   1   7
ATOM      7  C   UNL d   1      22.592 -18.165  -0.971  0.00  0.00     0.115 C 
ATOM      8  C   UNL d   1      21.812 -16.823  -0.895  0.00  0.00     0.037 C 
BRANCH   7   9
ATOM      9  N   UNL d   1      22.061 -19.101   0.012  0.00  0.00    -0.333 N 
ATOM     10  C   UNL d   1      20.900 -19.791  -0.223  0.00  0.00     0.340 C 
ATOM     11  N   UNL d   1      20.500 -20.560   0.833  0.00  0.00    -0.217 N 
ATOM     12  O   UNL d   1      20.278 -19.700  -1.286  0.00  0.00    -0.245 OA
ATOM     13  H   UNL d   1      21.032 -20.698   1.679  0.00  0.00     0.199 HD
ATOM     14  H   UNL d   1      22.494 -19.156   0.919  0.00  0.00     0.165 HD
BRANCH  11  15
ATOM     15  O   UNL d   1      19.297 -21.279   0.637  0.00  0.00    -0.281 OA
ATOM     16  C   UNL d   1      18.308 -20.849   1.559  0.00  0.00     0.237 C 
ENDBRANCH  11  15
ENDBRANCH   7   9
ENDBRANCH   1   7
BRANCH   5  17
ATOM     17  O   UNL d   1      26.353 -15.448  -2.192  0.00  0.00    -0.353 OA
ATOM     18  C   UNL d   1      25.483 -14.618  -2.938  0.00  0.00     0.210 C 
ENDBRANCH   5  17
BRANCH   4  19
ATOM     19  O   UNL d   1      28.082 -16.790  -0.226  0.00  0.00    -0.343 OA
BRANCH  19  20
ATOM     20  C   UNL d   1      29.074 -17.299  -1.119  0.00  0.00     0.129 C 
ATOM     21  C   UNL d   1      29.141 -16.656  -2.516  0.00  0.00     0.032 C 
ATOM     22  C   UNL d   1      30.588 -16.871  -2.953  0.00  0.00     0.002 C 
ATOM     23  C   UNL d   1      31.428 -17.178  -1.697  0.00  0.00     0.002 C 
ATOM     24  C   UNL d   1      30.481 -17.298  -0.508  0.00  0.00     0.032 C 
ENDBRANCH  19  20
ENDBRANCH   4  19
TORSDOF 6
ENDMDL
MODEL 4
REMARK VINA RESULT:    -7.739      3.955      5.934
REMARK INTER + INTRA:         -10.485
REMARK INTER:                  -9.529
REMARK INTRA:                  -0.957
REMARK CONF_INDEPENDENT:        1.790
REMARK UNBOUND:                -0.957
REMARK  6 active torsions:
REMARK  status: ('A' for Active; 'I' for Inactive)
REMARK    1  A    between atoms: O_2  and  N_3 
REMARK       I    between atoms: N_3  and  C_4 
REMARK       I    between atoms: C_4  and  N_6 
REMARK    2  A    between atoms: N_6  and  C_7 
REMARK    3  A    between atoms: C_7  and  C_9 
REMARK    4  A    between atoms: C_12  and  O_13 
REMARK    5  A    between atoms: O_13  and  C_14 
REMARK    6  A    between atoms: C_19  and  O_20 
ROOT
ATOM      1  C   UNL d   1      27.028 -15.451   0.006  0.00  0.00    -0.033 C 
ATOM      2  C   UNL d   1      26.860 -16.805   0.317  0.00  0.00     0.012 C 
ATOM      3  C   UNL d   1      25.930 -17.584  -0.391  0.00  0.00     0.040 C 
ATOM      4  C   UNL d   1      25.098 -17.000  -1.357  0.00  0.00     0.102 C 
ATOM      5  C   UNL d   1      25.265 -15.640  -1.651  0.00  0.00     0.102 C 
ATOM      6  C   UNL d   1      26.150 -14.891  -0.918  0.00  0.00     0.049 C 
ENDROOT
BRANCH   1   7
ATOM      7  C   UNL d   1      28.115 -14.533   0.551  0.00  0.00     0.115 C 
ATOM      8  C   UNL d   1      29.317 -14.496  -0.434  0.00  0.00     0.037 C 
BRANCH   7   9
ATOM      9  N   UNL d   1      28.571 -14.946   1.871  0.00  0.00    -0.333 N 
ATOM     10  C   UNL d   1      28.047 -14.386   3.008  0.00  0.00     0.340 C 
ATOM     11  N   UNL d   1      28.644 -14.825   4.156  0.00  0.00    -0.217 N 
ATOM     12  O   UNL d   1      27.136 -13.554   2.978  0.00  0.00    -0.245 OA
ATOM     13  H   UNL d   1      29.340 -15.554   4.201  0.00  0.00     0.199 HD
ATOM     14  H   UNL d   1      29.358 -15.568   1.944  0.00  0.00     0.165 HD
BRANCH  11  15
ATOM     15  O   UNL d   1      28.142 -14.260   5.353  0.00  0.00    -0.281 OA
ATOM     16  C   UNL d   1      29.166 -14.189   6.333  0.00  0.00     0.237 C 
ENDBRANCH  11  15
ENDBRANCH   7   9
ENDBRANCH   1   7
BRANCH   5  17
ATOM     17  O   UNL d   1      24.600 -15.051  -2.673  0.00  0.00    -0.353 OA
ATOM     18  C   UNL d   1      25.235 -14.371  -3.738  0.00  0.00     0.210 C 
ENDBRANCH   5  17
BRANCH   4  19
ATOM     19  O   UNL d   1      24.158 -17.852  -1.883  0.00  0.00    -0.343 OA
BRANCH  19  20
ATOM     20  C   UNL d   1      23.320 -18.617  -1.016  0.00  0.00     0.129 C 
ATOM     21  C   UNL d   1      23.086 -18.052   0.396  0.00  0.00     0.032 C 
ATOM     22  C   UNL d   1      21.736 -18.633   0.809  0.00  0.00     0.002 C 
ATOM     23  C   UNL d   1      21.008 -19.104  -0.466  0.00  0.00     0.002 C 
ATOM     24  C   UNL d   1      21.962 -18.950  -1.645  0.00  0.00     0.032 C 
ENDBRANCH  19  20
ENDBRANCH   4  19
TORSDOF 6
ENDMDL
MODEL 5
REMARK VINA RESULT:    -7.730      1.809      2.084
REMARK INTER + INTRA:         -10.471
REMARK INTER:                  -9.520
REMARK INTRA:                  -0.951
REMARK CONF_INDEPENDENT:        1.790
REMARK UNBOUND:                -0.951
REMARK  6 active torsions:
REMARK  status: ('A' for Active; 'I' for Inactive)
REMARK    1  A    between atoms: O_2  and  N_3 
REMARK       I    between atoms: N_3  and  C_4 
REMARK       I    between atoms: C_4  and  N_6 
REMARK    2  A    between atoms: N_6  and  C_7 
REMARK    3  A    between atoms: C_7  and  C_9 
REMARK    4  A    between atoms: C_12  and  O_13 
REMARK    5  A    between atoms: O_13  and  C_14 
REMARK    6  A    between atoms: C_19  and  O_20 
ROOT
ATOM      1  C   UNL d   1      25.276 -16.011  -1.632  0.00  0.00    -0.033 C 
ATOM      2  C   UNL d   1      23.877 -15.950  -1.645  0.00  0.00     0.012 C 
ATOM      3  C   UNL d   1      23.122 -16.881  -0.912  0.00  0.00     0.040 C 
ATOM      4  C   UNL d   1      23.751 -17.933  -0.232  0.00  0.00     0.102 C 
ATOM      5  C   UNL d   1      25.150 -17.993  -0.237  0.00  0.00     0.102 C 
ATOM      6  C   UNL d   1      25.865 -17.098  -0.992  0.00  0.00     0.049 C 
ENDROOT
BRANCH   1   7
ATOM      7  C   UNL d   1      26.224 -14.973  -2.217  0.00  0.00     0.115 C 
ATOM      8  C   UNL d   1      25.906 -13.573  -1.622  0.00  0.00     0.037 C 
BRANCH   7   9
ATOM      9  N   UNL d   1      26.152 -14.920  -3.671  0.00  0.00    -0.333 N 
ATOM     10  C   UNL d   1      27.259 -15.153  -4.444  0.00  0.00     0.340 C 
ATOM     11  N   UNL d   1      27.037 -14.982  -5.781  0.00  0.00    -0.217 N 
ATOM     12  O   UNL d   1      28.351 -15.471  -3.961  0.00  0.00    -0.245 OA
ATOM     13  H   UNL d   1      26.136 -14.792  -6.195  0.00  0.00     0.199 HD
ATOM     14  H   UNL d   1      25.304 -14.598  -4.107  0.00  0.00     0.165 HD
BRANCH  11  15
ATOM     15  O   UNL d   1      28.160 -15.199  -6.614  0.00  0.00    -0.281 OA
ATOM     16  C   UNL d   1      28.898 -13.998  -6.774  0.00  0.00     0.237 C 
ENDBRANCH  11  15
ENDBRANCH   7   9
ENDBRANCH   1   7
BRANCH   5  17
ATOM     17  O   UNL d   1      25.822 -18.893   0.520  0.00  0.00    -0.353 OA
ATOM     18  C   UNL d   1      27.233 -18.953   0.606  0.00  0.00     0.210 C 
ENDBRANCH   5  17
BRANCH   4  19
ATOM     19  O   UNL d   1      22.885 -18.833   0.340  0.00  0.00    -0.343 OA
BRANCH  19  20
ATOM     20  C   UNL d   1      21.477 -18.698   0.142  0.00  0.00     0.129 C 
ATOM     21  C   UNL d   1      20.918 -19.187  -1.206  0.00  0.00     0.032 C 
ATOM     22  C   UNL d   1      19.466 -19.545  -0.897  0.00  0.00     0.002 C 
ATOM     23  C   UNL d   1      19.330 -19.718   0.629  0.00  0.00     0.002 C 
ATOM     24  C   UNL d   1      20.655 -19.326   1.274  0.00  0.00     0.032 C 
ENDBRANCH  19  20
ENDBRANCH   4  19
TORSDOF 6
ENDMDL
MODEL 6
REMARK VINA RESULT:    -7.613      2.885      7.932
REMARK INTER + INTRA:         -10.460
REMARK INTER:                  -9.402
REMARK INTRA:                  -1.057
REMARK CONF_INDEPENDENT:        1.790
REMARK UNBOUND:                -1.057
REMARK  6 active torsions:
REMARK  status: ('A' for Active; 'I' for Inactive)
REMARK    1  A    between atoms: O_2  and  N_3 
REMARK       I    between atoms: N_3  and  C_4 
REMARK       I    between atoms: C_4  and  N_6 
REMARK    2  A    between atoms: N_6  and  C_7 
REMARK    3  A    between atoms: C_7  and  C_9 
REMARK    4  A    between atoms: C_12  and  O_13 
REMARK    5  A    between atoms: O_13  and  C_14 
REMARK    6  A    between atoms: C_19  and  O_20 
ROOT
ATOM      1  C   UNL d   1      25.844 -16.683  -1.327  0.00  0.00    -0.033 C 
ATOM      2  C   UNL d   1      27.233 -16.523  -1.272  0.00  0.00     0.012 C 
ATOM      3  C   UNL d   1      27.892 -15.732  -2.228  0.00  0.00     0.040 C 
ATOM      4  C   UNL d   1      27.184 -15.165  -3.297  0.00  0.00     0.102 C 
ATOM      5  C   UNL d   1      25.795 -15.344  -3.350  0.00  0.00     0.102 C 
ATOM      6  C   UNL d   1      25.180 -16.153  -2.430  0.00  0.00     0.049 C 
ENDROOT
BRANCH   1   7
ATOM      7  C   UNL d   1      24.975 -17.348  -0.267  0.00  0.00     0.115 C 
ATOM      8  C   UNL d   1      25.848 -18.269   0.629  0.00  0.00     0.037 C 
BRANCH   7   9
ATOM      9  N   UNL d   1      23.886 -18.117  -0.854  0.00  0.00    -0.333 N 
ATOM     10  C   UNL d   1      22.584 -17.705  -0.737  0.00  0.00     0.340 C 
ATOM     11  N   UNL d   1      21.684 -18.583  -1.270  0.00  0.00    -0.217 N 
ATOM     12  O   UNL d   1      22.271 -16.646  -0.185  0.00  0.00    -0.245 OA
ATOM     13  H   UNL d   1      21.928 -19.416  -1.785  0.00  0.00     0.199 HD
ATOM     14  H   UNL d   1      24.084 -19.021  -1.251  0.00  0.00     0.165 HD
BRANCH  11  15
ATOM     15  O   UNL d   1      20.326 -18.201  -1.158  0.00  0.00    -0.281 OA
ATOM     16  C   UNL d   1      19.528 -19.313  -0.781  0.00  0.00     0.237 C 
ENDBRANCH  11  15
ENDBRANCH   7   9
ENDBRANCH   1   7
BRANCH   5  17
ATOM     17  O   UNL d   1      25.035 -14.702  -4.269  0.00  0.00    -0.353 OA
ATOM     18  C   UNL d   1      25.155 -13.324  -4.567  0.00  0.00     0.210 C 
ENDBRANCH   5  17
BRANCH   4  19
ATOM     19  O   UNL d   1      27.972 -14.519  -4.217  0.00  0.00    -0.343 OA
BRANCH  19  20
ATOM     20  C   UNL d   1      28.487 -15.230  -5.344  0.00  0.00     0.129 C 
ATOM     21  C   UNL d   1      29.099 -14.384  -6.475  0.00  0.00     0.032 C 
ATOM     22  C   UNL d   1      30.100 -15.325  -7.141  0.00  0.00     0.002 C 
ATOM     23  C   UNL d   1      30.406 -16.473  -6.158  0.00  0.00     0.002 C 
ATOM     24  C   UNL d   1      29.487 -16.324  -4.950  0.00  0.00     0.032 C 
ENDBRANCH  19  20
ENDBRANCH   4  19
TORSDOF 6
ENDMDL
MODEL 7
REMARK VINA RESULT:    -7.518      3.467      4.882
REMARK INTER + INTRA:         -10.338
REMARK INTER:                  -9.307
REMARK INTRA:                  -1.031
REMARK CONF_INDEPENDENT:        1.790
REMARK UNBOUND:                -1.031
REMARK  6 active torsions:
REMARK  status: ('A' for Active; 'I' for Inactive)
REMARK    1  A    between atoms: O_2  and  N_3 
REMARK       I    between atoms: N_3  and  C_4 
REMARK       I    between atoms: C_4  and  N_6 
REMARK    2  A    between atoms: N_6  and  C_7 
REMARK    3  A    between atoms: C_7  and  C_9 
REMARK    4  A    between atoms: C_12  and  O_13 
REMARK    5  A    between atoms: O_13  and  C_14 
REMARK    6  A    between atoms: C_19  and  O_20 
ROOT
ATOM      1  C   UNL d   1      26.544 -16.652  -0.647  0.00  0.00    -0.033 C 
ATOM      2  C   UNL d   1      25.972 -17.871  -0.264  0.00  0.00     0.012 C 
ATOM      3  C   UNL d   1      24.641 -18.165  -0.601  0.00  0.00     0.040 C 
ATOM      4  C   UNL d   1      23.840 -17.212  -1.246  0.00  0.00     0.102 C 
ATOM      5  C   UNL d   1      24.418 -15.989  -1.612  0.00  0.00     0.102 C 
ATOM      6  C   UNL d   1      25.707 -15.709  -1.237  0.00  0.00     0.049 C 
ENDROOT
BRANCH   1   7
ATOM      7  C   UNL d   1      28.012 -16.271  -0.521  0.00  0.00     0.115 C 
ATOM      8  C   UNL d   1      28.905 -17.417  -1.072  0.00  0.00     0.037 C 
BRANCH   7   9
ATOM      9  N   UNL d   1      28.386 -15.973   0.856  0.00  0.00    -0.333 N 
ATOM     10  C   UNL d   1      28.079 -14.766   1.428  0.00  0.00     0.340 C 
ATOM     11  N   UNL d   1      28.574 -14.620   2.693  0.00  0.00    -0.217 N 
ATOM     12  O   UNL d   1      27.430 -13.897   0.836  0.00  0.00    -0.245 OA
ATOM     13  H   UNL d   1      29.044 -15.345   3.214  0.00  0.00     0.199 HD
ATOM     14  H   UNL d   1      28.975 -16.620   1.354  0.00  0.00     0.165 HD
BRANCH  11  15
ATOM     15  O   UNL d   1      28.291 -13.381   3.314  0.00  0.00    -0.281 OA
ATOM     16  C   UNL d   1      29.407 -12.510   3.212  0.00  0.00     0.237 C 
ENDBRANCH  11  15
ENDBRANCH   7   9
ENDBRANCH   1   7
BRANCH   5  17
ATOM     17  O   UNL d   1      23.745 -15.088  -2.367  0.00  0.00    -0.353 OA
ATOM     18  C   UNL d   1      24.373 -14.153  -3.224  0.00  0.00     0.210 C 
ENDBRANCH   5  17
BRANCH   4  19
ATOM     19  O   UNL d   1      22.529 -17.590  -1.406  0.00  0.00    -0.343 OA
BRANCH  19  20
ATOM     20  C   UNL d   1      22.024 -18.733  -0.716  0.00  0.00     0.129 C 
ATOM     21  C   UNL d   1      21.762 -18.571   0.793  0.00  0.00     0.032 C 
ATOM     22  C   UNL d   1      20.677 -19.602   1.093  0.00  0.00     0.002 C 
ATOM     23  C   UNL d   1      20.005 -19.992  -0.239  0.00  0.00     0.002 C 
ATOM     24  C   UNL d   1      20.768 -19.318  -1.374  0.00  0.00     0.032 C 
ENDBRANCH  19  20
ENDBRANCH   4  19
TORSDOF 6
ENDMDL
MODEL 8
REMARK VINA RESULT:    -7.165      2.553      3.578
REMARK INTER + INTRA:         -10.112
REMARK INTER:                  -8.955
REMARK INTRA:                  -1.158
REMARK CONF_INDEPENDENT:        1.790
REMARK UNBOUND:                -1.158
REMARK  6 active torsions:
REMARK  status: ('A' for Active; 'I' for Inactive)
REMARK    1  A    between atoms: O_2  and  N_3 
REMARK       I    between atoms: N_3  and  C_4 
REMARK       I    between atoms: C_4  and  N_6 
REMARK    2  A    between atoms: N_6  and  C_7 
REMARK    3  A    between atoms: C_7  and  C_9 
REMARK    4  A    between atoms: C_12  and  O_13 
REMARK    5  A    between atoms: O_13  and  C_14 
REMARK    6  A    between atoms: C_19  and  O_20 
ROOT
ATOM      1  C   UNL d   1      25.025 -15.861  -1.838  0.00  0.00    -0.033 C 
ATOM      2  C   UNL d   1      23.642 -15.759  -1.645  0.00  0.00     0.012 C 
ATOM      3  C   UNL d   1      22.967 -16.700  -0.850  0.00  0.00     0.040 C 
ATOM      4  C   UNL d   1      23.650 -17.800  -0.310  0.00  0.00     0.102 C 
ATOM      5  C   UNL d   1      25.031 -17.900  -0.521  0.00  0.00     0.102 C 
ATOM      6  C   UNL d   1      25.661 -16.993  -1.334  0.00  0.00     0.049 C 
ENDROOT
BRANCH   1   7
ATOM      7  C   UNL d   1      25.916 -14.826  -2.511  0.00  0.00     0.115 C 
ATOM      8  C   UNL d   1      26.135 -15.207  -4.001  0.00  0.00     0.037 C 
BRANCH   7   9
ATOM      9  N   UNL d   1      27.202 -14.690  -1.841  0.00  0.00    -0.333 N 
ATOM     10  C   UNL d   1      27.282 -14.274  -0.537  0.00  0.00     0.340 C 
ATOM     11  N   UNL d   1      28.564 -14.121  -0.091  0.00  0.00    -0.217 N 
ATOM     12  O   UNL d   1      26.280 -14.047   0.149  0.00  0.00    -0.245 OA
ATOM     13  H   UNL d   1      29.390 -14.368  -0.616  0.00  0.00     0.199 HD
ATOM     14  H   UNL d   1      28.047 -14.796  -2.379  0.00  0.00     0.165 HD
BRANCH  11  15
ATOM     15  O   UNL d   1      28.690 -13.678   1.247  0.00  0.00    -0.281 OA
ATOM     16  C   UNL d   1      28.188 -14.657   2.142  0.00  0.00     0.237 C 
ENDBRANCH  11  15
ENDBRANCH   7   9
ENDBRANCH   1   7
BRANCH   5  17
ATOM     17  O   UNL d   1      25.772 -18.852   0.095  0.00  0.00    -0.353 OA
ATOM     18  C   UNL d   1      26.843 -18.570   0.975  0.00  0.00     0.210 C 
ENDBRANCH   5  17
BRANCH   4  19
ATOM     19  O   UNL d   1      22.844 -18.699   0.344  0.00  0.00    -0.343 OA
BRANCH  19  20
ATOM     20  C   UNL d   1      21.431 -18.675   0.141  0.00  0.00     0.129 C 
ATOM     21  C   UNL d   1      20.916 -19.217  -1.205  0.00  0.00     0.032 C 
ATOM     22  C   UNL d   1      19.495 -19.683  -0.897  0.00  0.00     0.002 C 
ATOM     23  C   UNL d   1      19.367 -19.854   0.629  0.00  0.00     0.002 C 
ATOM     24  C   UNL d   1      20.655 -19.355   1.275  0.00  0.00     0.032 C 
ENDBRANCH  19  20
ENDBRANCH   4  19
TORSDOF 6
ENDMDL
MODEL 9
REMARK VINA RESULT:    -7.143      2.554      7.587
REMARK INTER + INTRA:         -10.222
REMARK INTER:                  -8.932
REMARK INTRA:                  -1.290
REMARK CONF_INDEPENDENT:        1.790
REMARK UNBOUND:                -1.290
REMARK  6 active torsions:
REMARK  status: ('A' for Active; 'I' for Inactive)
REMARK    1  A    between atoms: O_2  and  N_3 
REMARK       I    between atoms: N_3  and  C_4 
REMARK       I    between atoms: C_4  and  N_6 
REMARK    2  A    between atoms: N_6  and  C_7 
REMARK    3  A    between atoms: C_7  and  C_9 
REMARK    4  A    between atoms: C_12  and  O_13 
REMARK    5  A    between atoms: O_13  and  C_14 
REMARK    6  A    between atoms: C_19  and  O_20 
ROOT
ATOM      1  C   UNL d   1      26.010 -16.717  -1.348  0.00  0.00    -0.033 C 
ATOM      2  C   UNL d   1      27.388 -16.479  -1.428  0.00  0.00     0.012 C 
ATOM      3  C   UNL d   1      27.907 -15.667  -2.450  0.00  0.00     0.040 C 
ATOM      4  C   UNL d   1      27.070 -15.156  -3.451  0.00  0.00     0.102 C 
ATOM      5  C   UNL d   1      25.695 -15.412  -3.370  0.00  0.00     0.102 C 
ATOM      6  C   UNL d   1      25.216 -16.241  -2.388  0.00  0.00     0.049 C 
ENDROOT
BRANCH   1   7
ATOM      7  C   UNL d   1      25.285 -17.412  -0.205  0.00  0.00     0.115 C 
ATOM      8  C   UNL d   1      26.285 -18.290   0.599  0.00  0.00     0.037 C 
BRANCH   7   9
ATOM      9  N   UNL d   1      24.177 -18.232  -0.675  0.00  0.00    -0.333 N 
ATOM     10  C   UNL d   1      22.901 -17.734  -0.729  0.00  0.00     0.340 C 
ATOM     11  N   UNL d   1      21.970 -18.659  -1.113  0.00  0.00    -0.217 N 
ATOM     12  O   UNL d   1      22.632 -16.565  -0.439  0.00  0.00    -0.245 OA
ATOM     13  H   UNL d   1      22.183 -19.596  -1.420  0.00  0.00     0.199 HD
ATOM     14  H   UNL d   1      24.334 -19.210  -0.855  0.00  0.00     0.165 HD
BRANCH  11  15
ATOM     15  O   UNL d   1      20.637 -18.189  -1.168  0.00  0.00    -0.281 OA
ATOM     16  C   UNL d   1      19.731 -19.232  -0.845  0.00  0.00     0.237 C 
ENDBRANCH  11  15
ENDBRANCH   7   9
ENDBRANCH   1   7
BRANCH   5  17
ATOM     17  O   UNL d   1      24.816 -14.827  -4.218  0.00  0.00    -0.353 OA
ATOM     18  C   UNL d   1      24.024 -13.704  -3.880  0.00  0.00     0.210 C 
ENDBRANCH   5  17
BRANCH   4  19
ATOM     19  O   UNL d   1      27.729 -14.481  -4.449  0.00  0.00    -0.343 OA
BRANCH  19  20
ATOM     20  C   UNL d   1      27.595 -13.064  -4.565  0.00  0.00     0.129 C 
ATOM     21  C   UNL d   1      26.667 -12.546  -5.680  0.00  0.00     0.032 C 
ATOM     22  C   UNL d   1      26.203 -11.183  -5.171  0.00  0.00     0.002 C 
ATOM     23  C   UNL d   1      26.450 -11.130  -3.651  0.00  0.00     0.002 C 
ATOM     24  C   UNL d   1      27.198 -12.394  -3.244  0.00  0.00     0.032 C 
ENDBRANCH  19  20
ENDBRANCH   4  19
TORSDOF 6
ENDMDL
