MODEL 1
REMARK VINA RESULT:    -6.907      0.000      0.000
REMARK INTER + INTRA:          -9.651
REMARK INTER:                  -8.398
REMARK INTRA:                  -1.252
REMARK CONF_INDEPENDENT:        1.492
REMARK UNBOUND:                -1.252
REMARK  5 active torsions:
REMARK  status: ('A' for Active; 'I' for Inactive)
REMARK    1  A    between atoms: C_2  and  C_4 
REMARK    2  A    between atoms: C_4  and  C_5 
REMARK    3  A    between atoms: C_5  and  C_6 
REMARK       I    between atoms: C_6  and  N_8 
REMARK    4  A    between atoms: N_8  and  N_9 
REMARK       I    between atoms: N_9  and  C_10 
REMARK    5  A    between atoms: C_10  and  C_12 
ROOT
ATOM      1  C   UNL d   1      21.133 -18.823  -0.677  0.00  0.00     0.236 C 
ATOM      2  O   UNL d   1      20.630 -17.863  -1.260  0.00  0.00    -0.272 OA
ATOM      3  N   UNL d   1      22.469 -18.839  -0.318  0.00  0.00    -0.268 N 
ATOM      4  H   UNL d   1      22.937 -19.612   0.152  0.00  0.00     0.190 HD
ENDROOT
BRANCH   3   5
ATOM      5  N   UNL d   1      23.243 -17.697  -0.605  0.00  0.00    -0.267 N 
ATOM      6  C   UNL d   1      24.537 -17.604  -0.140  0.00  0.00     0.240 C 
ATOM      7  O   UNL d   1      25.055 -18.469   0.566  0.00  0.00    -0.271 OA
ATOM      8  H   UNL d   1      22.826 -17.024  -1.243  0.00  0.00     0.190 HD
BRANCH   6   9
ATOM      9  C   UNL d   1      25.332 -16.387  -0.510  0.00  0.00     0.083 A 
ATOM     10  C   UNL d   1      26.046 -16.177  -1.828  0.00  0.00     0.019 A 
ATOM     11  C   UNL d   1      26.850 -16.421  -0.577  0.00  0.00    -0.005 A 
ATOM     12  C   UNL d   1      27.600 -17.686  -0.333  0.00  0.00     0.011 C 
ENDBRANCH   6   9
ENDBRANCH   3   5
BRANCH   1  13
ATOM     13  C   UNL d   1      20.355 -20.078  -0.308  0.00  0.00     0.105 C 
BRANCH  13  14
ATOM     14  C   UNL d   1      18.895 -19.755   0.052  0.00  0.00     0.013 C 
BRANCH  14  15
ATOM     15  C   UNL d   1      18.390 -20.482   1.313  0.00  0.00    -0.022 C 
ATOM     16  C   UNL d   1      18.049 -21.939   0.983  0.00  0.00     0.009 C 
ATOM     17  C   UNL d   1      19.431 -20.450   2.431  0.00  0.00     0.009 C 
ENDBRANCH  14  15
ENDBRANCH  13  14
ENDBRANCH   1  13
TORSDOF 5
ENDMDL
MODEL 2
REMARK VINA RESULT:    -6.759      1.163      7.116
REMARK INTER + INTRA:          -9.691
REMARK INTER:                  -8.250
REMARK INTRA:                  -1.440
REMARK CONF_INDEPENDENT:        1.492
REMARK UNBOUND:                -1.440
REMARK  5 active torsions:
REMARK  status: ('A' for Active; 'I' for Inactive)
REMARK    1  A    between atoms: C_2  and  C_4 
REMARK    2  A    between atoms: C_4  and  C_5 
REMARK    3  A    between atoms: C_5  and  C_6 
REMARK       I    between atoms: C_6  and  N_8 
REMARK    4  A    between atoms: N_8  and  N_9 
REMARK       I    between atoms: N_9  and  C_10 
REMARK    5  A    between atoms: C_10  and  C_12 
ROOT
ATOM      1  C   UNL d   1      24.433 -17.826  -0.380  0.00  0.00     0.236 C 
ATOM      2  O   UNL d   1      24.956 -18.736   0.263  0.00  0.00    -0.272 OA
ATOM      3  N   UNL d   1      23.091 -17.850  -0.717  0.00  0.00    -0.268 N 
ATOM      4  H   UNL d   1      22.613 -17.132  -1.258  0.00  0.00     0.190 HD
ENDROOT
BRANCH   3   5
ATOM      5  N   UNL d   1      22.317 -18.939  -0.266  0.00  0.00    -0.267 N 
ATOM      6  C   UNL d   1      20.985 -19.029  -0.609  0.00  0.00     0.240 C 
ATOM      7  O   UNL d   1      20.407 -18.166  -1.270  0.00  0.00    -0.271 OA
ATOM      8  H   UNL d   1      22.823 -19.674   0.220  0.00  0.00     0.190 HD
BRANCH   6   9
ATOM      9  C   UNL d   1      20.218 -20.230  -0.140  0.00  0.00     0.083 A 
ATOM     10  C   UNL d   1      18.782 -20.219   0.338  0.00  0.00     0.019 A 
ATOM     11  C   UNL d   1      19.895 -20.441   1.330  0.00  0.00    -0.005 A 
ATOM     12  C   UNL d   1      20.280 -19.427   2.352  0.00  0.00     0.011 C 
ENDBRANCH   6   9
ENDBRANCH   3   5
BRANCH   1  13
ATOM     13  C   UNL d   1      25.195 -16.606  -0.875  0.00  0.00     0.105 C 
BRANCH  13  14
ATOM     14  C   UNL d   1      25.143 -16.487  -2.407  0.00  0.00     0.013 C 
BRANCH  14  15
ATOM     15  C   UNL d   1      25.228 -15.038  -2.922  0.00  0.00    -0.022 C 
ATOM     16  C   UNL d   1      25.966 -14.158  -1.907  0.00  0.00     0.009 C 
ATOM     17  C   UNL d   1      25.949 -14.965  -4.267  0.00  0.00     0.009 C 
ENDBRANCH  14  15
ENDBRANCH  13  14
ENDBRANCH   1  13
TORSDOF 5
ENDMDL
MODEL 3
REMARK VINA RESULT:    -6.584      1.221      7.139
REMARK INTER + INTRA:          -9.441
REMARK INTER:                  -8.075
REMARK INTRA:                  -1.366
REMARK CONF_INDEPENDENT:        1.492
REMARK UNBOUND:                -1.366
REMARK  5 active torsions:
REMARK  status: ('A' for Active; 'I' for Inactive)
REMARK    1  A    between atoms: C_2  and  C_4 
REMARK    2  A    between atoms: C_4  and  C_5 
REMARK    3  A    between atoms: C_5  and  C_6 
REMARK       I    between atoms: C_6  and  N_8 
REMARK    4  A    between atoms: N_8  and  N_9 
REMARK       I    between atoms: N_9  and  C_10 
REMARK    5  A    between atoms: C_10  and  C_12 
ROOT
ATOM      1  C   UNL d   1      23.719 -18.175  -0.712  0.00  0.00     0.236 C 
ATOM      2  O   UNL d   1      24.249 -18.668   0.283  0.00  0.00    -0.272 OA
ATOM      3  N   UNL d   1      22.418 -18.481  -1.071  0.00  0.00    -0.268 N 
ATOM      4  H   UNL d   1      21.937 -18.113  -1.890  0.00  0.00     0.190 HD
ENDROOT
BRANCH   3   5
ATOM      5  N   UNL d   1      21.691 -19.354  -0.237  0.00  0.00    -0.267 N 
ATOM      6  C   UNL d   1      20.437 -19.785  -0.612  0.00  0.00     0.240 C 
ATOM      7  O   UNL d   1      19.884 -19.407  -1.645  0.00  0.00    -0.271 OA
ATOM      8  H   UNL d   1      22.187 -19.709   0.577  0.00  0.00     0.190 HD
BRANCH   6   9
ATOM      9  C   UNL d   1      19.725 -20.748   0.291  0.00  0.00     0.083 A 
ATOM     10  C   UNL d   1      18.405 -20.486   0.983  0.00  0.00     0.019 A 
ATOM     11  C   UNL d   1      19.673 -20.535   1.795  0.00  0.00    -0.005 A 
ATOM     12  C   UNL d   1      20.280 -19.325   2.418  0.00  0.00     0.011 C 
ENDBRANCH   6   9
ENDBRANCH   3   5
BRANCH   1  13
ATOM     13  C   UNL d   1      24.428 -17.203  -1.644  0.00  0.00     0.105 C 
BRANCH  13  14
ATOM     14  C   UNL d   1      25.233 -16.152  -0.861  0.00  0.00     0.013 C 
BRANCH  14  15
ATOM     15  C   UNL d   1      26.184 -15.317  -1.738  0.00  0.00    -0.022 C 
ATOM     16  C   UNL d   1      27.471 -16.100  -2.020  0.00  0.00     0.009 C 
ATOM     17  C   UNL d   1      25.529 -14.934  -3.064  0.00  0.00     0.009 C 
ENDBRANCH  14  15
ENDBRANCH  13  14
ENDBRANCH   1  13
TORSDOF 5
ENDMDL
MODEL 4
REMARK VINA RESULT:    -5.718      2.316      3.625
REMARK INTER + INTRA:          -8.573
REMARK INTER:                  -7.209
REMARK INTRA:                  -1.363
REMARK CONF_INDEPENDENT:        1.492
REMARK UNBOUND:                -1.363
REMARK  5 active torsions:
REMARK  status: ('A' for Active; 'I' for Inactive)
REMARK    1  A    between atoms: C_2  and  C_4 
REMARK    2  A    between atoms: C_4  and  C_5 
REMARK    3  A    between atoms: C_5  and  C_6 
REMARK       I    between atoms: C_6  and  N_8 
REMARK    4  A    between atoms: N_8  and  N_9 
REMARK       I    between atoms: N_9  and  C_10 
REMARK    5  A    between atoms: C_10  and  C_12 
ROOT
ATOM      1  C   UNL d   1      23.784 -17.839  -0.318  0.00  0.00     0.236 C 
ATOM      2  O   UNL d   1      24.797 -18.500  -0.092  0.00  0.00    -0.272 OA
ATOM      3  N   UNL d   1      23.824 -16.680  -1.072  0.00  0.00    -0.268 N 
ATOM      4  H   UNL d   1      23.020 -16.089  -1.276  0.00  0.00     0.190 HD
ENDROOT
BRANCH   3   5
ATOM      5  N   UNL d   1      25.064 -16.290  -1.617  0.00  0.00    -0.267 N 
ATOM      6  C   UNL d   1      25.140 -15.191  -2.447  0.00  0.00     0.240 C 
ATOM      7  O   UNL d   1      24.151 -14.539  -2.781  0.00  0.00    -0.271 OA
ATOM      8  H   UNL d   1      25.878 -16.796  -1.280  0.00  0.00     0.190 HD
BRANCH   6   9
ATOM      9  C   UNL d   1      26.490 -14.793  -2.965  0.00  0.00     0.083 A 
ATOM     10  C   UNL d   1      26.767 -13.612  -3.869  0.00  0.00     0.019 A 
ATOM     11  C   UNL d   1      26.878 -15.011  -4.418  0.00  0.00    -0.005 A 
ATOM     12  C   UNL d   1      25.905 -15.575  -5.395  0.00  0.00     0.011 C 
ENDBRANCH   6   9
ENDBRANCH   3   5
BRANCH   1  13
ATOM     13  C   UNL d   1      22.407 -18.211   0.211  0.00  0.00     0.105 C 
BRANCH  13  14
ATOM     14  C   UNL d   1      21.592 -18.995  -0.832  0.00  0.00     0.013 C 
BRANCH  14  15
ATOM     15  C   UNL d   1      20.449 -19.832  -0.227  0.00  0.00    -0.022 C 
ATOM     16  C   UNL d   1      20.337 -19.567   1.278  0.00  0.00     0.009 C 
ATOM     17  C   UNL d   1      19.112 -19.515  -0.895  0.00  0.00     0.009 C 
ENDBRANCH  14  15
ENDBRANCH  13  14
ENDBRANCH   1  13
TORSDOF 5
ENDMDL
MODEL 5
REMARK VINA RESULT:    -5.595      2.166      3.144
REMARK INTER + INTRA:          -8.403
REMARK INTER:                  -7.086
REMARK INTRA:                  -1.316
REMARK CONF_INDEPENDENT:        1.492
REMARK UNBOUND:                -1.316
REMARK  5 active torsions:
REMARK  status: ('A' for Active; 'I' for Inactive)
REMARK    1  A    between atoms: C_2  and  C_4 
REMARK    2  A    between atoms: C_4  and  C_5 
REMARK    3  A    between atoms: C_5  and  C_6 
REMARK       I    between atoms: C_6  and  N_8 
REMARK    4  A    between atoms: N_8  and  N_9 
REMARK       I    between atoms: N_9  and  C_10 
REMARK    5  A    between atoms: C_10  and  C_12 
ROOT
ATOM      1  C   UNL d   1      23.019 -17.210  -0.526  0.00  0.00     0.236 C 
ATOM      2  O   UNL d   1      22.230 -16.269  -0.604  0.00  0.00    -0.272 OA
ATOM      3  N   UNL d   1      24.277 -17.156  -1.099  0.00  0.00    -0.268 N 
ATOM      4  H   UNL d   1      24.961 -17.911  -1.076  0.00  0.00     0.190 HD
ENDROOT
BRANCH   3   5
ATOM      5  N   UNL d   1      24.654 -15.965  -1.751  0.00  0.00    -0.267 N 
ATOM      6  C   UNL d   1      25.982 -15.717  -2.025  0.00  0.00     0.240 C 
ATOM      7  O   UNL d   1      26.886 -16.481  -1.686  0.00  0.00    -0.271 OA
ATOM      8  H   UNL d   1      23.893 -15.379  -2.084  0.00  0.00     0.190 HD
BRANCH   6   9
ATOM      9  C   UNL d   1      26.325 -14.456  -2.760  0.00  0.00     0.083 A 
ATOM     10  C   UNL d   1      25.336 -13.569  -3.484  0.00  0.00     0.019 A 
ATOM     11  C   UNL d   1      26.313 -14.395  -4.279  0.00  0.00    -0.005 A 
ATOM     12  C   UNL d   1      25.902 -15.575  -5.090  0.00  0.00     0.011 C 
ENDBRANCH   6   9
ENDBRANCH   3   5
BRANCH   1  13
ATOM     13  C   UNL d   1      22.695 -18.516   0.186  0.00  0.00     0.105 C 
BRANCH  13  14
ATOM     14  C   UNL d   1      21.628 -19.325  -0.570  0.00  0.00     0.013 C 
BRANCH  14  15
ATOM     15  C   UNL d   1      20.247 -19.325   0.113  0.00  0.00    -0.022 C 
ATOM     16  C   UNL d   1      19.157 -19.701  -0.896  0.00  0.00     0.009 C 
ATOM     17  C   UNL d   1      20.205 -20.302   1.287  0.00  0.00     0.009 C 
ENDBRANCH  14  15
ENDBRANCH  13  14
ENDBRANCH   1  13
TORSDOF 5
ENDMDL
MODEL 6
REMARK VINA RESULT:    -5.447      1.887      2.996
REMARK INTER + INTRA:          -8.332
REMARK INTER:                  -6.938
REMARK INTRA:                  -1.394
REMARK CONF_INDEPENDENT:        1.492
REMARK UNBOUND:                -1.394
REMARK  5 active torsions:
REMARK  status: ('A' for Active; 'I' for Inactive)
REMARK    1  A    between atoms: C_2  and  C_4 
REMARK    2  A    between atoms: C_4  and  C_5 
REMARK    3  A    between atoms: C_5  and  C_6 
REMARK       I    between atoms: C_6  and  N_8 
REMARK    4  A    between atoms: N_8  and  N_9 
REMARK       I    between atoms: N_9  and  C_10 
REMARK    5  A    between atoms: C_10  and  C_12 
ROOT
ATOM      1  C   UNL d   1      23.683 -18.341  -0.766  0.00  0.00     0.236 C 
ATOM      2  O   UNL d   1      24.328 -18.575   0.256  0.00  0.00    -0.272 OA
ATOM      3  N   UNL d   1      24.163 -17.503  -1.756  0.00  0.00    -0.268 N 
ATOM      4  H   UNL d   1      23.665 -17.265  -2.611  0.00  0.00     0.190 HD
ENDROOT
BRANCH   3   5
ATOM      5  N   UNL d   1      25.446 -16.945  -1.582  0.00  0.00    -0.267 N 
ATOM      6  C   UNL d   1      25.881 -15.938  -2.417  0.00  0.00     0.240 C 
ATOM      7  O   UNL d   1      25.209 -15.515  -3.358  0.00  0.00    -0.271 OA
ATOM      8  H   UNL d   1      25.960 -17.256  -0.763  0.00  0.00     0.190 HD
BRANCH   6   9
ATOM      9  C   UNL d   1      27.237 -15.349  -2.162  0.00  0.00     0.083 A 
ATOM     10  C   UNL d   1      28.270 -15.912  -1.210  0.00  0.00     0.019 A 
ATOM     11  C   UNL d   1      27.557 -14.631  -0.861  0.00  0.00    -0.005 A 
ATOM     12  C   UNL d   1      26.549 -14.539   0.232  0.00  0.00     0.011 C 
ENDBRANCH   6   9
ENDBRANCH   3   5
BRANCH   1  13
ATOM     13  C   UNL d   1      22.305 -18.929  -1.038  0.00  0.00     0.105 C 
BRANCH  13  14
ATOM     14  C   UNL d   1      21.438 -18.953   0.232  0.00  0.00     0.013 C 
BRANCH  14  15
ATOM     15  C   UNL d   1      20.203 -19.866   0.125  0.00  0.00    -0.022 C 
ATOM     16  C   UNL d   1      19.519 -19.995   1.490  0.00  0.00     0.009 C 
ATOM     17  C   UNL d   1      19.198 -19.328  -0.892  0.00  0.00     0.009 C 
ENDBRANCH  14  15
ENDBRANCH  13  14
ENDBRANCH   1  13
TORSDOF 5
ENDMDL
MODEL 7
REMARK VINA RESULT:    -5.393      1.608      2.281
REMARK INTER + INTRA:          -8.336
REMARK INTER:                  -6.884
REMARK INTRA:                  -1.452
REMARK CONF_INDEPENDENT:        1.492
REMARK UNBOUND:                -1.452
REMARK  5 active torsions:
REMARK  status: ('A' for Active; 'I' for Inactive)
REMARK    1  A    between atoms: C_2  and  C_4 
REMARK    2  A    between atoms: C_4  and  C_5 
REMARK    3  A    between atoms: C_5  and  C_6 
REMARK       I    between atoms: C_6  and  N_8 
REMARK    4  A    between atoms: N_8  and  N_9 
REMARK       I    between atoms: N_9  and  C_10 
REMARK    5  A    between atoms: C_10  and  C_12 
ROOT
ATOM      1  C   UNL d   1      22.918 -17.364  -0.729  0.00  0.00     0.236 C 
ATOM      2  O   UNL d   1      22.912 -16.177  -1.052  0.00  0.00    -0.272 OA
ATOM      3  N   UNL d   1      24.039 -17.966  -0.187  0.00  0.00    -0.268 N 
ATOM      4  H   UNL d   1      24.101 -18.946   0.084  0.00  0.00     0.190 HD
ENDROOT
BRANCH   3   5
ATOM      5  N   UNL d   1      25.180 -17.167   0.024  0.00  0.00    -0.267 N 
ATOM      6  C   UNL d   1      26.372 -17.748   0.403  0.00  0.00     0.240 C 
ATOM      7  O   UNL d   1      26.487 -18.956   0.612  0.00  0.00    -0.271 OA
ATOM      8  H   UNL d   1      25.087 -16.184  -0.217  0.00  0.00     0.190 HD
BRANCH   6   9
ATOM      9  C   UNL d   1      27.566 -16.858   0.572  0.00  0.00     0.083 A 
ATOM     10  C   UNL d   1      27.557 -15.349   0.451  0.00  0.00     0.019 A 
ATOM     11  C   UNL d   1      28.223 -16.177  -0.619  0.00  0.00    -0.005 A 
ATOM     12  C   UNL d   1      27.662 -16.325  -1.991  0.00  0.00     0.011 C 
ENDBRANCH   6   9
ENDBRANCH   3   5
BRANCH   1  13
ATOM     13  C   UNL d   1      21.716 -18.283  -0.898  0.00  0.00     0.105 C 
BRANCH  13  14
ATOM     14  C   UNL d   1      21.333 -18.966   0.425  0.00  0.00     0.013 C 
BRANCH  14  15
ATOM     15  C   UNL d   1      19.858 -19.403   0.495  0.00  0.00    -0.022 C 
ATOM     16  C   UNL d   1      19.220 -19.341  -0.897  0.00  0.00     0.009 C 
ATOM     17  C   UNL d   1      19.722 -20.822   1.046  0.00  0.00     0.009 C 
ENDBRANCH  14  15
ENDBRANCH  13  14
ENDBRANCH   1  13
TORSDOF 5
ENDMDL
MODEL 8
REMARK VINA RESULT:    -5.292      3.306      5.449
REMARK INTER + INTRA:          -8.236
REMARK INTER:                  -6.783
REMARK INTRA:                  -1.453
REMARK CONF_INDEPENDENT:        1.492
REMARK UNBOUND:                -1.453
REMARK  5 active torsions:
REMARK  status: ('A' for Active; 'I' for Inactive)
REMARK    1  A    between atoms: C_2  and  C_4 
REMARK    2  A    between atoms: C_4  and  C_5 
REMARK    3  A    between atoms: C_5  and  C_6 
REMARK       I    between atoms: C_6  and  N_8 
REMARK    4  A    between atoms: N_8  and  N_9 
REMARK       I    between atoms: N_9  and  C_10 
REMARK    5  A    between atoms: C_10  and  C_12 
ROOT
ATOM      1  C   UNL d   1      26.045 -17.105  -1.048  0.00  0.00     0.236 C 
ATOM      2  O   UNL d   1      27.267 -17.249  -1.089  0.00  0.00    -0.272 OA
ATOM      3  N   UNL d   1      25.364 -16.381  -2.009  0.00  0.00    -0.268 N 
ATOM      4  H   UNL d   1      24.358 -16.220  -2.014  0.00  0.00     0.190 HD
ENDROOT
BRANCH   3   5
ATOM      5  N   UNL d   1      26.109 -15.836  -3.075  0.00  0.00    -0.267 N 
ATOM      6  C   UNL d   1      25.558 -14.857  -3.874  0.00  0.00     0.240 C 
ATOM      7  O   UNL d   1      24.405 -14.450  -3.730  0.00  0.00    -0.271 OA
ATOM      8  H   UNL d   1      27.079 -16.132  -3.138  0.00  0.00     0.190 HD
BRANCH   6   9
ATOM      9  C   UNL d   1      26.408 -14.279  -4.966  0.00  0.00     0.083 A 
ATOM     10  C   UNL d   1      27.759 -13.627  -4.770  0.00  0.00     0.019 A 
ATOM     11  C   UNL d   1      26.570 -12.777  -5.135  0.00  0.00    -0.005 A 
ATOM     12  C   UNL d   1      25.933 -11.826  -4.181  0.00  0.00     0.011 C 
ENDBRANCH   6   9
ENDBRANCH   3   5
BRANCH   1  13
ATOM     13  C   UNL d   1      25.171 -17.688   0.053  0.00  0.00     0.105 C 
BRANCH  13  14
ATOM     14  C   UNL d   1      24.052 -18.573  -0.520  0.00  0.00     0.013 C 
BRANCH  14  15
ATOM     15  C   UNL d   1      22.633 -18.091  -0.163  0.00  0.00    -0.022 C 
ATOM     16  C   UNL d   1      22.471 -16.610  -0.520  0.00  0.00     0.009 C 
ATOM     17  C   UNL d   1      21.566 -18.904  -0.895  0.00  0.00     0.009 C 
ENDBRANCH  14  15
ENDBRANCH  13  14
ENDBRANCH   1  13
TORSDOF 5
ENDMDL
MODEL 9
REMARK VINA RESULT:    -5.244      1.437      7.381
REMARK INTER + INTRA:          -8.150
REMARK INTER:                  -6.736
REMARK INTRA:                  -1.414
REMARK CONF_INDEPENDENT:        1.492
REMARK UNBOUND:                -1.414
REMARK  5 active torsions:
REMARK  status: ('A' for Active; 'I' for Inactive)
REMARK    1  A    between atoms: C_2  and  C_4 
REMARK    2  A    between atoms: C_4  and  C_5 
REMARK    3  A    between atoms: C_5  and  C_6 
REMARK       I    between atoms: C_6  and  N_8 
REMARK    4  A    between atoms: N_8  and  N_9 
REMARK       I    between atoms: N_9  and  C_10 
REMARK    5  A    between atoms: C_10  and  C_12 
ROOT
ATOM      1  C   UNL d   1      25.457 -17.773   0.045  0.00  0.00     0.236 C 
ATOM      2  O   UNL d   1      25.816 -18.946   0.147  0.00  0.00    -0.272 OA
ATOM      3  N   UNL d   1      24.147 -17.435  -0.243  0.00  0.00    -0.268 N 
ATOM      4  H   UNL d   1      23.801 -16.483  -0.353  0.00  0.00     0.190 HD
ENDROOT
BRANCH   3   5
ATOM      5  N   UNL d   1      23.211 -18.480  -0.381  0.00  0.00    -0.267 N 
ATOM      6  C   UNL d   1      21.908 -18.199  -0.731  0.00  0.00     0.240 C 
ATOM      7  O   UNL d   1      21.494 -17.051  -0.895  0.00  0.00    -0.271 OA
ATOM      8  H   UNL d   1      23.582 -19.423  -0.309  0.00  0.00     0.190 HD
BRANCH   6   9
ATOM      9  C   UNL d   1      20.963 -19.351  -0.908  0.00  0.00     0.083 A 
ATOM     10  C   UNL d   1      19.453 -19.257  -0.871  0.00  0.00     0.019 A 
ATOM     11  C   UNL d   1      20.185 -19.925   0.265  0.00  0.00    -0.005 A 
ATOM     12  C   UNL d   1      20.290 -19.322   1.624  0.00  0.00     0.011 C 
ENDBRANCH   6   9
ENDBRANCH   3   5
BRANCH   1  13
ATOM     13  C   UNL d   1      26.402 -16.592   0.210  0.00  0.00     0.105 C 
BRANCH  13  14
ATOM     14  C   UNL d   1      27.851 -16.972  -0.138  0.00  0.00     0.013 C 
BRANCH  14  15
ATOM     15  C   UNL d   1      28.541 -15.982  -1.095  0.00  0.00    -0.022 C 
ATOM     16  C   UNL d   1      28.939 -16.690  -2.394  0.00  0.00     0.009 C 
ATOM     17  C   UNL d   1      27.632 -14.799  -1.425  0.00  0.00     0.009 C 
ENDBRANCH  14  15
ENDBRANCH  13  14
ENDBRANCH   1  13
TORSDOF 5
ENDMDL
