MODEL 1
REMARK VINA RESULT:    -8.182      0.000      0.000
REMARK INTER + INTRA:         -13.105
REMARK INTER:                 -11.464
REMARK INTRA:                  -1.641
REMARK CONF_INDEPENDENT:        3.281
REMARK UNBOUND:                -1.641
REMARK  11 active torsions:
REMARK  status: ('A' for Active; 'I' for Inactive)
REMARK    1  A    between atoms: C_2  and  N_4 
REMARK    2  A    between atoms: N_4  and  C_5 
REMARK       I    between atoms: N_4  and  C_12 
REMARK    3  A    between atoms: C_5  and  C_6 
REMARK    4  A    between atoms: C_12  and  C_14 
REMARK    5  A    between atoms: C_14  and  N_15 
REMARK    6  A    between atoms: N_15  and  C_16 
REMARK    7  A    between atoms: C_18  and  N_19 
REMARK    8  A    between atoms: C_24  and  N_25 
REMARK    9  A    between atoms: N_25  and  C_26 
REMARK   10  A    between atoms: C_26  and  C_27 
REMARK   11  A    between atoms: C_27  and  O_28 
ROOT
ATOM      1  N   UNL d   1      27.648 -12.429   0.450  0.00  0.00    -0.379 N 
ATOM      2  H   UNL d   1      28.476 -12.213  -0.109  0.00  0.00     0.160 HD
ENDROOT
BRANCH   1   3
ATOM      3  C   UNL d   1      26.921 -13.636   0.058  0.00  0.00     0.223 C 
BRANCH   3   4
ATOM      4  C   UNL d   1      26.506 -13.821  -1.367  0.00  0.00     0.238 C 
ATOM      5  N   UNL d   1      26.153 -15.170  -1.763  0.00  0.00    -0.343 N 
ATOM      6  O   UNL d   1      26.654 -12.889  -2.173  0.00  0.00    -0.272 OA
BRANCH   5   7
ATOM      7  C   UNL d   1      25.651 -15.178  -3.159  0.00  0.00     0.079 C 
ATOM      8  C   UNL d   1      24.746 -14.073  -3.622  0.00  0.00     0.032 C 
ATOM      9  C   UNL d   1      26.808 -15.119  -4.151  0.00  0.00     0.032 C 
ENDBRANCH   5   7
BRANCH   5  10
ATOM     10  C   UNL d   1      26.158 -16.394  -0.809  0.00  0.00     0.164 C 
BRANCH  10  11
ATOM     11  C   UNL d   1      24.846 -17.083  -0.426  0.00  0.00    -0.040 C 
ATOM     12  C   UNL d   1      24.724 -18.473  -0.214  0.00  0.00     0.009 C 
ATOM     13  C   UNL d   1      23.486 -19.103  -0.485  0.00  0.00     0.001 C 
ATOM     14  C   UNL d   1      22.342 -18.346  -0.740  0.00  0.00     0.000 C 
ATOM     15  C   UNL d   1      22.425 -16.958  -0.713  0.00  0.00     0.001 C 
ATOM     16  C   UNL d   1      23.665 -16.330  -0.553  0.00  0.00     0.009 C 
ENDBRANCH  10  11
ENDBRANCH   5  10
ENDBRANCH   3   4
ENDBRANCH   1   3
BRANCH   1  17
ATOM     17  C   UNL d   1      27.533 -11.748   1.675  0.00  0.00     0.057 A 
ATOM     18  C   UNL d   1      26.793 -10.535   1.573  0.00  0.00     0.067 A 
ATOM     19  C   UNL d   1      26.607  -9.679   2.674  0.00  0.00     0.105 A 
ATOM     20  C   UNL d   1      27.060 -10.047   3.932  0.00  0.00     0.038 A 
ATOM     21  C   UNL d   1      27.808 -11.214   4.061  0.00  0.00     0.034 A 
ATOM     22  C   UNL d   1      28.095 -12.073   2.967  0.00  0.00     0.054 A 
BRANCH  19  23
ATOM     23  N   UNL d   1      26.017  -8.346   2.485  0.00  0.00    -0.116 N 
ATOM     24  O   UNL d   1      25.184  -8.194   1.594  0.00  0.00    -0.532 OA
ATOM     25  O   UNL d   1      26.428  -7.429   3.230  0.00  0.00    -0.532 OA
ENDBRANCH  19  23
BRANCH  22  26
ATOM     26  N   UNL d   1      29.096 -13.038   3.304  0.00  0.00    -0.386 N 
ATOM     27  H   UNL d   1      29.881 -12.649   3.817  0.00  0.00     0.159 HD
BRANCH  26  28
ATOM     28  C   UNL d   1      28.631 -14.292   3.803  0.00  0.00     0.146 C 
BRANCH  28  29
ATOM     29  C   UNL d   1      28.976 -14.836   5.170  0.00  0.00     0.183 C 
BRANCH  29  30
ATOM     30  O   UNL d   1      30.156 -14.226   5.729  0.00  0.00    -0.399 OA
ATOM     31  H   UNL d   1      30.906 -14.232   5.113  0.00  0.00     0.209 HD
ENDBRANCH  29  30
ENDBRANCH  28  29
ENDBRANCH  26  28
ENDBRANCH  22  26
ENDBRANCH   1  17
TORSDOF 11
ENDMDL
MODEL 2
REMARK VINA RESULT:    -7.848      1.370      1.485
REMARK INTER + INTRA:         -13.363
REMARK INTER:                 -11.129
REMARK INTRA:                  -2.234
REMARK CONF_INDEPENDENT:        3.281
REMARK UNBOUND:                -2.234
REMARK  11 active torsions:
REMARK  status: ('A' for Active; 'I' for Inactive)
REMARK    1  A    between atoms: C_2  and  N_4 
REMARK    2  A    between atoms: N_4  and  C_5 
REMARK       I    between atoms: N_4  and  C_12 
REMARK    3  A    between atoms: C_5  and  C_6 
REMARK    4  A    between atoms: C_12  and  C_14 
REMARK    5  A    between atoms: C_14  and  N_15 
REMARK    6  A    between atoms: N_15  and  C_16 
REMARK    7  A    between atoms: C_18  and  N_19 
REMARK    8  A    between atoms: C_24  and  N_25 
REMARK    9  A    between atoms: N_25  and  C_26 
REMARK   10  A    between atoms: C_26  and  C_27 
REMARK   11  A    between atoms: C_27  and  O_28 
ROOT
ATOM      1  N   UNL d   1      27.604 -13.621   1.003  0.00  0.00    -0.379 N 
ATOM      2  H   UNL d   1      28.502 -13.979   0.670  0.00  0.00     0.160 HD
ENDROOT
BRANCH   1   3
ATOM      3  C   UNL d   1      26.421 -14.201   0.366  0.00  0.00     0.223 C 
BRANCH   3   4
ATOM      4  C   UNL d   1      26.275 -14.139  -1.121  0.00  0.00     0.238 C 
ATOM      5  N   UNL d   1      26.044 -15.400  -1.797  0.00  0.00    -0.343 N 
ATOM      6  O   UNL d   1      26.535 -13.081  -1.717  0.00  0.00    -0.272 OA
BRANCH   5   7
ATOM      7  C   UNL d   1      25.800 -15.168  -3.242  0.00  0.00     0.079 C 
ATOM      8  C   UNL d   1      24.850 -14.086  -3.664  0.00  0.00     0.032 C 
ATOM      9  C   UNL d   1      27.095 -14.792  -3.956  0.00  0.00     0.032 C 
ENDBRANCH   5   7
BRANCH   5  10
ATOM     10  C   UNL d   1      25.918 -16.770  -1.079  0.00  0.00     0.164 C 
BRANCH  10  11
ATOM     11  C   UNL d   1      24.550 -17.284  -0.624  0.00  0.00    -0.040 C 
ATOM     12  C   UNL d   1      24.282 -18.636  -0.319  0.00  0.00     0.009 C 
ATOM     13  C   UNL d   1      22.976 -19.141  -0.523  0.00  0.00     0.001 C 
ATOM     14  C   UNL d   1      21.915 -18.279  -0.803  0.00  0.00     0.000 C 
ATOM     15  C   UNL d   1      22.150 -16.909  -0.868  0.00  0.00     0.001 C 
ATOM     16  C   UNL d   1      23.456 -16.414  -0.775  0.00  0.00     0.009 C 
ENDBRANCH  10  11
ENDBRANCH   5  10
ENDBRANCH   3   4
ENDBRANCH   1   3
BRANCH   1  17
ATOM     17  C   UNL d   1      27.632 -12.905   2.213  0.00  0.00     0.057 A 
ATOM     18  C   UNL d   1      26.964 -11.649   2.134  0.00  0.00     0.067 A 
ATOM     19  C   UNL d   1      26.923 -10.757   3.220  0.00  0.00     0.105 A 
ATOM     20  C   UNL d   1      27.452 -11.122   4.449  0.00  0.00     0.038 A 
ATOM     21  C   UNL d   1      28.132 -12.332   4.552  0.00  0.00     0.034 A 
ATOM     22  C   UNL d   1      28.275 -13.235   3.465  0.00  0.00     0.054 A 
BRANCH  19  23
ATOM     23  N   UNL d   1      26.405  -9.393   3.040  0.00  0.00    -0.116 N 
ATOM     24  O   UNL d   1      25.416  -9.230   2.327  0.00  0.00    -0.532 OA
ATOM     25  O   UNL d   1      27.028  -8.466   3.602  0.00  0.00    -0.532 OA
ENDBRANCH  19  23
BRANCH  22  26
ATOM     26  N   UNL d   1      29.237 -14.255   3.750  0.00  0.00    -0.386 N 
ATOM     27  H   UNL d   1      28.898 -15.195   3.572  0.00  0.00     0.159 HD
BRANCH  26  28
ATOM     28  C   UNL d   1      30.571 -14.016   3.302  0.00  0.00     0.146 C 
BRANCH  28  29
ATOM     29  C   UNL d   1      31.046 -14.275   1.891  0.00  0.00     0.183 C 
BRANCH  29  30
ATOM     30  O   UNL d   1      30.191 -15.188   1.176  0.00  0.00    -0.399 OA
ATOM     31  H   UNL d   1      29.850 -15.901   1.741  0.00  0.00     0.209 HD
ENDBRANCH  29  30
ENDBRANCH  28  29
ENDBRANCH  26  28
ENDBRANCH  22  26
ENDBRANCH   1  17
TORSDOF 11
ENDMDL
MODEL 3
REMARK VINA RESULT:    -7.077      1.694      2.136
REMARK INTER + INTRA:         -13.460
REMARK INTER:                 -10.359
REMARK INTRA:                  -3.101
REMARK CONF_INDEPENDENT:        3.281
REMARK UNBOUND:                -3.101
REMARK  11 active torsions:
REMARK  status: ('A' for Active; 'I' for Inactive)
REMARK    1  A    between atoms: C_2  and  N_4 
REMARK    2  A    between atoms: N_4  and  C_5 
REMARK       I    between atoms: N_4  and  C_12 
REMARK    3  A    between atoms: C_5  and  C_6 
REMARK    4  A    between atoms: C_12  and  C_14 
REMARK    5  A    between atoms: C_14  and  N_15 
REMARK    6  A    between atoms: N_15  and  C_16 
REMARK    7  A    between atoms: C_18  and  N_19 
REMARK    8  A    between atoms: C_24  and  N_25 
REMARK    9  A    between atoms: N_25  and  C_26 
REMARK   10  A    between atoms: C_26  and  C_27 
REMARK   11  A    between atoms: C_27  and  O_28 
ROOT
ATOM      1  N   UNL d   1      26.313 -12.942   0.780  0.00  0.00    -0.379 N 
ATOM      2  H   UNL d   1      26.272 -12.395  -0.083  0.00  0.00     0.160 HD
ENDROOT
BRANCH   1   3
ATOM      3  C   UNL d   1      26.283 -14.394   0.605  0.00  0.00     0.223 C 
BRANCH   3   4
ATOM      4  C   UNL d   1      27.457 -15.092  -0.003  0.00  0.00     0.238 C 
ATOM      5  N   UNL d   1      27.173 -15.975  -1.116  0.00  0.00    -0.343 N 
ATOM      6  O   UNL d   1      28.561 -15.038   0.564  0.00  0.00    -0.272 OA
BRANCH   5   7
ATOM      7  C   UNL d   1      28.438 -16.497  -1.689  0.00  0.00     0.079 C 
ATOM      8  C   UNL d   1      29.539 -15.539  -2.042  0.00  0.00     0.032 C 
ATOM      9  C   UNL d   1      29.115 -17.461  -0.719  0.00  0.00     0.032 C 
ENDBRANCH   5   7
BRANCH   5  10
ATOM     10  C   UNL d   1      25.760 -16.211  -1.711  0.00  0.00     0.164 C 
BRANCH  10  11
ATOM     11  C   UNL d   1      24.674 -16.899  -0.880  0.00  0.00    -0.040 C 
ATOM     12  C   UNL d   1      24.811 -18.191  -0.327  0.00  0.00     0.009 C 
ATOM     13  C   UNL d   1      23.654 -18.986  -0.145  0.00  0.00     0.001 C 
ATOM     14  C   UNL d   1      22.381 -18.436  -0.294  0.00  0.00     0.000 C 
ATOM     15  C   UNL d   1      22.255 -17.087  -0.613  0.00  0.00     0.001 C 
ATOM     16  C   UNL d   1      23.391 -16.323  -0.898  0.00  0.00     0.009 C 
ENDBRANCH  10  11
ENDBRANCH   5  10
ENDBRANCH   3   4
ENDBRANCH   1   3
BRANCH   1  17
ATOM     17  C   UNL d   1      26.720 -12.249   1.934  0.00  0.00     0.057 A 
ATOM     18  C   UNL d   1      26.305 -10.886   1.943  0.00  0.00     0.067 A 
ATOM     19  C   UNL d   1      26.655 -10.007   2.983  0.00  0.00     0.105 A 
ATOM     20  C   UNL d   1      27.339 -10.473   4.096  0.00  0.00     0.038 A 
ATOM     21  C   UNL d   1      27.780 -11.794   4.106  0.00  0.00     0.034 A 
ATOM     22  C   UNL d   1      27.526 -12.703   3.046  0.00  0.00     0.054 A 
BRANCH  19  23
ATOM     23  N   UNL d   1      26.384  -8.567   2.860  0.00  0.00    -0.116 N 
ATOM     24  O   UNL d   1      26.979  -7.792   3.606  0.00  0.00    -0.532 OA
ATOM     25  O   UNL d   1      25.531  -8.217   2.015  0.00  0.00    -0.532 OA
ENDBRANCH  19  23
BRANCH  22  26
ATOM     26  N   UNL d   1      28.310 -13.893   3.171  0.00  0.00    -0.386 N 
ATOM     27  H   UNL d   1      28.346 -14.448   2.322  0.00  0.00     0.159 HD
BRANCH  26  28
ATOM     28  C   UNL d   1      29.563 -13.762   3.842  0.00  0.00     0.146 C 
BRANCH  28  29
ATOM     29  C   UNL d   1      30.858 -14.353   3.333  0.00  0.00     0.183 C 
BRANCH  29  30
ATOM     30  O   UNL d   1      30.756 -14.826   1.976  0.00  0.00    -0.399 OA
ATOM     31  H   UNL d   1      30.180 -15.603   1.893  0.00  0.00     0.209 HD
ENDBRANCH  29  30
ENDBRANCH  28  29
ENDBRANCH  26  28
ENDBRANCH  22  26
ENDBRANCH   1  17
TORSDOF 11
ENDMDL
MODEL 4
REMARK VINA RESULT:    -6.916      1.602      2.119
REMARK INTER + INTRA:         -12.976
REMARK INTER:                 -10.197
REMARK INTRA:                  -2.779
REMARK CONF_INDEPENDENT:        3.281
REMARK UNBOUND:                -2.779
REMARK  11 active torsions:
REMARK  status: ('A' for Active; 'I' for Inactive)
REMARK    1  A    between atoms: C_2  and  N_4 
REMARK    2  A    between atoms: N_4  and  C_5 
REMARK       I    between atoms: N_4  and  C_12 
REMARK    3  A    between atoms: C_5  and  C_6 
REMARK    4  A    between atoms: C_12  and  C_14 
REMARK    5  A    between atoms: C_14  and  N_15 
REMARK    6  A    between atoms: N_15  and  C_16 
REMARK    7  A    between atoms: C_18  and  N_19 
REMARK    8  A    between atoms: C_24  and  N_25 
REMARK    9  A    between atoms: N_25  and  C_26 
REMARK   10  A    between atoms: C_26  and  C_27 
REMARK   11  A    between atoms: C_27  and  O_28 
ROOT
ATOM      1  N   UNL d   1      27.173 -13.682   0.515  0.00  0.00    -0.379 N 
ATOM      2  H   UNL d   1      27.230 -14.700   0.579  0.00  0.00     0.160 HD
ENDROOT
BRANCH   1   3
ATOM      3  C   UNL d   1      26.577 -13.161  -0.715  0.00  0.00     0.223 C 
BRANCH   3   4
ATOM      4  C   UNL d   1      27.110 -13.602  -2.041  0.00  0.00     0.238 C 
ATOM      5  N   UNL d   1      26.274 -14.513  -2.797  0.00  0.00    -0.343 N 
ATOM      6  O   UNL d   1      28.283 -13.334  -2.348  0.00  0.00    -0.272 OA
BRANCH   5   7
ATOM      7  C   UNL d   1      26.872 -14.765  -4.132  0.00  0.00     0.079 C 
ATOM      8  C   UNL d   1      28.159 -15.531  -4.230  0.00  0.00     0.032 C 
ATOM      9  C   UNL d   1      25.919 -15.573  -5.007  0.00  0.00     0.032 C 
ENDBRANCH   5   7
BRANCH   5  10
ATOM     10  C   UNL d   1      24.885 -15.021  -2.331  0.00  0.00     0.164 C 
BRANCH  10  11
ATOM     11  C   UNL d   1      24.774 -16.055  -1.207  0.00  0.00    -0.040 C 
ATOM     12  C   UNL d   1      25.888 -16.670  -0.596  0.00  0.00     0.009 C 
ATOM     13  C   UNL d   1      25.751 -17.978  -0.074  0.00  0.00     0.001 C 
ATOM     14  C   UNL d   1      24.493 -18.570   0.042  0.00  0.00     0.000 C 
ATOM     15  C   UNL d   1      23.365 -17.855  -0.351  0.00  0.00     0.001 C 
ATOM     16  C   UNL d   1      23.503 -16.606  -0.966  0.00  0.00     0.009 C 
ENDBRANCH  10  11
ENDBRANCH   5  10
ENDBRANCH   3   4
ENDBRANCH   1   3
BRANCH   1  17
ATOM     17  C   UNL d   1      27.355 -12.975   1.718  0.00  0.00     0.057 A 
ATOM     18  C   UNL d   1      26.632 -11.748   1.759  0.00  0.00     0.067 A 
ATOM     19  C   UNL d   1      26.720 -10.867   2.852  0.00  0.00     0.105 A 
ATOM     20  C   UNL d   1      27.444 -11.220   3.981  0.00  0.00     0.038 A 
ATOM     21  C   UNL d   1      28.182 -12.400   3.962  0.00  0.00     0.034 A 
ATOM     22  C   UNL d   1      28.195 -13.287   2.853  0.00  0.00     0.054 A 
BRANCH  19  23
ATOM     23  N   UNL d   1      26.125  -9.525   2.772  0.00  0.00    -0.116 N 
ATOM     24  O   UNL d   1      25.242  -9.323   1.940  0.00  0.00    -0.532 OA
ATOM     25  O   UNL d   1      26.580  -8.652   3.543  0.00  0.00    -0.532 OA
ENDBRANCH  19  23
BRANCH  22  26
ATOM     26  N   UNL d   1      29.230 -14.267   2.973  0.00  0.00    -0.386 N 
ATOM     27  H   UNL d   1      28.888 -15.192   3.215  0.00  0.00     0.159 HD
BRANCH  26  28
ATOM     28  C   UNL d   1      30.237 -14.258   1.963  0.00  0.00     0.146 C 
BRANCH  28  29
ATOM     29  C   UNL d   1      30.133 -15.016   0.660  0.00  0.00     0.183 C 
BRANCH  29  30
ATOM     30  O   UNL d   1      29.005 -15.913   0.629  0.00  0.00    -0.399 OA
ATOM     31  H   UNL d   1      29.099 -16.654   1.250  0.00  0.00     0.209 HD
ENDBRANCH  29  30
ENDBRANCH  28  29
ENDBRANCH  26  28
ENDBRANCH  22  26
ENDBRANCH   1  17
TORSDOF 11
ENDMDL
MODEL 5
REMARK VINA RESULT:    -6.762      2.818      4.610
REMARK INTER + INTRA:         -13.173
REMARK INTER:                 -10.043
REMARK INTRA:                  -3.130
REMARK CONF_INDEPENDENT:        3.281
REMARK UNBOUND:                -3.130
REMARK  11 active torsions:
REMARK  status: ('A' for Active; 'I' for Inactive)
REMARK    1  A    between atoms: C_2  and  N_4 
REMARK    2  A    between atoms: N_4  and  C_5 
REMARK       I    between atoms: N_4  and  C_12 
REMARK    3  A    between atoms: C_5  and  C_6 
REMARK    4  A    between atoms: C_12  and  C_14 
REMARK    5  A    between atoms: C_14  and  N_15 
REMARK    6  A    between atoms: N_15  and  C_16 
REMARK    7  A    between atoms: C_18  and  N_19 
REMARK    8  A    between atoms: C_24  and  N_25 
REMARK    9  A    between atoms: N_25  and  C_26 
REMARK   10  A    between atoms: C_26  and  C_27 
REMARK   11  A    between atoms: C_27  and  O_28 
ROOT
ATOM      1  N   UNL d   1      28.003 -11.510  -0.866  0.00  0.00    -0.379 N 
ATOM      2  H   UNL d   1      28.979 -11.588  -0.573  0.00  0.00     0.160 HD
ENDROOT
BRANCH   1   3
ATOM      3  C   UNL d   1      27.284 -12.777  -1.003  0.00  0.00     0.223 C 
BRANCH   3   4
ATOM      4  C   UNL d   1      26.586 -13.097  -2.286  0.00  0.00     0.238 C 
ATOM      5  N   UNL d   1      26.328 -14.500  -2.543  0.00  0.00    -0.343 N 
ATOM      6  O   UNL d   1      26.429 -12.206  -3.136  0.00  0.00    -0.272 OA
BRANCH   5   7
ATOM      7  C   UNL d   1      25.528 -14.653  -3.783  0.00  0.00     0.079 C 
ATOM      8  C   UNL d   1      24.397 -13.703  -4.054  0.00  0.00     0.032 C 
ATOM      9  C   UNL d   1      26.412 -14.502  -5.018  0.00  0.00     0.032 C 
ENDBRANCH   5   7
BRANCH   5  10
ATOM     10  C   UNL d   1      26.702 -15.653  -1.575  0.00  0.00     0.164 C 
BRANCH  10  11
ATOM     11  C   UNL d   1      25.612 -16.412  -0.814  0.00  0.00    -0.040 C 
ATOM     12  C   UNL d   1      25.873 -17.481   0.071  0.00  0.00     0.009 C 
ATOM     13  C   UNL d   1      24.898 -18.494   0.231  0.00  0.00     0.001 C 
ATOM     14  C   UNL d   1      23.615 -18.338  -0.294  0.00  0.00     0.000 C 
ATOM     15  C   UNL d   1      23.295 -17.164  -0.970  0.00  0.00     0.001 C 
ATOM     16  C   UNL d   1      24.283 -16.207  -1.225  0.00  0.00     0.009 C 
ENDBRANCH  10  11
ENDBRANCH   5  10
ENDBRANCH   3   4
ENDBRANCH   1   3
BRANCH   1  17
ATOM     17  C   UNL d   1      27.427 -10.231  -0.765  0.00  0.00     0.057 A 
ATOM     18  C   UNL d   1      27.021  -9.905   0.560  0.00  0.00     0.067 A 
ATOM     19  C   UNL d   1      26.375  -8.693   0.866  0.00  0.00     0.105 A 
ATOM     20  C   UNL d   1      26.204  -7.724  -0.111  0.00  0.00     0.038 A 
ATOM     21  C   UNL d   1      26.568  -8.021  -1.422  0.00  0.00     0.034 A 
ATOM     22  C   UNL d   1      27.149  -9.260  -1.801  0.00  0.00     0.054 A 
BRANCH  19  23
ATOM     23  N   UNL d   1      25.790  -8.479   2.198  0.00  0.00    -0.116 N 
ATOM     24  O   UNL d   1      26.301  -7.638   2.935  0.00  0.00    -0.532 OA
ATOM     25  O   UNL d   1      24.817  -9.197   2.516  0.00  0.00    -0.532 OA
ENDBRANCH  19  23
BRANCH  22  26
ATOM     26  N   UNL d   1      27.172  -9.419  -3.222  0.00  0.00    -0.386 N 
ATOM     27  H   UNL d   1      27.340 -10.374  -3.523  0.00  0.00     0.159 HD
BRANCH  26  28
ATOM     28  C   UNL d   1      26.152  -8.742  -3.956  0.00  0.00     0.146 C 
BRANCH  28  29
ATOM     29  C   UNL d   1      25.159  -9.438  -4.858  0.00  0.00     0.183 C 
BRANCH  29  30
ATOM     30  O   UNL d   1      25.560 -10.781  -5.193  0.00  0.00    -0.399 OA
ATOM     31  H   UNL d   1      25.105 -11.451  -4.659  0.00  0.00     0.209 HD
ENDBRANCH  29  30
ENDBRANCH  28  29
ENDBRANCH  26  28
ENDBRANCH  22  26
ENDBRANCH   1  17
TORSDOF 11
ENDMDL
MODEL 6
REMARK VINA RESULT:    -6.702      2.328      4.240
REMARK INTER + INTRA:         -12.456
REMARK INTER:                  -9.983
REMARK INTRA:                  -2.473
REMARK CONF_INDEPENDENT:        3.281
REMARK UNBOUND:                -2.473
REMARK  11 active torsions:
REMARK  status: ('A' for Active; 'I' for Inactive)
REMARK    1  A    between atoms: C_2  and  N_4 
REMARK    2  A    between atoms: N_4  and  C_5 
REMARK       I    between atoms: N_4  and  C_12 
REMARK    3  A    between atoms: C_5  and  C_6 
REMARK    4  A    between atoms: C_12  and  C_14 
REMARK    5  A    between atoms: C_14  and  N_15 
REMARK    6  A    between atoms: N_15  and  C_16 
REMARK    7  A    between atoms: C_18  and  N_19 
REMARK    8  A    between atoms: C_24  and  N_25 
REMARK    9  A    between atoms: N_25  and  C_26 
REMARK   10  A    between atoms: C_26  and  C_27 
REMARK   11  A    between atoms: C_27  and  O_28 
ROOT
ATOM      1  N   UNL d   1      28.453 -16.173   0.584  0.00  0.00    -0.379 N 
ATOM      2  H   UNL d   1      29.125 -16.629   1.205  0.00  0.00     0.160 HD
ENDROOT
BRANCH   1   3
ATOM      3  C   UNL d   1      27.771 -17.057  -0.362  0.00  0.00     0.223 C 
BRANCH   3   4
ATOM      4  C   UNL d   1      26.387 -17.536  -0.063  0.00  0.00     0.238 C 
ATOM      5  N   UNL d   1      25.309 -16.621  -0.382  0.00  0.00    -0.343 N 
ATOM      6  O   UNL d   1      26.228 -18.577   0.594  0.00  0.00    -0.272 OA
BRANCH   5   7
ATOM      7  C   UNL d   1      23.998 -17.275  -0.146  0.00  0.00     0.079 C 
ATOM      8  C   UNL d   1      22.736 -16.550  -0.517  0.00  0.00     0.032 C 
ATOM      9  C   UNL d   1      23.894 -18.578  -0.932  0.00  0.00     0.032 C 
ENDBRANCH   5   7
BRANCH   5  10
ATOM     10  C   UNL d   1      25.506 -15.222  -1.022  0.00  0.00     0.164 C 
BRANCH  10  11
ATOM     11  C   UNL d   1      25.647 -15.076  -2.540  0.00  0.00    -0.040 C 
ATOM     12  C   UNL d   1      26.743 -15.575  -3.276  0.00  0.00     0.009 C 
ATOM     13  C   UNL d   1      27.132 -14.912  -4.464  0.00  0.00     0.001 C 
ATOM     14  C   UNL d   1      26.323 -13.923  -5.025  0.00  0.00     0.000 C 
ATOM     15  C   UNL d   1      25.117 -13.601  -4.411  0.00  0.00     0.001 C 
ATOM     16  C   UNL d   1      24.778 -14.175  -3.181  0.00  0.00     0.009 C 
ENDBRANCH  10  11
ENDBRANCH   5  10
ENDBRANCH   3   4
ENDBRANCH   1   3
BRANCH   1  17
ATOM     17  C   UNL d   1      28.051 -14.876   0.951  0.00  0.00     0.057 A 
ATOM     18  C   UNL d   1      28.086 -13.953  -0.133  0.00  0.00     0.067 A 
ATOM     19  C   UNL d   1      27.771 -12.593   0.035  0.00  0.00     0.105 A 
ATOM     20  C   UNL d   1      27.314 -12.124   1.257  0.00  0.00     0.038 A 
ATOM     21  C   UNL d   1      27.292 -12.995   2.343  0.00  0.00     0.034 A 
ATOM     22  C   UNL d   1      27.677 -14.359   2.249  0.00  0.00     0.054 A 
BRANCH  19  23
ATOM     23  N   UNL d   1      28.014 -11.635  -1.054  0.00  0.00    -0.116 N 
ATOM     24  O   UNL d   1      27.045 -11.116  -1.606  0.00  0.00    -0.532 OA
ATOM     25  O   UNL d   1      29.204 -11.429  -1.378  0.00  0.00    -0.532 OA
ENDBRANCH  19  23
BRANCH  22  26
ATOM     26  N   UNL d   1      27.827 -14.955   3.541  0.00  0.00    -0.386 N 
ATOM     27  H   UNL d   1      28.428 -15.774   3.544  0.00  0.00     0.159 HD
BRANCH  26  28
ATOM     28  C   UNL d   1      28.043 -14.063   4.633  0.00  0.00     0.146 C 
BRANCH  28  29
ATOM     29  C   UNL d   1      29.218 -14.156   5.579  0.00  0.00     0.183 C 
BRANCH  29  30
ATOM     30  O   UNL d   1      30.023 -15.329   5.351  0.00  0.00    -0.399 OA
ATOM     31  H   UNL d   1      29.623 -15.938   4.709  0.00  0.00     0.209 HD
ENDBRANCH  29  30
ENDBRANCH  28  29
ENDBRANCH  26  28
ENDBRANCH  22  26
ENDBRANCH   1  17
TORSDOF 11
ENDMDL
MODEL 7
REMARK VINA RESULT:    -6.597      2.046      4.137
REMARK INTER + INTRA:         -12.613
REMARK INTER:                  -9.879
REMARK INTRA:                  -2.735
REMARK CONF_INDEPENDENT:        3.281
REMARK UNBOUND:                -2.735
REMARK  11 active torsions:
REMARK  status: ('A' for Active; 'I' for Inactive)
REMARK    1  A    between atoms: C_2  and  N_4 
REMARK    2  A    between atoms: N_4  and  C_5 
REMARK       I    between atoms: N_4  and  C_12 
REMARK    3  A    between atoms: C_5  and  C_6 
REMARK    4  A    between atoms: C_12  and  C_14 
REMARK    5  A    between atoms: C_14  and  N_15 
REMARK    6  A    between atoms: N_15  and  C_16 
REMARK    7  A    between atoms: C_18  and  N_19 
REMARK    8  A    between atoms: C_24  and  N_25 
REMARK    9  A    between atoms: N_25  and  C_26 
REMARK   10  A    between atoms: C_26  and  C_27 
REMARK   11  A    between atoms: C_27  and  O_28 
ROOT
ATOM      1  N   UNL d   1      26.816 -13.339   1.629  0.00  0.00    -0.379 N 
ATOM      2  H   UNL d   1      25.858 -13.605   1.866  0.00  0.00     0.160 HD
ENDROOT
BRANCH   1   3
ATOM      3  C   UNL d   1      27.807 -14.413   1.718  0.00  0.00     0.223 C 
BRANCH   3   4
ATOM      4  C   UNL d   1      28.626 -14.765   0.518  0.00  0.00     0.238 C 
ATOM      5  N   UNL d   1      28.390 -16.074  -0.059  0.00  0.00    -0.343 N 
ATOM      6  O   UNL d   1      29.572 -14.032   0.186  0.00  0.00    -0.272 OA
BRANCH   5   7
ATOM      7  C   UNL d   1      29.181 -16.233  -1.304  0.00  0.00     0.079 C 
ATOM      8  C   UNL d   1      30.027 -17.460  -1.487  0.00  0.00     0.032 C 
ATOM      9  C   UNL d   1      28.267 -16.256  -2.526  0.00  0.00     0.032 C 
ENDBRANCH   5   7
BRANCH   5  10
ATOM     10  C   UNL d   1      27.345 -17.090   0.471  0.00  0.00     0.164 C 
BRANCH  10  11
ATOM     11  C   UNL d   1      26.023 -17.302  -0.272  0.00  0.00    -0.040 C 
ATOM     12  C   UNL d   1      25.392 -16.305  -1.047  0.00  0.00     0.009 C 
ATOM     13  C   UNL d   1      23.982 -16.317  -1.165  0.00  0.00     0.001 C 
ATOM     14  C   UNL d   1      23.238 -17.409  -0.718  0.00  0.00     0.000 C 
ATOM     15  C   UNL d   1      23.899 -18.500  -0.162  0.00  0.00     0.001 C 
ATOM     16  C   UNL d   1      25.280 -18.450   0.056  0.00  0.00     0.009 C 
ENDBRANCH  10  11
ENDBRANCH   5  10
ENDBRANCH   3   4
ENDBRANCH   1   3
BRANCH   1  17
ATOM     17  C   UNL d   1      26.970 -12.117   0.952  0.00  0.00     0.057 A 
ATOM     18  C   UNL d   1      26.620 -10.989   1.749  0.00  0.00     0.067 A 
ATOM     19  C   UNL d   1      26.654  -9.678   1.241  0.00  0.00     0.105 A 
ATOM     20  C   UNL d   1      27.133  -9.432  -0.037  0.00  0.00     0.038 A 
ATOM     21  C   UNL d   1      27.461 -10.514  -0.849  0.00  0.00     0.034 A 
ATOM     22  C   UNL d   1      27.368 -11.863  -0.415  0.00  0.00     0.054 A 
BRANCH  19  23
ATOM     23  N   UNL d   1      26.093  -8.565   2.022  0.00  0.00    -0.116 N 
ATOM     24  O   UNL d   1      26.352  -8.502   3.223  0.00  0.00    -0.532 OA
ATOM     25  O   UNL d   1      25.351  -7.760   1.418  0.00  0.00    -0.532 OA
ENDBRANCH  19  23
BRANCH  22  26
ATOM     26  N   UNL d   1      27.492 -12.778  -1.508  0.00  0.00    -0.386 N 
ATOM     27  H   UNL d   1      27.992 -13.630  -1.271  0.00  0.00     0.159 HD
BRANCH  26  28
ATOM     28  C   UNL d   1      26.325 -12.983  -2.304  0.00  0.00     0.146 C 
BRANCH  28  29
ATOM     29  C   UNL d   1      26.331 -13.678  -3.646  0.00  0.00     0.183 C 
BRANCH  29  30
ATOM     30  O   UNL d   1      25.135 -14.448  -3.877  0.00  0.00    -0.399 OA
ATOM     31  H   UNL d   1      24.390 -13.901  -4.174  0.00  0.00     0.209 HD
ENDBRANCH  29  30
ENDBRANCH  28  29
ENDBRANCH  26  28
ENDBRANCH  22  26
ENDBRANCH   1  17
TORSDOF 11
ENDMDL
MODEL 8
REMARK VINA RESULT:    -6.542      1.891      3.638
REMARK INTER + INTRA:         -13.280
REMARK INTER:                  -9.823
REMARK INTRA:                  -3.457
REMARK CONF_INDEPENDENT:        3.281
REMARK UNBOUND:                -3.457
REMARK  11 active torsions:
REMARK  status: ('A' for Active; 'I' for Inactive)
REMARK    1  A    between atoms: C_2  and  N_4 
REMARK    2  A    between atoms: N_4  and  C_5 
REMARK       I    between atoms: N_4  and  C_12 
REMARK    3  A    between atoms: C_5  and  C_6 
REMARK    4  A    between atoms: C_12  and  C_14 
REMARK    5  A    between atoms: C_14  and  N_15 
REMARK    6  A    between atoms: N_15  and  C_16 
REMARK    7  A    between atoms: C_18  and  N_19 
REMARK    8  A    between atoms: C_24  and  N_25 
REMARK    9  A    between atoms: N_25  and  C_26 
REMARK   10  A    between atoms: C_26  and  C_27 
REMARK   11  A    between atoms: C_27  and  O_28 
ROOT
ATOM      1  N   UNL d   1      26.662 -13.214   0.363  0.00  0.00    -0.379 N 
ATOM      2  H   UNL d   1      26.120 -12.654  -0.299  0.00  0.00     0.160 HD
ENDROOT
BRANCH   1   3
ATOM      3  C   UNL d   1      27.284 -14.416  -0.192  0.00  0.00     0.223 C 
BRANCH   3   4
ATOM      4  C   UNL d   1      26.862 -15.763   0.301  0.00  0.00     0.238 C 
ATOM      5  N   UNL d   1      25.635 -16.295  -0.258  0.00  0.00    -0.343 N 
ATOM      6  O   UNL d   1      27.450 -16.272   1.268  0.00  0.00    -0.272 OA
BRANCH   5   7
ATOM      7  C   UNL d   1      25.410 -17.679   0.230  0.00  0.00     0.079 C 
ATOM      8  C   UNL d   1      24.231 -18.457  -0.280  0.00  0.00     0.032 C 
ATOM      9  C   UNL d   1      26.595 -18.575  -0.118  0.00  0.00     0.032 C 
ENDBRANCH   5   7
BRANCH   5  10
ATOM     10  C   UNL d   1      24.774 -15.575  -1.328  0.00  0.00     0.164 C 
BRANCH  10  11
ATOM     11  C   UNL d   1      25.382 -15.180  -2.676  0.00  0.00    -0.040 C 
ATOM     12  C   UNL d   1      26.638 -15.636  -3.133  0.00  0.00     0.009 C 
ATOM     13  C   UNL d   1      27.394 -14.811  -4.000  0.00  0.00     0.001 C 
ATOM     14  C   UNL d   1      26.827 -13.674  -4.576  0.00  0.00     0.000 C 
ATOM     15  C   UNL d   1      25.500 -13.361  -4.300  0.00  0.00     0.001 C 
ATOM     16  C   UNL d   1      24.780 -14.110  -3.362  0.00  0.00     0.009 C 
ENDBRANCH  10  11
ENDBRANCH   5  10
ENDBRANCH   3   4
ENDBRANCH   1   3
BRANCH   1  17
ATOM     17  C   UNL d   1      26.996 -12.586   1.576  0.00  0.00     0.057 A 
ATOM     18  C   UNL d   1      26.403 -11.299   1.721  0.00  0.00     0.067 A 
ATOM     19  C   UNL d   1      26.653 -10.484   2.840  0.00  0.00     0.105 A 
ATOM     20  C   UNL d   1      27.415 -10.959   3.897  0.00  0.00     0.038 A 
ATOM     21  C   UNL d   1      28.030 -12.202   3.776  0.00  0.00     0.034 A 
ATOM     22  C   UNL d   1      27.877 -13.032   2.633  0.00  0.00     0.054 A 
BRANCH  19  23
ATOM     23  N   UNL d   1      26.190  -9.089   2.860  0.00  0.00    -0.116 N 
ATOM     24  O   UNL d   1      26.757  -8.293   3.606  0.00  0.00    -0.532 OA
ATOM     25  O   UNL d   1      25.215  -8.801   2.132  0.00  0.00    -0.532 OA
ENDBRANCH  19  23
BRANCH  22  26
ATOM     26  N   UNL d   1      28.816 -14.111   2.636  0.00  0.00    -0.386 N 
ATOM     27  H   UNL d   1      28.414 -15.001   2.358  0.00  0.00     0.159 HD
BRANCH  26  28
ATOM     28  C   UNL d   1      30.098 -13.843   2.070  0.00  0.00     0.146 C 
BRANCH  28  29
ATOM     29  C   UNL d   1      30.825 -14.788   1.141  0.00  0.00     0.183 C 
BRANCH  29  30
ATOM     30  O   UNL d   1      29.963 -15.812   0.606  0.00  0.00    -0.399 OA
ATOM     31  H   UNL d   1      29.615 -16.404   1.292  0.00  0.00     0.209 HD
ENDBRANCH  29  30
ENDBRANCH  28  29
ENDBRANCH  26  28
ENDBRANCH  22  26
ENDBRANCH   1  17
TORSDOF 11
ENDMDL
