MODEL 1
REMARK VINA RESULT:   -11.102      0.000      0.000
REMARK INTER + INTRA:         -18.124
REMARK INTER:                 -14.383
REMARK INTRA:                  -3.740
REMARK CONF_INDEPENDENT:        3.281
REMARK UNBOUND:                -3.740
REMARK  11 active torsions:
REMARK  status: ('A' for Active; 'I' for Inactive)
REMARK       I    between atoms: C_2  and  N_3 
REMARK    1  A    between atoms: C_2  and  C_25 
REMARK    2  A    between atoms: N_3  and  N_4 
REMARK    3  A    between atoms: N_4  and  C_5 
REMARK    4  A    between atoms: C_5  and  N_7 
REMARK       I    between atoms: N_7  and  C_8 
REMARK    5  A    between atoms: C_8  and  C_10 
REMARK    6  A    between atoms: C_15  and  O_16 
REMARK    7  A    between atoms: O_16  and  C_17 
REMARK    8  A    between atoms: C_17  and  C_18 
REMARK    9  A    between atoms: C_18  and  C_19 
REMARK   10  A    between atoms: C_28  and  N_29 
REMARK       I    between atoms: N_29  and  C_30 
REMARK   11  A    between atoms: C_30  and  C_32 
ROOT
ATOM      1  C   UNL d   1      29.634 -16.924  -1.094  0.00  0.00     0.193 C 
ATOM      2  S   UNL d   1      31.098 -17.754  -0.984  0.00  0.00    -0.039 SA
ENDROOT
BRANCH   1   3
ATOM      3  N   UNL d   1      28.750 -16.921   0.016  0.00  0.00    -0.273 N 
ATOM      4  H   UNL d   1      29.050 -17.066   0.979  0.00  0.00     0.189 HD
BRANCH   3   5
ATOM      5  N   UNL d   1      27.363 -17.374  -0.200  0.00  0.00    -0.264 N 
ATOM      6  C   UNL d   1      26.415 -16.555  -0.796  0.00  0.00     0.270 C 
ATOM      7  O   UNL d   1      26.684 -15.456  -1.286  0.00  0.00    -0.266 OA
ATOM      8  H   UNL d   1      27.090 -18.198   0.331  0.00  0.00     0.190 HD
BRANCH   6   9
ATOM      9  C   UNL d   1      25.011 -17.058  -0.888  0.00  0.00     0.033 C 
ATOM     10  C   UNL d   1      23.842 -16.315  -1.119  0.00  0.00     0.019 C 
ATOM     11  C   UNL d   1      22.590 -16.856  -0.748  0.00  0.00     0.030 C 
ATOM     12  C   UNL d   1      22.511 -18.160  -0.236  0.00  0.00     0.034 C 
ATOM     13  C   UNL d   1      23.683 -18.904  -0.139  0.00  0.00     0.030 C 
ATOM     14  C   UNL d   1      24.904 -18.387  -0.511  0.00  0.00     0.019 C 
BRANCH  12  15
ATOM     15  N   UNL d   1      21.274 -18.724   0.154  0.00  0.00    -0.327 N 
ATOM     16  C   UNL d   1      20.431 -19.414  -0.696  0.00  0.00     0.226 C 
ATOM     17  O   UNL d   1      20.601 -19.668  -1.896  0.00  0.00    -0.273 OA
ATOM     18  H   UNL d   1      20.967 -18.569   1.108  0.00  0.00     0.169 HD
BRANCH  16  19
ATOM     19  C   UNL d   1      19.154 -19.879  -0.133  0.00  0.00     0.078 A 
ATOM     20  C   UNL d   1      19.175 -21.199   0.618  0.00  0.00     0.015 A 
ATOM     21  C   UNL d   1      18.857 -19.920   1.337  0.00  0.00     0.015 A 
ENDBRANCH  16  19
ENDBRANCH  12  15
ENDBRANCH   6   9
ENDBRANCH   3   5
ENDBRANCH   1   3
BRANCH   1  22
ATOM     22  N   UNL d   1      29.175 -16.241  -2.262  0.00  0.00    -0.298 N 
ATOM     23  C   UNL d   1      29.773 -16.260  -3.567  0.00  0.00     0.260 C 
ATOM     24  O   UNL d   1      30.563 -17.126  -3.938  0.00  0.00    -0.267 OA
ATOM     25  H   UNL d   1      28.447 -15.554  -2.128  0.00  0.00     0.171 HD
BRANCH  23  26
ATOM     26  C   UNL d   1      29.424 -15.246  -4.644  0.00  0.00     0.065 A 
ATOM     27  C   UNL d   1      30.301 -14.131  -4.690  0.00  0.00     0.020 A 
ATOM     28  C   UNL d   1      30.036 -12.993  -5.470  0.00  0.00     0.001 A 
ATOM     29  C   UNL d   1      28.912 -12.961  -6.282  0.00  0.00     0.003 A 
ATOM     30  C   UNL d   1      28.011 -14.021  -6.229  0.00  0.00     0.038 A 
ATOM     31  C   UNL d   1      28.221 -15.139  -5.384  0.00  0.00     0.084 A 
BRANCH  31  32
ATOM     32  O   UNL d   1      27.103 -15.943  -5.379  0.00  0.00    -0.350 OA
BRANCH  32  33
ATOM     33  C   UNL d   1      25.881 -15.256  -5.248  0.00  0.00     0.180 C 
BRANCH  33  34
ATOM     34  C   UNL d   1      25.555 -14.866  -3.825  0.00  0.00     0.065 C 
BRANCH  34  35
ATOM     35  C   UNL d   1      25.781 -13.398  -3.609  0.00  0.00    -0.056 C 
ATOM     36  C   UNL d   1      25.528 -12.581  -4.689  0.00  0.00     0.007 C 
ATOM     37  C   UNL d   1      25.964 -11.277  -4.664  0.00  0.00     0.001 C 
ATOM     38  C   UNL d   1      26.410 -10.663  -3.509  0.00  0.00     0.000 C 
ATOM     39  C   UNL d   1      26.654 -11.462  -2.413  0.00  0.00     0.001 C 
ATOM     40  C   UNL d   1      26.367 -12.835  -2.472  0.00  0.00     0.007 C 
ENDBRANCH  34  35
ENDBRANCH  33  34
ENDBRANCH  32  33
ENDBRANCH  31  32
ENDBRANCH  23  26
ENDBRANCH   1  22
TORSDOF 11
ENDMDL
MODEL 2
REMARK VINA RESULT:   -11.002      1.582      2.312
REMARK INTER + INTRA:         -17.809
REMARK INTER:                 -14.284
REMARK INTRA:                  -3.525
REMARK CONF_INDEPENDENT:        3.281
REMARK UNBOUND:                -3.525
REMARK  11 active torsions:
REMARK  status: ('A' for Active; 'I' for Inactive)
REMARK       I    between atoms: C_2  and  N_3 
REMARK    1  A    between atoms: C_2  and  C_25 
REMARK    2  A    between atoms: N_3  and  N_4 
REMARK    3  A    between atoms: N_4  and  C_5 
REMARK    4  A    between atoms: C_5  and  N_7 
REMARK       I    between atoms: N_7  and  C_8 
REMARK    5  A    between atoms: C_8  and  C_10 
REMARK    6  A    between atoms: C_15  and  O_16 
REMARK    7  A    between atoms: O_16  and  C_17 
REMARK    8  A    between atoms: C_17  and  C_18 
REMARK    9  A    between atoms: C_18  and  C_19 
REMARK   10  A    between atoms: C_28  and  N_29 
REMARK       I    between atoms: N_29  and  C_30 
REMARK   11  A    between atoms: C_30  and  C_32 
ROOT
ATOM      1  C   UNL d   1      29.385 -16.143  -0.899  0.00  0.00     0.193 C 
ATOM      2  S   UNL d   1      30.136 -14.731  -0.364  0.00  0.00    -0.039 SA
ENDROOT
BRANCH   1   3
ATOM      3  N   UNL d   1      28.826 -17.037   0.050  0.00  0.00    -0.273 N 
ATOM      4  H   UNL d   1      29.369 -17.734   0.559  0.00  0.00     0.189 HD
BRANCH   3   5
ATOM      5  N   UNL d   1      27.426 -17.463  -0.137  0.00  0.00    -0.264 N 
ATOM      6  C   UNL d   1      26.546 -16.739  -0.929  0.00  0.00     0.270 C 
ATOM      7  O   UNL d   1      26.892 -15.775  -1.615  0.00  0.00    -0.266 OA
ATOM      8  H   UNL d   1      27.091 -18.149   0.534  0.00  0.00     0.190 HD
BRANCH   6   9
ATOM      9  C   UNL d   1      25.122 -17.188  -0.985  0.00  0.00     0.033 C 
ATOM     10  C   UNL d   1      23.984 -16.413  -1.263  0.00  0.00     0.019 C 
ATOM     11  C   UNL d   1      22.712 -16.875  -0.856  0.00  0.00     0.030 C 
ATOM     12  C   UNL d   1      22.581 -18.137  -0.258  0.00  0.00     0.034 C 
ATOM     13  C   UNL d   1      23.721 -18.922  -0.113  0.00  0.00     0.030 C 
ATOM     14  C   UNL d   1      24.961 -18.483  -0.520  0.00  0.00     0.019 C 
BRANCH  12  15
ATOM     15  N   UNL d   1      21.323 -18.621   0.171  0.00  0.00    -0.327 N 
ATOM     16  C   UNL d   1      20.450 -19.334  -0.630  0.00  0.00     0.226 C 
ATOM     17  O   UNL d   1      20.605 -19.677  -1.809  0.00  0.00    -0.273 OA
ATOM     18  H   UNL d   1      21.025 -18.389   1.112  0.00  0.00     0.169 HD
BRANCH  16  19
ATOM     19  C   UNL d   1      19.156 -19.705  -0.035  0.00  0.00     0.078 A 
ATOM     20  C   UNL d   1      19.065 -21.079   0.607  0.00  0.00     0.015 A 
ATOM     21  C   UNL d   1      18.925 -19.838   1.441  0.00  0.00     0.015 A 
ENDBRANCH  16  19
ENDBRANCH  12  15
ENDBRANCH   6   9
ENDBRANCH   3   5
ENDBRANCH   1   3
BRANCH   1  22
ATOM     22  N   UNL d   1      29.301 -16.548  -2.267  0.00  0.00    -0.298 N 
ATOM     23  C   UNL d   1      30.141 -17.494  -2.944  0.00  0.00     0.260 C 
ATOM     24  O   UNL d   1      30.827 -18.330  -2.359  0.00  0.00    -0.267 OA
ATOM     25  H   UNL d   1      28.690 -16.006  -2.862  0.00  0.00     0.171 HD
BRANCH  23  26
ATOM     26  C   UNL d   1      30.200 -17.603  -4.459  0.00  0.00     0.065 A 
ATOM     27  C   UNL d   1      30.628 -18.872  -4.927  0.00  0.00     0.020 A 
ATOM     28  C   UNL d   1      30.943 -19.113  -6.275  0.00  0.00     0.001 A 
ATOM     29  C   UNL d   1      30.778 -18.104  -7.212  0.00  0.00     0.003 A 
ATOM     30  C   UNL d   1      30.400 -16.836  -6.778  0.00  0.00     0.038 A 
ATOM     31  C   UNL d   1      30.159 -16.555  -5.410  0.00  0.00     0.084 A 
BRANCH  31  32
ATOM     32  O   UNL d   1      29.989 -15.200  -5.230  0.00  0.00    -0.350 OA
BRANCH  32  33
ATOM     33  C   UNL d   1      28.970 -14.623  -6.011  0.00  0.00     0.180 C 
BRANCH  33  34
ATOM     34  C   UNL d   1      27.600 -15.199  -5.742  0.00  0.00     0.065 C 
BRANCH  34  35
ATOM     35  C   UNL d   1      26.950 -14.508  -4.578  0.00  0.00    -0.056 C 
ATOM     36  C   UNL d   1      25.573 -14.545  -4.545  0.00  0.00     0.007 C 
ATOM     37  C   UNL d   1      24.898 -13.716  -3.679  0.00  0.00     0.001 C 
ATOM     38  C   UNL d   1      25.530 -13.039  -2.653  0.00  0.00     0.000 C 
ATOM     39  C   UNL d   1      26.907 -13.004  -2.661  0.00  0.00     0.001 C 
ATOM     40  C   UNL d   1      27.617 -13.714  -3.642  0.00  0.00     0.007 C 
ENDBRANCH  34  35
ENDBRANCH  33  34
ENDBRANCH  32  33
ENDBRANCH  31  32
ENDBRANCH  23  26
ENDBRANCH   1  22
TORSDOF 11
ENDMDL
MODEL 3
REMARK VINA RESULT:   -10.744      2.647      4.048
REMARK INTER + INTRA:         -18.035
REMARK INTER:                 -14.025
REMARK INTRA:                  -4.010
REMARK CONF_INDEPENDENT:        3.281
REMARK UNBOUND:                -4.010
REMARK  11 active torsions:
REMARK  status: ('A' for Active; 'I' for Inactive)
REMARK       I    between atoms: C_2  and  N_3 
REMARK    1  A    between atoms: C_2  and  C_25 
REMARK    2  A    between atoms: N_3  and  N_4 
REMARK    3  A    between atoms: N_4  and  C_5 
REMARK    4  A    between atoms: C_5  and  N_7 
REMARK       I    between atoms: N_7  and  C_8 
REMARK    5  A    between atoms: C_8  and  C_10 
REMARK    6  A    between atoms: C_15  and  O_16 
REMARK    7  A    between atoms: O_16  and  C_17 
REMARK    8  A    between atoms: C_17  and  C_18 
REMARK    9  A    between atoms: C_18  and  C_19 
REMARK   10  A    between atoms: C_28  and  N_29 
REMARK       I    between atoms: N_29  and  C_30 
REMARK   11  A    between atoms: C_30  and  C_32 
ROOT
ATOM      1  C   UNL d   1      25.821 -12.875  -3.913  0.00  0.00     0.193 C 
ATOM      2  S   UNL d   1      25.799 -11.190  -3.857  0.00  0.00    -0.039 SA
ENDROOT
BRANCH   1   3
ATOM      3  N   UNL d   1      24.604 -13.583  -4.085  0.00  0.00    -0.273 N 
ATOM      4  H   UNL d   1      23.824 -13.240  -4.646  0.00  0.00     0.189 HD
BRANCH   3   5
ATOM      5  N   UNL d   1      24.147 -14.455  -2.987  0.00  0.00    -0.264 N 
ATOM      6  C   UNL d   1      24.865 -15.579  -2.604  0.00  0.00     0.270 C 
ATOM      7  O   UNL d   1      25.975 -15.859  -3.063  0.00  0.00    -0.266 OA
ATOM      8  H   UNL d   1      23.176 -14.331  -2.713  0.00  0.00     0.190 HD
BRANCH   6   9
ATOM      9  C   UNL d   1      24.280 -16.459  -1.548  0.00  0.00     0.033 C 
ATOM     10  C   UNL d   1      24.797 -17.665  -1.047  0.00  0.00     0.019 C 
ATOM     11  C   UNL d   1      23.934 -18.572  -0.392  0.00  0.00     0.030 C 
ATOM     12  C   UNL d   1      22.592 -18.228  -0.166  0.00  0.00     0.034 C 
ATOM     13  C   UNL d   1      22.155 -16.970  -0.572  0.00  0.00     0.030 C 
ATOM     14  C   UNL d   1      22.995 -16.077  -1.199  0.00  0.00     0.019 C 
BRANCH  12  15
ATOM     15  N   UNL d   1      21.702 -19.119   0.477  0.00  0.00    -0.327 N 
ATOM     16  C   UNL d   1      20.657 -19.766  -0.157  0.00  0.00     0.226 C 
ATOM     17  O   UNL d   1      20.332 -19.700  -1.350  0.00  0.00    -0.273 OA
ATOM     18  H   UNL d   1      21.810 -19.254   1.475  0.00  0.00     0.169 HD
BRANCH  16  19
ATOM     19  C   UNL d   1      19.793 -20.611   0.682  0.00  0.00     0.078 A 
ATOM     20  C   UNL d   1      18.753 -19.900   1.531  0.00  0.00     0.015 A 
ATOM     21  C   UNL d   1      18.331 -20.823   0.424  0.00  0.00     0.015 A 
ENDBRANCH  16  19
ENDBRANCH  12  15
ENDBRANCH   6   9
ENDBRANCH   3   5
ENDBRANCH   1   3
BRANCH   1  22
ATOM     22  N   UNL d   1      26.994 -13.676  -3.753  0.00  0.00    -0.298 N 
ATOM     23  C   UNL d   1      27.816 -14.227  -4.792  0.00  0.00     0.260 C 
ATOM     24  O   UNL d   1      27.817 -13.808  -5.948  0.00  0.00    -0.267 OA
ATOM     25  H   UNL d   1      27.183 -14.021  -2.822  0.00  0.00     0.171 HD
BRANCH  23  26
ATOM     26  C   UNL d   1      28.826 -15.335  -4.540  0.00  0.00     0.065 A 
ATOM     27  C   UNL d   1      29.315 -15.947  -5.723  0.00  0.00     0.020 A 
ATOM     28  C   UNL d   1      30.093 -17.116  -5.703  0.00  0.00     0.001 A 
ATOM     29  C   UNL d   1      30.461 -17.678  -4.490  0.00  0.00     0.003 A 
ATOM     30  C   UNL d   1      29.963 -17.126  -3.312  0.00  0.00     0.038 A 
ATOM     31  C   UNL d   1      29.109 -15.996  -3.320  0.00  0.00     0.084 A 
BRANCH  31  32
ATOM     32  O   UNL d   1      28.613 -15.771  -2.054  0.00  0.00    -0.350 OA
BRANCH  32  33
ATOM     33  C   UNL d   1      28.126 -16.917  -1.398  0.00  0.00     0.180 C 
BRANCH  33  34
ATOM     34  C   UNL d   1      27.916 -16.723   0.085  0.00  0.00     0.065 C 
BRANCH  34  35
ATOM     35  C   UNL d   1      27.670 -15.277   0.404  0.00  0.00    -0.056 C 
ATOM     36  C   UNL d   1      28.065 -14.857   1.655  0.00  0.00     0.007 C 
ATOM     37  C   UNL d   1      27.634 -13.638   2.124  0.00  0.00     0.001 C 
ATOM     38  C   UNL d   1      27.045 -12.692   1.306  0.00  0.00     0.000 C 
ATOM     39  C   UNL d   1      26.657 -13.089   0.044  0.00  0.00     0.001 C 
ATOM     40  C   UNL d   1      26.943 -14.391  -0.396  0.00  0.00     0.007 C 
ENDBRANCH  34  35
ENDBRANCH  33  34
ENDBRANCH  32  33
ENDBRANCH  31  32
ENDBRANCH  23  26
ENDBRANCH   1  22
TORSDOF 11
ENDMDL
MODEL 4
REMARK VINA RESULT:   -10.360      2.138      4.341
REMARK INTER + INTRA:         -17.275
REMARK INTER:                 -13.642
REMARK INTRA:                  -3.633
REMARK CONF_INDEPENDENT:        3.281
REMARK UNBOUND:                -3.633
REMARK  11 active torsions:
REMARK  status: ('A' for Active; 'I' for Inactive)
REMARK       I    between atoms: C_2  and  N_3 
REMARK    1  A    between atoms: C_2  and  C_25 
REMARK    2  A    between atoms: N_3  and  N_4 
REMARK    3  A    between atoms: N_4  and  C_5 
REMARK    4  A    between atoms: C_5  and  N_7 
REMARK       I    between atoms: N_7  and  C_8 
REMARK    5  A    between atoms: C_8  and  C_10 
REMARK    6  A    between atoms: C_15  and  O_16 
REMARK    7  A    between atoms: O_16  and  C_17 
REMARK    8  A    between atoms: C_17  and  C_18 
REMARK    9  A    between atoms: C_18  and  C_19 
REMARK   10  A    between atoms: C_28  and  N_29 
REMARK       I    between atoms: N_29  and  C_30 
REMARK   11  A    between atoms: C_30  and  C_32 
ROOT
ATOM      1  C   UNL d   1      30.057 -14.846  -0.326  0.00  0.00     0.193 C 
ATOM      2  S   UNL d   1      31.634 -14.283  -0.130  0.00  0.00    -0.039 SA
ENDROOT
BRANCH   1   3
ATOM      3  N   UNL d   1      29.438 -15.565   0.729  0.00  0.00    -0.273 N 
ATOM      4  H   UNL d   1      29.944 -16.168   1.376  0.00  0.00     0.189 HD
BRANCH   3   5
ATOM      5  N   UNL d   1      28.043 -16.008   0.543  0.00  0.00    -0.264 N 
ATOM      6  C   UNL d   1      27.669 -16.797  -0.535  0.00  0.00     0.270 C 
ATOM      7  O   UNL d   1      28.477 -17.275  -1.334  0.00  0.00    -0.266 OA
ATOM      8  H   UNL d   1      27.353 -15.501   1.092  0.00  0.00     0.190 HD
BRANCH   6   9
ATOM      9  C   UNL d   1      26.219 -17.119  -0.698  0.00  0.00     0.033 C 
ATOM     10  C   UNL d   1      25.204 -16.291  -1.205  0.00  0.00     0.019 C 
ATOM     11  C   UNL d   1      23.855 -16.575  -0.892  0.00  0.00     0.030 C 
ATOM     12  C   UNL d   1      23.531 -17.724  -0.156  0.00  0.00     0.034 C 
ATOM     13  C   UNL d   1      24.561 -18.581   0.221  0.00  0.00     0.030 C 
ATOM     14  C   UNL d   1      25.876 -18.316  -0.093  0.00  0.00     0.019 C 
BRANCH  12  15
ATOM     15  N   UNL d   1      22.191 -18.028   0.182  0.00  0.00    -0.327 N 
ATOM     16  C   UNL d   1      21.344 -18.785  -0.604  0.00  0.00     0.226 C 
ATOM     17  O   UNL d   1      21.592 -19.325  -1.691  0.00  0.00    -0.273 OA
ATOM     18  H   UNL d   1      21.818 -17.624   1.033  0.00  0.00     0.169 HD
BRANCH  16  19
ATOM     19  C   UNL d   1      19.962 -18.949  -0.125  0.00  0.00     0.078 A 
ATOM     20  C   UNL d   1      19.323 -20.312  -0.327  0.00  0.00     0.015 A 
ATOM     21  C   UNL d   1      19.585 -19.792   1.057  0.00  0.00     0.015 A 
ENDBRANCH  16  19
ENDBRANCH  12  15
ENDBRANCH   6   9
ENDBRANCH   3   5
ENDBRANCH   1   3
BRANCH   1  22
ATOM     22  N   UNL d   1      29.284 -14.694  -1.518  0.00  0.00    -0.298 N 
ATOM     23  C   UNL d   1      28.394 -13.616  -1.842  0.00  0.00     0.260 C 
ATOM     24  O   UNL d   1      28.431 -12.518  -1.290  0.00  0.00    -0.267 OA
ATOM     25  H   UNL d   1      29.237 -15.495  -2.132  0.00  0.00     0.171 HD
BRANCH  23  26
ATOM     26  C   UNL d   1      27.366 -13.707  -2.959  0.00  0.00     0.065 A 
ATOM     27  C   UNL d   1      26.270 -12.819  -2.805  0.00  0.00     0.020 A 
ATOM     28  C   UNL d   1      25.123 -12.889  -3.612  0.00  0.00     0.001 A 
ATOM     29  C   UNL d   1      25.061 -13.812  -4.644  0.00  0.00     0.003 A 
ATOM     30  C   UNL d   1      26.102 -14.726  -4.795  0.00  0.00     0.038 A 
ATOM     31  C   UNL d   1      27.229 -14.722  -3.937  0.00  0.00     0.084 A 
BRANCH  31  32
ATOM     32  O   UNL d   1      28.009 -15.832  -4.177  0.00  0.00    -0.350 OA
BRANCH  32  33
ATOM     33  C   UNL d   1      28.899 -15.705  -5.261  0.00  0.00     0.180 C 
BRANCH  33  34
ATOM     34  C   UNL d   1      30.306 -16.152  -4.944  0.00  0.00     0.065 C 
BRANCH  34  35
ATOM     35  C   UNL d   1      30.562 -17.531  -5.481  0.00  0.00    -0.056 C 
ATOM     36  C   UNL d   1      30.809 -17.617  -6.833  0.00  0.00     0.007 C 
ATOM     37  C   UNL d   1      30.781 -18.849  -7.445  0.00  0.00     0.001 C 
ATOM     38  C   UNL d   1      30.781 -20.034  -6.734  0.00  0.00     0.000 C 
ATOM     39  C   UNL d   1      30.551 -19.965  -5.377  0.00  0.00     0.001 C 
ATOM     40  C   UNL d   1      30.412 -18.715  -4.755  0.00  0.00     0.007 C 
ENDBRANCH  34  35
ENDBRANCH  33  34
ENDBRANCH  32  33
ENDBRANCH  31  32
ENDBRANCH  23  26
ENDBRANCH   1  22
TORSDOF 11
ENDMDL
MODEL 5
REMARK VINA RESULT:    -9.997      2.573      3.500
REMARK INTER + INTRA:         -16.891
REMARK INTER:                 -13.278
REMARK INTRA:                  -3.613
REMARK CONF_INDEPENDENT:        3.281
REMARK UNBOUND:                -3.613
REMARK  11 active torsions:
REMARK  status: ('A' for Active; 'I' for Inactive)
REMARK       I    between atoms: C_2  and  N_3 
REMARK    1  A    between atoms: C_2  and  C_25 
REMARK    2  A    between atoms: N_3  and  N_4 
REMARK    3  A    between atoms: N_4  and  C_5 
REMARK    4  A    between atoms: C_5  and  N_7 
REMARK       I    between atoms: N_7  and  C_8 
REMARK    5  A    between atoms: C_8  and  C_10 
REMARK    6  A    between atoms: C_15  and  O_16 
REMARK    7  A    between atoms: O_16  and  C_17 
REMARK    8  A    between atoms: C_17  and  C_18 
REMARK    9  A    between atoms: C_18  and  C_19 
REMARK   10  A    between atoms: C_28  and  N_29 
REMARK       I    between atoms: N_29  and  C_30 
REMARK   11  A    between atoms: C_30  and  C_32 
ROOT
ATOM      1  C   UNL d   1      26.186 -13.996  -4.645  0.00  0.00     0.193 C 
ATOM      2  S   UNL d   1      24.776 -13.147  -4.276  0.00  0.00    -0.039 SA
ENDROOT
BRANCH   1   3
ATOM      3  N   UNL d   1      26.629 -15.023  -3.772  0.00  0.00    -0.273 N 
ATOM      4  H   UNL d   1      27.371 -15.683  -4.004  0.00  0.00     0.189 HD
BRANCH   3   5
ATOM      5  N   UNL d   1      25.651 -15.606  -2.833  0.00  0.00    -0.264 N 
ATOM      6  C   UNL d   1      26.024 -16.551  -1.889  0.00  0.00     0.270 C 
ATOM      7  O   UNL d   1      27.196 -16.879  -1.688  0.00  0.00    -0.266 OA
ATOM      8  H   UNL d   1      24.676 -15.468  -3.086  0.00  0.00     0.190 HD
BRANCH   6   9
ATOM      9  C   UNL d   1      24.952 -17.159  -1.043  0.00  0.00     0.033 C 
ATOM     10  C   UNL d   1      24.901 -18.462  -0.522  0.00  0.00     0.019 C 
ATOM     11  C   UNL d   1      23.657 -19.005  -0.129  0.00  0.00     0.030 C 
ATOM     12  C   UNL d   1      22.498 -18.214  -0.177  0.00  0.00     0.034 C 
ATOM     13  C   UNL d   1      22.618 -16.889  -0.585  0.00  0.00     0.030 C 
ATOM     14  C   UNL d   1      23.831 -16.351  -0.957  0.00  0.00     0.019 C 
BRANCH  12  15
ATOM     15  N   UNL d   1      21.237 -18.733   0.199  0.00  0.00    -0.327 N 
ATOM     16  C   UNL d   1      20.391 -19.415  -0.655  0.00  0.00     0.226 C 
ATOM     17  O   UNL d   1      20.578 -19.699  -1.846  0.00  0.00    -0.273 OA
ATOM     18  H   UNL d   1      20.915 -18.550   1.142  0.00  0.00     0.169 HD
BRANCH  16  19
ATOM     19  C   UNL d   1      19.089 -19.830  -0.109  0.00  0.00     0.078 A 
ATOM     20  C   UNL d   1      19.040 -21.169   0.606  0.00  0.00     0.015 A 
ATOM     21  C   UNL d   1      18.783 -19.895   1.357  0.00  0.00     0.015 A 
ENDBRANCH  16  19
ENDBRANCH  12  15
ENDBRANCH   6   9
ENDBRANCH   3   5
ENDBRANCH   1   3
BRANCH   1  22
ATOM     22  N   UNL d   1      27.021 -13.729  -5.773  0.00  0.00    -0.298 N 
ATOM     23  C   UNL d   1      28.198 -14.449  -6.169  0.00  0.00     0.260 C 
ATOM     24  O   UNL d   1      28.455 -15.590  -5.788  0.00  0.00    -0.267 OA
ATOM     25  H   UNL d   1      26.862 -12.857  -6.258  0.00  0.00     0.171 HD
BRANCH  23  26
ATOM     26  C   UNL d   1      29.204 -13.894  -7.165  0.00  0.00     0.065 A 
ATOM     27  C   UNL d   1      30.553 -14.195  -6.847  0.00  0.00     0.020 A 
ATOM     28  C   UNL d   1      31.637 -13.607  -7.521  0.00  0.00     0.001 A 
ATOM     29  C   UNL d   1      31.403 -12.745  -8.582  0.00  0.00     0.003 A 
ATOM     30  C   UNL d   1      30.091 -12.398  -8.892  0.00  0.00     0.038 A 
ATOM     31  C   UNL d   1      28.990 -12.917  -8.168  0.00  0.00     0.084 A 
BRANCH  31  32
ATOM     32  O   UNL d   1      27.831 -12.276  -8.547  0.00  0.00    -0.350 OA
BRANCH  32  33
ATOM     33  C   UNL d   1      28.005 -10.947  -8.978  0.00  0.00     0.180 C 
BRANCH  33  34
ATOM     34  C   UNL d   1      27.036  -9.974  -8.348  0.00  0.00     0.065 C 
BRANCH  34  35
ATOM     35  C   UNL d   1      26.891 -10.242  -6.878  0.00  0.00    -0.056 C 
ATOM     36  C   UNL d   1      25.663  -9.946  -6.328  0.00  0.00     0.007 C 
ATOM     37  C   UNL d   1      25.532  -9.902  -4.959  0.00  0.00     0.001 C 
ATOM     38  C   UNL d   1      26.497 -10.397  -4.103  0.00  0.00     0.000 C 
ATOM     39  C   UNL d   1      27.727 -10.714  -4.638  0.00  0.00     0.001 C 
ATOM     40  C   UNL d   1      27.933 -10.608  -6.023  0.00  0.00     0.007 C 
ENDBRANCH  34  35
ENDBRANCH  33  34
ENDBRANCH  32  33
ENDBRANCH  31  32
ENDBRANCH  23  26
ENDBRANCH   1  22
TORSDOF 11
ENDMDL
MODEL 6
REMARK VINA RESULT:    -9.877      1.779      3.317
REMARK INTER + INTRA:         -17.290
REMARK INTER:                 -13.158
REMARK INTRA:                  -4.132
REMARK CONF_INDEPENDENT:        3.281
REMARK UNBOUND:                -4.132
REMARK  11 active torsions:
REMARK  status: ('A' for Active; 'I' for Inactive)
REMARK       I    between atoms: C_2  and  N_3 
REMARK    1  A    between atoms: C_2  and  C_25 
REMARK    2  A    between atoms: N_3  and  N_4 
REMARK    3  A    between atoms: N_4  and  C_5 
REMARK    4  A    between atoms: C_5  and  N_7 
REMARK       I    between atoms: N_7  and  C_8 
REMARK    5  A    between atoms: C_8  and  C_10 
REMARK    6  A    between atoms: C_15  and  O_16 
REMARK    7  A    between atoms: O_16  and  C_17 
REMARK    8  A    between atoms: C_17  and  C_18 
REMARK    9  A    between atoms: C_18  and  C_19 
REMARK   10  A    between atoms: C_28  and  N_29 
REMARK       I    between atoms: N_29  and  C_30 
REMARK   11  A    between atoms: C_30  and  C_32 
ROOT
ATOM      1  C   UNL d   1      28.216 -13.345   0.247  0.00  0.00     0.193 C 
ATOM      2  S   UNL d   1      28.805 -12.603   1.642  0.00  0.00    -0.039 SA
ENDROOT
BRANCH   1   3
ATOM      3  N   UNL d   1      28.160 -14.761   0.183  0.00  0.00    -0.273 N 
ATOM      4  H   UNL d   1      28.891 -15.339  -0.231  0.00  0.00     0.189 HD
BRANCH   3   5
ATOM      5  N   UNL d   1      26.833 -15.400   0.081  0.00  0.00    -0.264 N 
ATOM      6  C   UNL d   1      26.621 -16.510  -0.724  0.00  0.00     0.270 C 
ATOM      7  O   UNL d   1      27.529 -17.104  -1.307  0.00  0.00    -0.266 OA
ATOM      8  H   UNL d   1      26.057 -14.838   0.423  0.00  0.00     0.190 HD
BRANCH   6   9
ATOM      9  C   UNL d   1      25.226 -17.033  -0.842  0.00  0.00     0.033 C 
ATOM     10  C   UNL d   1      24.076 -16.337  -1.249  0.00  0.00     0.019 C 
ATOM     11  C   UNL d   1      22.802 -16.835  -0.895  0.00  0.00     0.030 C 
ATOM     12  C   UNL d   1      22.687 -18.060  -0.221  0.00  0.00     0.034 C 
ATOM     13  C   UNL d   1      23.850 -18.774   0.054  0.00  0.00     0.030 C 
ATOM     14  C   UNL d   1      25.094 -18.301  -0.300  0.00  0.00     0.019 C 
BRANCH  12  15
ATOM     15  N   UNL d   1      21.426 -18.577   0.157  0.00  0.00    -0.327 N 
ATOM     16  C   UNL d   1      20.595 -19.291  -0.686  0.00  0.00     0.226 C 
ATOM     17  O   UNL d   1      20.796 -19.608  -1.866  0.00  0.00    -0.273 OA
ATOM     18  H   UNL d   1      21.093 -18.370   1.091  0.00  0.00     0.169 HD
BRANCH  16  19
ATOM     19  C   UNL d   1      19.290 -19.701  -0.142  0.00  0.00     0.078 A 
ATOM     20  C   UNL d   1      19.243 -21.021   0.608  0.00  0.00     0.015 A 
ATOM     21  C   UNL d   1      18.970 -19.729   1.323  0.00  0.00     0.015 A 
ENDBRANCH  16  19
ENDBRANCH  12  15
ENDBRANCH   6   9
ENDBRANCH   3   5
ENDBRANCH   1   3
BRANCH   1  22
ATOM     22  N   UNL d   1      27.797 -12.647  -0.928  0.00  0.00    -0.298 N 
ATOM     23  C   UNL d   1      26.678 -12.961  -1.769  0.00  0.00     0.260 C 
ATOM     24  O   UNL d   1      25.736 -13.665  -1.409  0.00  0.00    -0.267 OA
ATOM     25  H   UNL d   1      28.436 -11.956  -1.295  0.00  0.00     0.171 HD
BRANCH  23  26
ATOM     26  C   UNL d   1      26.515 -12.386  -3.167  0.00  0.00     0.065 A 
ATOM     27  C   UNL d   1      27.052 -11.081  -3.318  0.00  0.00     0.020 A 
ATOM     28  C   UNL d   1      26.826 -10.299  -4.462  0.00  0.00     0.001 A 
ATOM     29  C   UNL d   1      26.105 -10.824  -5.524  0.00  0.00     0.003 A 
ATOM     30  C   UNL d   1      25.529 -12.085  -5.391  0.00  0.00     0.038 A 
ATOM     31  C   UNL d   1      25.678 -12.853  -4.210  0.00  0.00     0.084 A 
BRANCH  31  32
ATOM     32  O   UNL d   1      24.863 -13.963  -4.263  0.00  0.00    -0.350 OA
BRANCH  32  33
ATOM     33  C   UNL d   1      25.530 -15.193  -4.104  0.00  0.00     0.180 C 
BRANCH  33  34
ATOM     34  C   UNL d   1      26.385 -15.575  -5.288  0.00  0.00     0.065 C 
BRANCH  34  35
ATOM     35  C   UNL d   1      27.831 -15.271  -5.022  0.00  0.00    -0.056 C 
ATOM     36  C   UNL d   1      28.585 -14.908  -6.117  0.00  0.00     0.007 C 
ATOM     37  C   UNL d   1      29.956 -14.881  -6.011  0.00  0.00     0.001 C 
ATOM     38  C   UNL d   1      30.610 -14.940  -4.795  0.00  0.00     0.000 C 
ATOM     39  C   UNL d   1      29.869 -15.286  -3.686  0.00  0.00     0.001 C 
ATOM     40  C   UNL d   1      28.484 -15.481  -3.805  0.00  0.00     0.007 C 
ENDBRANCH  34  35
ENDBRANCH  33  34
ENDBRANCH  32  33
ENDBRANCH  31  32
ENDBRANCH  23  26
ENDBRANCH   1  22
TORSDOF 11
ENDMDL
MODEL 7
REMARK VINA RESULT:    -9.750      1.415      1.673
REMARK INTER + INTRA:         -17.443
REMARK INTER:                 -13.032
REMARK INTRA:                  -4.412
REMARK CONF_INDEPENDENT:        3.281
REMARK UNBOUND:                -4.412
REMARK  11 active torsions:
REMARK  status: ('A' for Active; 'I' for Inactive)
REMARK       I    between atoms: C_2  and  N_3 
REMARK    1  A    between atoms: C_2  and  C_25 
REMARK    2  A    between atoms: N_3  and  N_4 
REMARK    3  A    between atoms: N_4  and  C_5 
REMARK    4  A    between atoms: C_5  and  N_7 
REMARK       I    between atoms: N_7  and  C_8 
REMARK    5  A    between atoms: C_8  and  C_10 
REMARK    6  A    between atoms: C_15  and  O_16 
REMARK    7  A    between atoms: O_16  and  C_17 
REMARK    8  A    between atoms: C_17  and  C_18 
REMARK    9  A    between atoms: C_18  and  C_19 
REMARK   10  A    between atoms: C_28  and  N_29 
REMARK       I    between atoms: N_29  and  C_30 
REMARK   11  A    between atoms: C_30  and  C_32 
ROOT
ATOM      1  C   UNL d   1      28.438 -14.739  -0.673  0.00  0.00     0.193 C 
ATOM      2  S   UNL d   1      29.534 -15.209   0.518  0.00  0.00    -0.039 SA
ENDROOT
BRANCH   1   3
ATOM      3  N   UNL d   1      27.181 -14.203  -0.291  0.00  0.00    -0.273 N 
ATOM      4  H   UNL d   1      27.072 -13.410   0.341  0.00  0.00     0.189 HD
BRANCH   3   5
ATOM      5  N   UNL d   1      26.026 -15.119  -0.226  0.00  0.00    -0.264 N 
ATOM      6  C   UNL d   1      25.697 -15.950  -1.286  0.00  0.00     0.270 C 
ATOM      7  O   UNL d   1      26.398 -16.070  -2.293  0.00  0.00    -0.266 OA
ATOM      8  H   UNL d   1      25.360 -14.921   0.517  0.00  0.00     0.190 HD
BRANCH   6   9
ATOM      9  C   UNL d   1      24.455 -16.774  -1.172  0.00  0.00     0.033 C 
ATOM     10  C   UNL d   1      23.133 -16.325  -1.023  0.00  0.00     0.019 C 
ATOM     11  C   UNL d   1      22.156 -17.203  -0.502  0.00  0.00     0.030 C 
ATOM     12  C   UNL d   1      22.487 -18.537  -0.220  0.00  0.00     0.034 C 
ATOM     13  C   UNL d   1      23.781 -18.970  -0.499  0.00  0.00     0.030 C 
ATOM     14  C   UNL d   1      24.733 -18.123  -1.019  0.00  0.00     0.019 C 
BRANCH  12  15
ATOM     15  N   UNL d   1      21.534 -19.435   0.314  0.00  0.00    -0.327 N 
ATOM     16  C   UNL d   1      20.456 -19.935  -0.393  0.00  0.00     0.226 C 
ATOM     17  O   UNL d   1      20.147 -19.711  -1.571  0.00  0.00    -0.273 OA
ATOM     18  H   UNL d   1      21.623 -19.691   1.290  0.00  0.00     0.169 HD
BRANCH  16  19
ATOM     19  C   UNL d   1      19.529 -20.811   0.341  0.00  0.00     0.078 A 
ATOM     20  C   UNL d   1      18.602 -20.145   1.342  0.00  0.00     0.015 A 
ATOM     21  C   UNL d   1      18.045 -20.824   0.124  0.00  0.00     0.015 A 
ENDBRANCH  16  19
ENDBRANCH  12  15
ENDBRANCH   6   9
ENDBRANCH   3   5
ENDBRANCH   1   3
BRANCH   1  22
ATOM     22  N   UNL d   1      28.657 -14.882  -2.079  0.00  0.00    -0.298 N 
ATOM     23  C   UNL d   1      29.513 -14.082  -2.907  0.00  0.00     0.260 C 
ATOM     24  O   UNL d   1      30.425 -13.385  -2.465  0.00  0.00    -0.267 OA
ATOM     25  H   UNL d   1      28.035 -15.507  -2.572  0.00  0.00     0.171 HD
BRANCH  23  26
ATOM     26  C   UNL d   1      29.421 -14.082  -4.424  0.00  0.00     0.065 A 
ATOM     27  C   UNL d   1      30.216 -13.086  -5.049  0.00  0.00     0.020 A 
ATOM     28  C   UNL d   1      30.116 -12.789  -6.418  0.00  0.00     0.001 A 
ATOM     29  C   UNL d   1      29.260 -13.525  -7.222  0.00  0.00     0.003 A 
ATOM     30  C   UNL d   1      28.436 -14.481  -6.633  0.00  0.00     0.038 A 
ATOM     31  C   UNL d   1      28.465 -14.735  -5.240  0.00  0.00     0.084 A 
BRANCH  31  32
ATOM     32  O   UNL d   1      27.432 -15.578  -4.892  0.00  0.00    -0.350 OA
BRANCH  32  33
ATOM     33  C   UNL d   1      26.170 -15.203  -5.390  0.00  0.00     0.180 C 
BRANCH  33  34
ATOM     34  C   UNL d   1      25.346 -14.402  -4.410  0.00  0.00     0.065 C 
BRANCH  34  35
ATOM     35  C   UNL d   1      25.928 -13.031  -4.220  0.00  0.00    -0.056 C 
ATOM     36  C   UNL d   1      26.372 -12.732  -2.950  0.00  0.00     0.007 C 
ATOM     37  C   UNL d   1      26.660 -11.427  -2.627  0.00  0.00     0.001 C 
ATOM     38  C   UNL d   1      26.783 -10.434  -3.581  0.00  0.00     0.000 C 
ATOM     39  C   UNL d   1      26.358 -10.719  -4.861  0.00  0.00     0.001 C 
ATOM     40  C   UNL d   1      25.902 -12.009  -5.173  0.00  0.00     0.007 C 
ENDBRANCH  34  35
ENDBRANCH  33  34
ENDBRANCH  32  33
ENDBRANCH  31  32
ENDBRANCH  23  26
ENDBRANCH   1  22
TORSDOF 11
ENDMDL
MODEL 8
REMARK VINA RESULT:    -9.637      1.806      2.881
REMARK INTER + INTRA:         -16.964
REMARK INTER:                 -12.918
REMARK INTRA:                  -4.046
REMARK CONF_INDEPENDENT:        3.281
REMARK UNBOUND:                -4.046
REMARK  11 active torsions:
REMARK  status: ('A' for Active; 'I' for Inactive)
REMARK       I    between atoms: C_2  and  N_3 
REMARK    1  A    between atoms: C_2  and  C_25 
REMARK    2  A    between atoms: N_3  and  N_4 
REMARK    3  A    between atoms: N_4  and  C_5 
REMARK    4  A    between atoms: C_5  and  N_7 
REMARK       I    between atoms: N_7  and  C_8 
REMARK    5  A    between atoms: C_8  and  C_10 
REMARK    6  A    between atoms: C_15  and  O_16 
REMARK    7  A    between atoms: O_16  and  C_17 
REMARK    8  A    between atoms: C_17  and  C_18 
REMARK    9  A    between atoms: C_18  and  C_19 
REMARK   10  A    between atoms: C_28  and  N_29 
REMARK       I    between atoms: N_29  and  C_30 
REMARK   11  A    between atoms: C_30  and  C_32 
ROOT
ATOM      1  C   UNL d   1      30.383 -14.736  -0.358  0.00  0.00     0.193 C 
ATOM      2  S   UNL d   1      31.405 -13.461   0.057  0.00  0.00    -0.039 SA
ENDROOT
BRANCH   1   3
ATOM      3  N   UNL d   1      29.583 -15.342   0.645  0.00  0.00    -0.273 N 
ATOM      4  H   UNL d   1      29.920 -15.563   1.581  0.00  0.00     0.189 HD
BRANCH   3   5
ATOM      5  N   UNL d   1      28.512 -16.262   0.216  0.00  0.00    -0.264 N 
ATOM      6  C   UNL d   1      27.249 -15.800  -0.122  0.00  0.00     0.270 C 
ATOM      7  O   UNL d   1      26.967 -14.603  -0.202  0.00  0.00    -0.266 OA
ATOM      8  H   UNL d   1      28.677 -17.244   0.427  0.00  0.00     0.190 HD
BRANCH   6   9
ATOM      9  C   UNL d   1      26.197 -16.810  -0.451  0.00  0.00     0.033 C 
ATOM     10  C   UNL d   1      25.227 -16.745  -1.464  0.00  0.00     0.019 C 
ATOM     11  C   UNL d   1      24.066 -17.545  -1.367  0.00  0.00     0.030 C 
ATOM     12  C   UNL d   1      23.929 -18.458  -0.311  0.00  0.00     0.034 C 
ATOM     13  C   UNL d   1      24.972 -18.575   0.604  0.00  0.00     0.030 C 
ATOM     14  C   UNL d   1      26.111 -17.808   0.506  0.00  0.00     0.019 C 
BRANCH  12  15
ATOM     15  N   UNL d   1      22.773 -19.263  -0.180  0.00  0.00    -0.327 N 
ATOM     16  C   UNL d   1      21.491 -18.836  -0.472  0.00  0.00     0.226 C 
ATOM     17  O   UNL d   1      21.135 -17.728  -0.896  0.00  0.00    -0.273 OA
ATOM     18  H   UNL d   1      22.890 -20.197   0.196  0.00  0.00     0.169 HD
BRANCH  16  19
ATOM     19  C   UNL d   1      20.399 -19.789  -0.218  0.00  0.00     0.078 A 
ATOM     20  C   UNL d   1      19.425 -19.437   0.893  0.00  0.00     0.015 A 
ATOM     21  C   UNL d   1      18.959 -19.511  -0.533  0.00  0.00     0.015 A 
ENDBRANCH  16  19
ENDBRANCH  12  15
ENDBRANCH   6   9
ENDBRANCH   3   5
ENDBRANCH   1   3
BRANCH   1  22
ATOM     22  N   UNL d   1      30.286 -15.304  -1.666  0.00  0.00    -0.298 N 
ATOM     23  C   UNL d   1      30.333 -16.696  -2.011  0.00  0.00     0.260 C 
ATOM     24  O   UNL d   1      30.128 -17.602  -1.205  0.00  0.00    -0.267 OA
ATOM     25  H   UNL d   1      30.343 -14.662  -2.443  0.00  0.00     0.171 HD
BRANCH  23  26
ATOM     26  C   UNL d   1      30.568 -17.181  -3.433  0.00  0.00     0.065 A 
ATOM     27  C   UNL d   1      30.779 -18.581  -3.535  0.00  0.00     0.020 A 
ATOM     28  C   UNL d   1      31.212 -19.194  -4.722  0.00  0.00     0.001 A 
ATOM     29  C   UNL d   1      31.386 -18.433  -5.867  0.00  0.00     0.003 A 
ATOM     30  C   UNL d   1      31.228 -17.052  -5.790  0.00  0.00     0.038 A 
ATOM     31  C   UNL d   1      30.873 -16.408  -4.579  0.00  0.00     0.084 A 
BRANCH  31  32
ATOM     32  O   UNL d   1      30.967 -15.041  -4.727  0.00  0.00    -0.350 OA
BRANCH  32  33
ATOM     33  C   UNL d   1      29.816 -14.423  -5.251  0.00  0.00     0.180 C 
BRANCH  33  34
ATOM     34  C   UNL d   1      28.607 -15.328  -5.290  0.00  0.00     0.065 C 
BRANCH  34  35
ATOM     35  C   UNL d   1      27.501 -14.778  -4.436  0.00  0.00    -0.056 C 
ATOM     36  C   UNL d   1      26.220 -15.121  -4.809  0.00  0.00     0.007 C 
ATOM     37  C   UNL d   1      25.155 -14.449  -4.258  0.00  0.00     0.001 C 
ATOM     38  C   UNL d   1      25.284 -13.629  -3.153  0.00  0.00     0.000 C 
ATOM     39  C   UNL d   1      26.558 -13.287  -2.754  0.00  0.00     0.001 C 
ATOM     40  C   UNL d   1      27.667 -13.838  -3.415  0.00  0.00     0.007 C 
ENDBRANCH  34  35
ENDBRANCH  33  34
ENDBRANCH  32  33
ENDBRANCH  31  32
ENDBRANCH  23  26
ENDBRANCH   1  22
TORSDOF 11
ENDMDL
MODEL 9
REMARK VINA RESULT:    -9.576      2.140      3.760
REMARK INTER + INTRA:         -16.822
REMARK INTER:                 -12.857
REMARK INTRA:                  -3.965
REMARK CONF_INDEPENDENT:        3.281
REMARK UNBOUND:                -3.965
REMARK  11 active torsions:
REMARK  status: ('A' for Active; 'I' for Inactive)
REMARK       I    between atoms: C_2  and  N_3 
REMARK    1  A    between atoms: C_2  and  C_25 
REMARK    2  A    between atoms: N_3  and  N_4 
REMARK    3  A    between atoms: N_4  and  C_5 
REMARK    4  A    between atoms: C_5  and  N_7 
REMARK       I    between atoms: N_7  and  C_8 
REMARK    5  A    between atoms: C_8  and  C_10 
REMARK    6  A    between atoms: C_15  and  O_16 
REMARK    7  A    between atoms: O_16  and  C_17 
REMARK    8  A    between atoms: C_17  and  C_18 
REMARK    9  A    between atoms: C_18  and  C_19 
REMARK   10  A    between atoms: C_28  and  N_29 
REMARK       I    between atoms: N_29  and  C_30 
REMARK   11  A    between atoms: C_30  and  C_32 
ROOT
ATOM      1  C   UNL d   1      29.228 -16.380  -1.198  0.00  0.00     0.193 C 
ATOM      2  S   UNL d   1      30.135 -16.950  -2.500  0.00  0.00    -0.039 SA
ENDROOT
BRANCH   1   3
ATOM      3  N   UNL d   1      28.649 -17.307  -0.294  0.00  0.00    -0.273 N 
ATOM      4  H   UNL d   1      29.174 -18.045   0.174  0.00  0.00     0.189 HD
BRANCH   3   5
ATOM      5  N   UNL d   1      27.235 -17.683  -0.494  0.00  0.00    -0.264 N 
ATOM      6  C   UNL d   1      26.249 -16.726  -0.684  0.00  0.00     0.270 C 
ATOM      7  O   UNL d   1      26.491 -15.524  -0.817  0.00  0.00    -0.266 OA
ATOM      8  H   UNL d   1      27.002 -18.638  -0.234  0.00  0.00     0.190 HD
BRANCH   6   9
ATOM      9  C   UNL d   1      24.832 -17.189  -0.782  0.00  0.00     0.033 C 
ATOM     10  C   UNL d   1      23.676 -16.404  -0.921  0.00  0.00     0.019 C 
ATOM     11  C   UNL d   1      22.421 -16.946  -0.566  0.00  0.00     0.030 C 
ATOM     12  C   UNL d   1      22.323 -18.286  -0.161  0.00  0.00     0.034 C 
ATOM     13  C   UNL d   1      23.479 -19.062  -0.155  0.00  0.00     0.030 C 
ATOM     14  C   UNL d   1      24.703 -18.542  -0.514  0.00  0.00     0.019 C 
BRANCH  12  15
ATOM     15  N   UNL d   1      21.082 -18.854   0.212  0.00  0.00    -0.327 N 
ATOM     16  C   UNL d   1      20.228 -19.500  -0.662  0.00  0.00     0.226 C 
ATOM     17  O   UNL d   1      20.389 -19.705  -1.872  0.00  0.00    -0.273 OA
ATOM     18  H   UNL d   1      20.781 -18.737   1.173  0.00  0.00     0.169 HD
BRANCH  16  19
ATOM     19  C   UNL d   1      18.949 -19.975  -0.111  0.00  0.00     0.078 A 
ATOM     20  C   UNL d   1      18.970 -21.303   0.625  0.00  0.00     0.015 A 
ATOM     21  C   UNL d   1      18.643 -20.034   1.356  0.00  0.00     0.015 A 
ENDBRANCH  16  19
ENDBRANCH  12  15
ENDBRANCH   6   9
ENDBRANCH   3   5
ENDBRANCH   1   3
BRANCH   1  22
ATOM     22  N   UNL d   1      28.947 -15.001  -0.947  0.00  0.00    -0.298 N 
ATOM     23  C   UNL d   1      29.313 -14.240   0.213  0.00  0.00     0.260 C 
ATOM     24  O   UNL d   1      30.202 -14.578   0.992  0.00  0.00    -0.267 OA
ATOM     25  H   UNL d   1      28.296 -14.551  -1.574  0.00  0.00     0.171 HD
BRANCH  23  26
ATOM     26  C   UNL d   1      28.683 -12.897   0.545  0.00  0.00     0.065 A 
ATOM     27  C   UNL d   1      27.655 -12.970   1.520  0.00  0.00     0.020 A 
ATOM     28  C   UNL d   1      26.817 -11.883   1.816  0.00  0.00     0.001 A 
ATOM     29  C   UNL d   1      27.022 -10.663   1.189  0.00  0.00     0.003 A 
ATOM     30  C   UNL d   1      27.995 -10.571   0.197  0.00  0.00     0.038 A 
ATOM     31  C   UNL d   1      28.794 -11.681  -0.172  0.00  0.00     0.084 A 
BRANCH  31  32
ATOM     32  O   UNL d   1      29.536 -11.377  -1.292  0.00  0.00    -0.350 OA
BRANCH  32  33
ATOM     33  C   UNL d   1      29.466 -12.332  -2.324  0.00  0.00     0.180 C 
BRANCH  33  34
ATOM     34  C   UNL d   1      28.409 -12.028  -3.359  0.00  0.00     0.065 C 
BRANCH  34  35
ATOM     35  C   UNL d   1      27.396 -13.134  -3.427  0.00  0.00    -0.056 C 
ATOM     36  C   UNL d   1      27.775 -14.260  -4.126  0.00  0.00     0.007 C 
ATOM     37  C   UNL d   1      26.823 -15.193  -4.467  0.00  0.00     0.001 C 
ATOM     38  C   UNL d   1      25.554 -15.196  -3.919  0.00  0.00     0.000 C 
ATOM     39  C   UNL d   1      25.163 -14.085  -3.204  0.00  0.00     0.001 C 
ATOM     40  C   UNL d   1      26.074 -13.040  -2.983  0.00  0.00     0.007 C 
ENDBRANCH  34  35
ENDBRANCH  33  34
ENDBRANCH  32  33
ENDBRANCH  31  32
ENDBRANCH  23  26
ENDBRANCH   1  22
TORSDOF 11
ENDMDL
