MODEL 1
REMARK VINA RESULT:    -8.225      0.000      0.000
REMARK INTER + INTRA:         -12.381
REMARK INTER:                 -10.612
REMARK INTRA:                  -1.770
REMARK CONF_INDEPENDENT:        2.386
REMARK UNBOUND:                -1.770
REMARK  8 active torsions:
REMARK  status: ('A' for Active; 'I' for Inactive)
REMARK    1  A    between atoms: C_5  and  C_6 
REMARK       I    between atoms: C_6  and  N_8 
REMARK    2  A    between atoms: N_8  and  N_9 
REMARK       I    between atoms: N_9  and  C_10 
REMARK    3  A    between atoms: C_12  and  C_10 
REMARK    4  A    between atoms: C_12  and  O_14 
REMARK    5  A    between atoms: O_14  and  C_15 
REMARK    6  A    between atoms: C_15  and  C_16 
REMARK    7  A    between atoms: C_16  and  C_17 
REMARK    8  A    between atoms: C_20  and  O_21 
ROOT
ATOM      1  C   UNL d   1      21.933 -18.201  -0.264  0.00  0.00     0.272 C 
ATOM      2  O   UNL d   1      21.605 -17.213  -0.910  0.00  0.00    -0.266 OA
ATOM      3  N   UNL d   1      23.257 -18.492   0.058  0.00  0.00    -0.263 N 
ATOM      4  H   UNL d   1      23.575 -19.283   0.605  0.00  0.00     0.190 HD
ENDROOT
BRANCH   3   5
ATOM      5  N   UNL d   1      24.258 -17.575  -0.284  0.00  0.00    -0.265 N 
ATOM      6  C   UNL d   1      25.596 -17.895  -0.096  0.00  0.00     0.264 C 
ATOM      7  O   UNL d   1      25.936 -18.949   0.443  0.00  0.00    -0.269 OA
ATOM      8  H   UNL d   1      23.941 -16.639  -0.530  0.00  0.00     0.190 HD
BRANCH   6   9
ATOM      9  C   UNL d   1      26.635 -16.877  -0.674  0.00  0.00     0.210 C 
ATOM     10  C   UNL d   1      27.861 -16.818   0.237  0.00  0.00     0.050 C 
BRANCH   9  11
ATOM     11  O   UNL d   1      26.164 -15.545  -0.866  0.00  0.00    -0.377 OA
BRANCH  11  12
ATOM     12  C   UNL d   1      25.516 -15.394  -2.125  0.00  0.00     0.169 C 
BRANCH  12  13
ATOM     13  C   UNL d   1      26.560 -15.270  -3.218  0.00  0.00     0.030 C 
BRANCH  13  14
ATOM     14  C   UNL d   1      25.918 -14.770  -4.520  0.00  0.00    -0.021 C 
ATOM     15  C   UNL d   1      24.813 -13.740  -4.268  0.00  0.00     0.009 C 
ATOM     16  C   UNL d   1      26.980 -14.139  -5.408  0.00  0.00     0.009 C 
ENDBRANCH  13  14
ENDBRANCH  12  13
ENDBRANCH  11  12
ENDBRANCH   9  11
ENDBRANCH   6   9
ENDBRANCH   3   5
BRANCH   1  17
ATOM     17  C   UNL d   1      20.862 -19.116   0.229  0.00  0.00     0.066 A 
ATOM     18  C   UNL d   1      20.656 -19.306   1.600  0.00  0.00     0.020 A 
ATOM     19  C   UNL d   1      19.621 -20.121   2.063  0.00  0.00     0.008 A 
ATOM     20  C   UNL d   1      18.762 -20.758   1.164  0.00  0.00    -0.059 A 
ATOM     21  C   UNL d   1      17.631 -21.617   1.640  0.00  0.00     0.048 C 
ATOM     22  C   UNL d   1      18.966 -20.584  -0.208  0.00  0.00     0.044 A 
ATOM     23  C   UNL d   1      20.007 -19.779  -0.674  0.00  0.00     0.082 A 
BRANCH  23  24
ATOM     24  O   UNL d   1      20.113 -19.700  -2.040  0.00  0.00    -0.360 OA
ATOM     25  H   UNL d   1      19.230 -19.486  -2.407  0.00  0.00     0.217 HD
ENDBRANCH  23  24
ENDBRANCH   1  17
TORSDOF 8
ENDMDL
MODEL 2
REMARK VINA RESULT:    -7.457      2.142      8.745
REMARK INTER + INTRA:         -11.698
REMARK INTER:                  -9.843
REMARK INTRA:                  -1.855
REMARK CONF_INDEPENDENT:        2.386
REMARK UNBOUND:                -1.855
REMARK  8 active torsions:
REMARK  status: ('A' for Active; 'I' for Inactive)
REMARK    1  A    between atoms: C_5  and  C_6 
REMARK       I    between atoms: C_6  and  N_8 
REMARK    2  A    between atoms: N_8  and  N_9 
REMARK       I    between atoms: N_9  and  C_10 
REMARK    3  A    between atoms: C_12  and  C_10 
REMARK    4  A    between atoms: C_12  and  O_14 
REMARK    5  A    between atoms: O_14  and  C_15 
REMARK    6  A    between atoms: C_15  and  C_16 
REMARK    7  A    between atoms: C_16  and  C_17 
REMARK    8  A    between atoms: C_20  and  O_21 
ROOT
ATOM      1  C   UNL d   1      25.813 -14.997  -2.249  0.00  0.00     0.272 C 
ATOM      2  O   UNL d   1      26.764 -15.561  -1.719  0.00  0.00    -0.266 OA
ATOM      3  N   UNL d   1      24.519 -15.512  -2.230  0.00  0.00    -0.263 N 
ATOM      4  H   UNL d   1      23.700 -15.075  -2.636  0.00  0.00     0.190 HD
ENDROOT
BRANCH   3   5
ATOM      5  N   UNL d   1      24.261 -16.676  -1.497  0.00  0.00    -0.265 N 
ATOM      6  C   UNL d   1      23.023 -16.866  -0.896  0.00  0.00     0.264 C 
ATOM      7  O   UNL d   1      22.153 -15.994  -0.924  0.00  0.00    -0.269 OA
ATOM      8  H   UNL d   1      25.062 -17.277  -1.317  0.00  0.00     0.190 HD
BRANCH   6   9
ATOM      9  C   UNL d   1      22.778 -18.272  -0.254  0.00  0.00     0.210 C 
ATOM     10  C   UNL d   1      24.103 -19.027  -0.145  0.00  0.00     0.050 C 
BRANCH   9  11
ATOM     11  O   UNL d   1      21.846 -19.113  -0.930  0.00  0.00    -0.377 OA
BRANCH  11  12
ATOM     12  C   UNL d   1      20.529 -18.570  -0.895  0.00  0.00     0.169 C 
BRANCH  12  13
ATOM     13  C   UNL d   1      19.518 -19.700  -0.864  0.00  0.00     0.030 C 
BRANCH  13  14
ATOM     14  C   UNL d   1      19.664 -20.516   0.428  0.00  0.00    -0.021 C 
ATOM     15  C   UNL d   1      20.080 -19.651   1.621  0.00  0.00     0.009 C 
ATOM     16  C   UNL d   1      18.346 -21.200   0.757  0.00  0.00     0.009 C 
ENDBRANCH  13  14
ENDBRANCH  12  13
ENDBRANCH  11  12
ENDBRANCH   9  11
ENDBRANCH   6   9
ENDBRANCH   3   5
BRANCH   1  17
ATOM     17  C   UNL d   1      26.049 -13.683  -2.917  0.00  0.00     0.066 A 
ATOM     18  C   UNL d   1      27.023 -12.800  -2.438  0.00  0.00     0.020 A 
ATOM     19  C   UNL d   1      27.280 -11.593  -3.092  0.00  0.00     0.008 A 
ATOM     20  C   UNL d   1      26.572 -11.246  -4.245  0.00  0.00    -0.059 A 
ATOM     21  C   UNL d   1      26.848  -9.967  -4.975  0.00  0.00     0.048 C 
ATOM     22  C   UNL d   1      25.588 -12.115  -4.725  0.00  0.00     0.044 A 
ATOM     23  C   UNL d   1      25.321 -13.317  -4.067  0.00  0.00     0.082 A 
BRANCH  23  24
ATOM     24  O   UNL d   1      24.324 -14.076  -4.626  0.00  0.00    -0.360 OA
ATOM     25  H   UNL d   1      23.510 -13.531  -4.674  0.00  0.00     0.217 HD
ENDBRANCH  23  24
ENDBRANCH   1  17
TORSDOF 8
ENDMDL
MODEL 3
REMARK VINA RESULT:    -6.981      2.340      9.097
REMARK INTER + INTRA:         -11.630
REMARK INTER:                  -9.367
REMARK INTRA:                  -2.262
REMARK CONF_INDEPENDENT:        2.386
REMARK UNBOUND:                -2.262
REMARK  8 active torsions:
REMARK  status: ('A' for Active; 'I' for Inactive)
REMARK    1  A    between atoms: C_5  and  C_6 
REMARK       I    between atoms: C_6  and  N_8 
REMARK    2  A    between atoms: N_8  and  N_9 
REMARK       I    between atoms: N_9  and  C_10 
REMARK    3  A    between atoms: C_12  and  C_10 
REMARK    4  A    between atoms: C_12  and  O_14 
REMARK    5  A    between atoms: O_14  and  C_15 
REMARK    6  A    between atoms: C_15  and  C_16 
REMARK    7  A    between atoms: C_16  and  C_17 
REMARK    8  A    between atoms: C_20  and  O_21 
ROOT
ATOM      1  C   UNL d   1      25.610 -14.426  -4.070  0.00  0.00     0.272 C 
ATOM      2  O   UNL d   1      24.455 -14.025  -4.159  0.00  0.00    -0.266 OA
ATOM      3  N   UNL d   1      26.016 -15.367  -3.126  0.00  0.00    -0.263 N 
ATOM      4  H   UNL d   1      26.952 -15.743  -3.027  0.00  0.00     0.190 HD
ENDROOT
BRANCH   3   5
ATOM      5  N   UNL d   1      25.055 -15.958  -2.298  0.00  0.00    -0.265 N 
ATOM      6  C   UNL d   1      25.446 -16.734  -1.215  0.00  0.00     0.264 C 
ATOM      7  O   UNL d   1      26.632 -16.989  -0.999  0.00  0.00    -0.269 OA
ATOM      8  H   UNL d   1      24.092 -15.903  -2.622  0.00  0.00     0.190 HD
BRANCH   6   9
ATOM      9  C   UNL d   1      24.302 -17.199  -0.253  0.00  0.00     0.210 C 
ATOM     10  C   UNL d   1      24.640 -18.575   0.323  0.00  0.00     0.050 C 
BRANCH   9  11
ATOM     11  O   UNL d   1      22.997 -17.269  -0.823  0.00  0.00    -0.377 OA
BRANCH  11  12
ATOM     12  C   UNL d   1      22.128 -18.086  -0.044  0.00  0.00     0.169 C 
BRANCH  12  13
ATOM     13  C   UNL d   1      21.647 -19.255  -0.884  0.00  0.00     0.030 C 
BRANCH  13  14
ATOM     14  C   UNL d   1      20.337 -19.820  -0.318  0.00  0.00    -0.021 C 
ATOM     15  C   UNL d   1      20.278 -19.737   1.210  0.00  0.00     0.009 C 
ATOM     16  C   UNL d   1      19.155 -19.057  -0.895  0.00  0.00     0.009 C 
ENDBRANCH  13  14
ENDBRANCH  12  13
ENDBRANCH  11  12
ENDBRANCH   9  11
ENDBRANCH   6   9
ENDBRANCH   3   5
BRANCH   1  17
ATOM     17  C   UNL d   1      26.619 -13.908  -5.041  0.00  0.00     0.066 A 
ATOM     18  C   UNL d   1      27.611 -14.747  -5.561  0.00  0.00     0.020 A 
ATOM     19  C   UNL d   1      28.523 -14.276  -6.508  0.00  0.00     0.008 A 
ATOM     20  C   UNL d   1      28.457 -12.957  -6.963  0.00  0.00    -0.059 A 
ATOM     21  C   UNL d   1      29.411 -12.439  -7.996  0.00  0.00     0.048 C 
ATOM     22  C   UNL d   1      27.477 -12.107  -6.441  0.00  0.00     0.044 A 
ATOM     23  C   UNL d   1      26.571 -12.571  -5.486  0.00  0.00     0.082 A 
BRANCH  23  24
ATOM     24  O   UNL d   1      25.668 -11.639  -5.041  0.00  0.00    -0.360 OA
ATOM     25  H   UNL d   1      24.779 -12.051  -5.024  0.00  0.00     0.217 HD
ENDBRANCH  23  24
ENDBRANCH   1  17
TORSDOF 8
ENDMDL
MODEL 4
REMARK VINA RESULT:    -6.685      2.376      8.601
REMARK INTER + INTRA:         -11.049
REMARK INTER:                  -9.071
REMARK INTRA:                  -1.978
REMARK CONF_INDEPENDENT:        2.386
REMARK UNBOUND:                -1.978
REMARK  8 active torsions:
REMARK  status: ('A' for Active; 'I' for Inactive)
REMARK    1  A    between atoms: C_5  and  C_6 
REMARK       I    between atoms: C_6  and  N_8 
REMARK    2  A    between atoms: N_8  and  N_9 
REMARK       I    between atoms: N_9  and  C_10 
REMARK    3  A    between atoms: C_12  and  C_10 
REMARK    4  A    between atoms: C_12  and  O_14 
REMARK    5  A    between atoms: O_14  and  C_15 
REMARK    6  A    between atoms: C_15  and  C_16 
REMARK    7  A    between atoms: C_16  and  C_17 
REMARK    8  A    between atoms: C_20  and  O_21 
ROOT
ATOM      1  C   UNL d   1      26.211 -13.747  -1.876  0.00  0.00     0.272 C 
ATOM      2  O   UNL d   1      26.657 -13.393  -0.792  0.00  0.00    -0.266 OA
ATOM      3  N   UNL d   1      25.638 -14.998  -2.089  0.00  0.00    -0.263 N 
ATOM      4  H   UNL d   1      25.239 -15.328  -2.961  0.00  0.00     0.190 HD
ENDROOT
BRANCH   3   5
ATOM      5  N   UNL d   1      25.473 -15.865  -1.003  0.00  0.00    -0.265 N 
ATOM      6  C   UNL d   1      24.733 -17.031  -1.143  0.00  0.00     0.264 C 
ATOM      7  O   UNL d   1      24.142 -17.297  -2.191  0.00  0.00    -0.269 OA
ATOM      8  H   UNL d   1      25.794 -15.517  -0.102  0.00  0.00     0.190 HD
BRANCH   6   9
ATOM      9  C   UNL d   1      24.759 -18.014   0.076  0.00  0.00     0.210 C 
ATOM     10  C   UNL d   1      26.203 -18.235   0.529  0.00  0.00     0.050 C 
BRANCH   9  11
ATOM     11  O   UNL d   1      24.164 -19.292  -0.140  0.00  0.00    -0.377 OA
BRANCH  11  12
ATOM     12  C   UNL d   1      22.902 -19.179  -0.792  0.00  0.00     0.169 C 
BRANCH  12  13
ATOM     13  C   UNL d   1      21.840 -18.810   0.227  0.00  0.00     0.030 C 
BRANCH  13  14
ATOM     14  C   UNL d   1      20.586 -19.673   0.031  0.00  0.00    -0.021 C 
ATOM     15  C   UNL d   1      19.876 -19.981   1.353  0.00  0.00     0.009 C 
ATOM     16  C   UNL d   1      19.610 -18.960  -0.893  0.00  0.00     0.009 C 
ENDBRANCH  13  14
ENDBRANCH  12  13
ENDBRANCH  11  12
ENDBRANCH   9  11
ENDBRANCH   6   9
ENDBRANCH   3   5
BRANCH   1  17
ATOM     17  C   UNL d   1      26.254 -12.778  -3.012  0.00  0.00     0.066 A 
ATOM     18  C   UNL d   1      27.064 -11.639  -2.953  0.00  0.00     0.020 A 
ATOM     19  C   UNL d   1      27.145 -10.760  -4.035  0.00  0.00     0.008 A 
ATOM     20  C   UNL d   1      26.422 -11.006  -5.204  0.00  0.00    -0.059 A 
ATOM     21  C   UNL d   1      26.512 -10.088  -6.385  0.00  0.00     0.048 C 
ATOM     22  C   UNL d   1      25.600 -12.135  -5.270  0.00  0.00     0.044 A 
ATOM     23  C   UNL d   1      25.509 -13.010  -4.185  0.00  0.00     0.082 A 
BRANCH  23  24
ATOM     24  O   UNL d   1      24.658 -14.071  -4.366  0.00  0.00    -0.360 OA
ATOM     25  H   UNL d   1      24.144 -13.920  -5.187  0.00  0.00     0.217 HD
ENDBRANCH  23  24
ENDBRANCH   1  17
TORSDOF 8
ENDMDL
MODEL 5
REMARK VINA RESULT:    -6.663      4.601      8.651
REMARK INTER + INTRA:         -11.061
REMARK INTER:                  -9.049
REMARK INTRA:                  -2.012
REMARK CONF_INDEPENDENT:        2.386
REMARK UNBOUND:                -2.012
REMARK  8 active torsions:
REMARK  status: ('A' for Active; 'I' for Inactive)
REMARK    1  A    between atoms: C_5  and  C_6 
REMARK       I    between atoms: C_6  and  N_8 
REMARK    2  A    between atoms: N_8  and  N_9 
REMARK       I    between atoms: N_9  and  C_10 
REMARK    3  A    between atoms: C_12  and  C_10 
REMARK    4  A    between atoms: C_12  and  O_14 
REMARK    5  A    between atoms: O_14  and  C_15 
REMARK    6  A    between atoms: C_15  and  C_16 
REMARK    7  A    between atoms: C_16  and  C_17 
REMARK    8  A    between atoms: C_20  and  O_21 
ROOT
ATOM      1  C   UNL d   1      27.385 -13.539   2.601  0.00  0.00     0.272 C 
ATOM      2  O   UNL d   1      26.800 -12.661   1.978  0.00  0.00    -0.266 OA
ATOM      3  N   UNL d   1      27.609 -14.814   2.087  0.00  0.00    -0.263 N 
ATOM      4  H   UNL d   1      28.103 -15.565   2.555  0.00  0.00     0.190 HD
ENDROOT
BRANCH   3   5
ATOM      5  N   UNL d   1      27.237 -15.089   0.766  0.00  0.00    -0.265 N 
ATOM      6  C   UNL d   1      27.089 -16.402   0.339  0.00  0.00     0.264 C 
ATOM      7  O   UNL d   1      27.351 -17.353   1.077  0.00  0.00    -0.269 OA
ATOM      8  H   UNL d   1      27.232 -14.295   0.129  0.00  0.00     0.190 HD
BRANCH   6   9
ATOM      9  C   UNL d   1      26.500 -16.596  -1.099  0.00  0.00     0.210 C 
ATOM     10  C   UNL d   1      25.732 -15.341  -1.515  0.00  0.00     0.050 C 
BRANCH   9  11
ATOM     11  O   UNL d   1      25.639 -17.719  -1.274  0.00  0.00    -0.377 OA
BRANCH  11  12
ATOM     12  C   UNL d   1      24.845 -17.957  -0.115  0.00  0.00     0.169 C 
BRANCH  12  13
ATOM     13  C   UNL d   1      23.751 -18.953  -0.449  0.00  0.00     0.030 C 
BRANCH  13  14
ATOM     14  C   UNL d   1      22.510 -18.227  -0.985  0.00  0.00    -0.021 C 
ATOM     15  C   UNL d   1      21.205 -18.883  -0.524  0.00  0.00     0.009 C 
ATOM     16  C   UNL d   1      22.519 -16.779  -0.519  0.00  0.00     0.009 C 
ENDBRANCH  13  14
ENDBRANCH  12  13
ENDBRANCH  11  12
ENDBRANCH   9  11
ENDBRANCH   6   9
ENDBRANCH   3   5
BRANCH   1  17
ATOM     17  C   UNL d   1      27.911 -13.215   3.960  0.00  0.00     0.066 A 
ATOM     18  C   UNL d   1      28.061 -11.886   4.373  0.00  0.00     0.020 A 
ATOM     19  C   UNL d   1      28.504 -11.582   5.662  0.00  0.00     0.008 A 
ATOM     20  C   UNL d   1      28.798 -12.601   6.570  0.00  0.00    -0.059 A 
ATOM     21  C   UNL d   1      29.252 -12.297   7.966  0.00  0.00     0.048 C 
ATOM     22  C   UNL d   1      28.663 -13.932   6.165  0.00  0.00     0.044 A 
ATOM     23  C   UNL d   1      28.231 -14.240   4.873  0.00  0.00     0.082 A 
BRANCH  23  24
ATOM     24  O   UNL d   1      28.154 -15.580   4.591  0.00  0.00    -0.360 OA
ATOM     25  H   UNL d   1      29.057 -15.910   4.400  0.00  0.00     0.217 HD
ENDBRANCH  23  24
ENDBRANCH   1  17
TORSDOF 8
ENDMDL
MODEL 6
REMARK VINA RESULT:    -6.560      1.860      8.938
REMARK INTER + INTRA:         -10.892
REMARK INTER:                  -8.947
REMARK INTRA:                  -1.946
REMARK CONF_INDEPENDENT:        2.386
REMARK UNBOUND:                -1.946
REMARK  8 active torsions:
REMARK  status: ('A' for Active; 'I' for Inactive)
REMARK    1  A    between atoms: C_5  and  C_6 
REMARK       I    between atoms: C_6  and  N_8 
REMARK    2  A    between atoms: N_8  and  N_9 
REMARK       I    between atoms: N_9  and  C_10 
REMARK    3  A    between atoms: C_12  and  C_10 
REMARK    4  A    between atoms: C_12  and  O_14 
REMARK    5  A    between atoms: O_14  and  C_15 
REMARK    6  A    between atoms: C_15  and  C_16 
REMARK    7  A    between atoms: C_16  and  C_17 
REMARK    8  A    between atoms: C_20  and  O_21 
ROOT
ATOM      1  C   UNL d   1      25.532 -15.337  -3.033  0.00  0.00     0.272 C 
ATOM      2  O   UNL d   1      24.790 -14.376  -3.198  0.00  0.00    -0.266 OA
ATOM      3  N   UNL d   1      25.184 -16.441  -2.258  0.00  0.00    -0.263 N 
ATOM      4  H   UNL d   1      25.754 -17.265  -2.108  0.00  0.00     0.190 HD
ENDROOT
BRANCH   3   5
ATOM      5  N   UNL d   1      23.896 -16.511  -1.714  0.00  0.00    -0.265 N 
ATOM      6  C   UNL d   1      23.398 -17.720  -1.247  0.00  0.00     0.264 C 
ATOM      7  O   UNL d   1      24.034 -18.769  -1.366  0.00  0.00    -0.269 OA
ATOM      8  H   UNL d   1      23.321 -15.678  -1.820  0.00  0.00     0.190 HD
BRANCH   6   9
ATOM      9  C   UNL d   1      22.024 -17.656  -0.499  0.00  0.00     0.210 C 
ATOM     10  C   UNL d   1      22.059 -18.574   0.724  0.00  0.00     0.050 C 
BRANCH   9  11
ATOM     11  O   UNL d   1      20.875 -17.996  -1.272  0.00  0.00    -0.377 OA
BRANCH  11  12
ATOM     12  C   UNL d   1      20.500 -19.357  -1.082  0.00  0.00     0.169 C 
BRANCH  12  13
ATOM     13  C   UNL d   1      19.185 -19.417  -0.328  0.00  0.00     0.030 C 
BRANCH  13  14
ATOM     14  C   UNL d   1      19.203 -20.564   0.691  0.00  0.00    -0.021 C 
ATOM     15  C   UNL d   1      19.536 -20.083   2.106  0.00  0.00     0.009 C 
ATOM     16  C   UNL d   1      17.847 -21.252   0.716  0.00  0.00     0.009 C 
ENDBRANCH  13  14
ENDBRANCH  12  13
ENDBRANCH  11  12
ENDBRANCH   9  11
ENDBRANCH   6   9
ENDBRANCH   3   5
BRANCH   1  17
ATOM     17  C   UNL d   1      26.856 -15.339  -3.722  0.00  0.00     0.066 A 
ATOM     18  C   UNL d   1      27.028 -14.680  -4.945  0.00  0.00     0.020 A 
ATOM     19  C   UNL d   1      28.279 -14.637  -5.566  0.00  0.00     0.008 A 
ATOM     20  C   UNL d   1      29.387 -15.244  -4.972  0.00  0.00    -0.059 A 
ATOM     21  C   UNL d   1      30.742 -15.189  -5.609  0.00  0.00     0.048 C 
ATOM     22  C   UNL d   1      29.224 -15.915  -3.756  0.00  0.00     0.044 A 
ATOM     23  C   UNL d   1      27.972 -15.970  -3.139  0.00  0.00     0.082 A 
BRANCH  23  24
ATOM     24  O   UNL d   1      27.938 -16.669  -1.959  0.00  0.00    -0.360 OA
ATOM     25  H   UNL d   1      28.834 -16.652  -1.562  0.00  0.00     0.217 HD
ENDBRANCH  23  24
ENDBRANCH   1  17
TORSDOF 8
ENDMDL
MODEL 7
REMARK VINA RESULT:    -6.514      2.159      3.294
REMARK INTER + INTRA:         -10.882
REMARK INTER:                  -8.900
REMARK INTRA:                  -1.981
REMARK CONF_INDEPENDENT:        2.386
REMARK UNBOUND:                -1.981
REMARK  8 active torsions:
REMARK  status: ('A' for Active; 'I' for Inactive)
REMARK    1  A    between atoms: C_5  and  C_6 
REMARK       I    between atoms: C_6  and  N_8 
REMARK    2  A    between atoms: N_8  and  N_9 
REMARK       I    between atoms: N_9  and  C_10 
REMARK    3  A    between atoms: C_12  and  C_10 
REMARK    4  A    between atoms: C_12  and  O_14 
REMARK    5  A    between atoms: O_14  and  C_15 
REMARK    6  A    between atoms: C_15  and  C_16 
REMARK    7  A    between atoms: C_16  and  C_17 
REMARK    8  A    between atoms: C_20  and  O_21 
ROOT
ATOM      1  C   UNL d   1      22.025 -18.135  -0.151  0.00  0.00     0.272 C 
ATOM      2  O   UNL d   1      21.755 -17.199  -0.894  0.00  0.00    -0.266 OA
ATOM      3  N   UNL d   1      23.302 -18.353   0.361  0.00  0.00    -0.263 N 
ATOM      4  H   UNL d   1      23.569 -19.099   0.993  0.00  0.00     0.190 HD
ENDROOT
BRANCH   3   5
ATOM      5  N   UNL d   1      24.308 -17.416   0.100  0.00  0.00    -0.265 N 
ATOM      6  C   UNL d   1      25.597 -17.622   0.575  0.00  0.00     0.264 C 
ATOM      7  O   UNL d   1      25.872 -18.581   1.298  0.00  0.00    -0.269 OA
ATOM      8  H   UNL d   1      24.004 -16.539  -0.316  0.00  0.00     0.190 HD
BRANCH   6   9
ATOM      9  C   UNL d   1      26.683 -16.609   0.079  0.00  0.00     0.210 C 
ATOM     10  C   UNL d   1      27.411 -17.188  -1.135  0.00  0.00     0.050 C 
BRANCH   9  11
ATOM     11  O   UNL d   1      27.665 -16.226   1.040  0.00  0.00    -0.377 OA
BRANCH  11  12
ATOM     12  C   UNL d   1      28.219 -14.948   0.743  0.00  0.00     0.169 C 
BRANCH  12  13
ATOM     13  C   UNL d   1      27.239 -13.865   1.152  0.00  0.00     0.030 C 
BRANCH  13  14
ATOM     14  C   UNL d   1      27.785 -13.071   2.346  0.00  0.00    -0.021 C 
ATOM     15  C   UNL d   1      27.322 -11.612   2.338  0.00  0.00     0.009 C 
ATOM     16  C   UNL d   1      27.332 -13.720   3.645  0.00  0.00     0.009 C 
ENDBRANCH  13  14
ENDBRANCH  12  13
ENDBRANCH  11  12
ENDBRANCH   9  11
ENDBRANCH   6   9
ENDBRANCH   3   5
BRANCH   1  17
ATOM     17  C   UNL d   1      20.927 -19.065   0.249  0.00  0.00     0.066 A 
ATOM     18  C   UNL d   1      20.660 -19.319   1.599  0.00  0.00     0.020 A 
ATOM     19  C   UNL d   1      19.600 -20.148   1.975  0.00  0.00     0.008 A 
ATOM     20  C   UNL d   1      18.779 -20.733   1.009  0.00  0.00    -0.059 A 
ATOM     21  C   UNL d   1      17.623 -21.606   1.393  0.00  0.00     0.048 C 
ATOM     22  C   UNL d   1      19.044 -20.495  -0.343  0.00  0.00     0.044 A 
ATOM     23  C   UNL d   1      20.110 -19.676  -0.723  0.00  0.00     0.082 A 
BRANCH  23  24
ATOM     24  O   UNL d   1      20.276 -19.532  -2.077  0.00  0.00    -0.360 OA
ATOM     25  H   UNL d   1      20.782 -18.709  -2.241  0.00  0.00     0.217 HD
ENDBRANCH  23  24
ENDBRANCH   1  17
TORSDOF 8
ENDMDL
MODEL 8
REMARK VINA RESULT:    -6.376      1.610      2.164
REMARK INTER + INTRA:         -10.762
REMARK INTER:                  -8.762
REMARK INTRA:                  -2.000
REMARK CONF_INDEPENDENT:        2.386
REMARK UNBOUND:                -2.000
REMARK  8 active torsions:
REMARK  status: ('A' for Active; 'I' for Inactive)
REMARK    1  A    between atoms: C_5  and  C_6 
REMARK       I    between atoms: C_6  and  N_8 
REMARK    2  A    between atoms: N_8  and  N_9 
REMARK       I    between atoms: N_9  and  C_10 
REMARK    3  A    between atoms: C_12  and  C_10 
REMARK    4  A    between atoms: C_12  and  O_14 
REMARK    5  A    between atoms: O_14  and  C_15 
REMARK    6  A    between atoms: C_15  and  C_16 
REMARK    7  A    between atoms: C_16  and  C_17 
REMARK    8  A    between atoms: C_20  and  O_21 
ROOT
ATOM      1  C   UNL d   1      21.904 -18.209  -0.270  0.00  0.00     0.272 C 
ATOM      2  O   UNL d   1      21.583 -17.311  -1.039  0.00  0.00    -0.266 OA
ATOM      3  N   UNL d   1      23.211 -18.401   0.170  0.00  0.00    -0.263 N 
ATOM      4  H   UNL d   1      23.521 -19.115   0.819  0.00  0.00     0.190 HD
ENDROOT
BRANCH   3   5
ATOM      5  N   UNL d   1      24.197 -17.478  -0.202  0.00  0.00    -0.265 N 
ATOM      6  C   UNL d   1      25.511 -17.654   0.208  0.00  0.00     0.264 C 
ATOM      7  O   UNL d   1      25.833 -18.571   0.966  0.00  0.00    -0.269 OA
ATOM      8  H   UNL d   1      23.864 -16.627  -0.649  0.00  0.00     0.190 HD
BRANCH   6   9
ATOM      9  C   UNL d   1      26.562 -16.670  -0.407  0.00  0.00     0.210 C 
ATOM     10  C   UNL d   1      26.156 -16.311  -1.838  0.00  0.00     0.050 C 
BRANCH   9  11
ATOM     11  O   UNL d   1      27.910 -17.133  -0.434  0.00  0.00    -0.377 OA
BRANCH  11  12
ATOM     12  C   UNL d   1      28.815 -16.092  -0.792  0.00  0.00     0.169 C 
BRANCH  12  13
ATOM     13  C   UNL d   1      29.825 -16.624  -1.791  0.00  0.00     0.030 C 
BRANCH  13  14
ATOM     14  C   UNL d   1      29.621 -15.964  -3.162  0.00  0.00    -0.021 C 
ATOM     15  C   UNL d   1      29.433 -14.448  -3.059  0.00  0.00     0.009 C 
ATOM     16  C   UNL d   1      30.821 -16.248  -4.053  0.00  0.00     0.009 C 
ENDBRANCH  13  14
ENDBRANCH  12  13
ENDBRANCH  11  12
ENDBRANCH   9  11
ENDBRANCH   6   9
ENDBRANCH   3   5
BRANCH   1  17
ATOM     17  C   UNL d   1      20.837 -19.116   0.246  0.00  0.00     0.066 A 
ATOM     18  C   UNL d   1      20.657 -19.303   1.622  0.00  0.00     0.020 A 
ATOM     19  C   UNL d   1      19.627 -20.111   2.107  0.00  0.00     0.008 A 
ATOM     20  C   UNL d   1      18.747 -20.744   1.226  0.00  0.00    -0.059 A 
ATOM     21  C   UNL d   1      17.620 -21.596   1.727  0.00  0.00     0.048 C 
ATOM     22  C   UNL d   1      18.924 -20.573  -0.150  0.00  0.00     0.044 A 
ATOM     23  C   UNL d   1      19.960 -19.775  -0.638  0.00  0.00     0.082 A 
BRANCH  23  24
ATOM     24  O   UNL d   1      20.039 -19.699  -2.006  0.00  0.00    -0.360 OA
ATOM     25  H   UNL d   1      20.531 -18.886  -2.244  0.00  0.00     0.217 HD
ENDBRANCH  23  24
ENDBRANCH   1  17
TORSDOF 8
ENDMDL
MODEL 9
REMARK VINA RESULT:    -5.964      4.696      8.510
REMARK INTER + INTRA:         -10.928
REMARK INTER:                  -8.351
REMARK INTRA:                  -2.577
REMARK CONF_INDEPENDENT:        2.386
REMARK UNBOUND:                -2.577
REMARK  8 active torsions:
REMARK  status: ('A' for Active; 'I' for Inactive)
REMARK    1  A    between atoms: C_5  and  C_6 
REMARK       I    between atoms: C_6  and  N_8 
REMARK    2  A    between atoms: N_8  and  N_9 
REMARK       I    between atoms: N_9  and  C_10 
REMARK    3  A    between atoms: C_12  and  C_10 
REMARK    4  A    between atoms: C_12  and  O_14 
REMARK    5  A    between atoms: O_14  and  C_15 
REMARK    6  A    between atoms: C_15  and  C_16 
REMARK    7  A    between atoms: C_16  and  C_17 
REMARK    8  A    between atoms: C_20  and  O_21 
ROOT
ATOM      1  C   UNL d   1      27.216 -13.594   2.699  0.00  0.00     0.272 C 
ATOM      2  O   UNL d   1      26.427 -12.831   2.154  0.00  0.00    -0.266 OA
ATOM      3  N   UNL d   1      27.681 -14.761   2.098  0.00  0.00    -0.263 N 
ATOM      4  H   UNL d   1      28.347 -15.411   2.499  0.00  0.00     0.190 HD
ENDROOT
BRANCH   3   5
ATOM      5  N   UNL d   1      27.311 -15.040   0.777  0.00  0.00    -0.265 N 
ATOM      6  C   UNL d   1      27.998 -15.999   0.045  0.00  0.00     0.264 C 
ATOM      7  O   UNL d   1      28.989 -16.570   0.501  0.00  0.00    -0.269 OA
ATOM      8  H   UNL d   1      26.629 -14.409   0.362  0.00  0.00     0.190 HD
BRANCH   6   9
ATOM      9  C   UNL d   1      27.394 -16.360  -1.354  0.00  0.00     0.210 C 
ATOM     10  C   UNL d   1      28.419 -16.065  -2.449  0.00  0.00     0.050 C 
BRANCH   9  11
ATOM     11  O   UNL d   1      26.178 -15.699  -1.698  0.00  0.00    -0.377 OA
BRANCH  11  12
ATOM     12  C   UNL d   1      25.151 -16.630  -2.030  0.00  0.00     0.169 C 
BRANCH  12  13
ATOM     13  C   UNL d   1      23.953 -16.401  -1.129  0.00  0.00     0.030 C 
BRANCH  13  14
ATOM     14  C   UNL d   1      23.715 -17.623  -0.232  0.00  0.00    -0.021 C 
ATOM     15  C   UNL d   1      22.937 -18.731  -0.947  0.00  0.00     0.009 C 
ATOM     16  C   UNL d   1      25.049 -18.187   0.234  0.00  0.00     0.009 C 
ENDBRANCH  13  14
ENDBRANCH  12  13
ENDBRANCH  11  12
ENDBRANCH   9  11
ENDBRANCH   6   9
ENDBRANCH   3   5
BRANCH   1  17
ATOM     17  C   UNL d   1      27.729 -13.236   4.055  0.00  0.00     0.066 A 
ATOM     18  C   UNL d   1      27.780 -11.902   4.473  0.00  0.00     0.020 A 
ATOM     19  C   UNL d   1      28.211 -11.570   5.760  0.00  0.00     0.008 A 
ATOM     20  C   UNL d   1      28.592 -12.568   6.660  0.00  0.00    -0.059 A 
ATOM     21  C   UNL d   1      29.034 -12.235   8.052  0.00  0.00     0.048 C 
ATOM     22  C   UNL d   1      28.556 -13.903   6.248  0.00  0.00     0.044 A 
ATOM     23  C   UNL d   1      28.137 -14.237   4.959  0.00  0.00     0.082 A 
BRANCH  23  24
ATOM     24  O   UNL d   1      28.160 -15.578   4.670  0.00  0.00    -0.360 OA
ATOM     25  H   UNL d   1      28.971 -15.771   4.155  0.00  0.00     0.217 HD
ENDBRANCH  23  24
ENDBRANCH   1  17
TORSDOF 8
ENDMDL
