MODEL 1
REMARK VINA RESULT:   -10.548      0.000      0.000
REMARK INTER + INTRA:         -14.792
REMARK INTER:                 -13.531
REMARK INTRA:                  -1.261
REMARK CONF_INDEPENDENT:        2.983
REMARK UNBOUND:                -1.261
REMARK  10 active torsions:
REMARK  status: ('A' for Active; 'I' for Inactive)
REMARK    1  A    between atoms: C_7  and  N_8 
REMARK       I    between atoms: N_8  and  C_9 
REMARK    2  A    between atoms: C_9  and  C_11 
REMARK    3  A    between atoms: C_14  and  C_15 
REMARK    4  A    between atoms: C_15  and  O_16 
REMARK    5  A    between atoms: O_16  and  C_17 
REMARK    6  A    between atoms: C_20  and  C_21 
REMARK       I    between atoms: C_21  and  N_23 
REMARK    7  A    between atoms: N_23  and  C_24 
REMARK    8  A    between atoms: C_24  and  C_25 
REMARK    9  A    between atoms: C_25  and  C_26 
REMARK   10  A    between atoms: C_26  and  N_27 
ROOT
ATOM      1  C   UNL d   1      27.259 -14.193  -0.065  0.00  0.00     0.069 A 
ATOM      2  C   UNL d   1      27.997 -14.935   0.849  0.00  0.00     0.038 A 
ATOM      3  C   UNL d   1      28.203 -14.457   2.146  0.00  0.00     0.020 A 
ATOM      4  C   UNL d   1      27.685 -13.224   2.555  0.00  0.00     0.032 A 
ATOM      5  C   UNL d   1      26.957 -12.470   1.616  0.00  0.00     0.020 A 
ATOM      6  C   UNL d   1      26.754 -12.951   0.311  0.00  0.00     0.038 A 
ENDROOT
BRANCH   1   7
ATOM      7  O   UNL d   1      27.057 -14.564  -1.359  0.00  0.00    -0.345 OA
BRANCH   7   8
ATOM      8  C   UNL d   1      27.088 -15.968  -1.609  0.00  0.00     0.244 C 
BRANCH   8   9
ATOM      9  C   UNL d   1      25.781 -16.556  -1.219  0.00  0.00     0.123 A 
ATOM     10  N   UNL d   1      24.660 -15.875  -1.319  0.00  0.00    -0.144 NA
ATOM     11  N   UNL d   1      23.604 -16.582  -0.828  0.00  0.00    -0.136 NA
ATOM     12  C   UNL d   1      23.958 -17.770  -0.375  0.00  0.00     0.189 A 
ATOM     13  S   UNL d   1      25.609 -18.125  -0.515  0.00  0.00    -0.044 SA
BRANCH  12  14
ATOM     14  C   UNL d   1      22.946 -18.769  -0.184  0.00  0.00     0.283 C 
ATOM     15  N   UNL d   1      21.821 -18.501   0.614  0.00  0.00    -0.321 N 
ATOM     16  H   UNL d   1      21.796 -17.590   1.060  0.00  0.00     0.169 HD
ATOM     17  O   UNL d   1      23.195 -19.811  -0.785  0.00  0.00    -0.265 OA
BRANCH  15  18
ATOM     18  C   UNL d   1      20.654 -19.328   0.844  0.00  0.00     0.041 A 
ATOM     19  C   UNL d   1      20.280 -19.605   2.180  0.00  0.00     0.030 A 
ATOM     20  C   UNL d   1      19.148 -20.395   2.484  0.00  0.00     0.002 A 
ATOM     21  C   UNL d   1      18.368 -20.933   1.471  0.00  0.00     0.001 A 
ATOM     22  C   UNL d   1      18.711 -20.675   0.160  0.00  0.00     0.009 A 
ATOM     23  C   UNL d   1      19.829 -19.882  -0.158  0.00  0.00    -0.035 A 
ATOM     24  C   UNL d   1      20.029 -19.699  -1.621  0.00  0.00     0.050 C 
ENDBRANCH  15  18
ENDBRANCH  12  14
ENDBRANCH   8   9
ENDBRANCH   7   8
ENDBRANCH   1   7
BRANCH   4  25
ATOM     25  C   UNL d   1      27.885 -12.690   3.952  0.00  0.00     0.251 C 
ATOM     26  O   UNL d   1      27.406 -11.608   4.276  0.00  0.00    -0.268 OA
ATOM     27  N   UNL d   1      28.618 -13.462   4.853  0.00  0.00    -0.357 N 
ATOM     28  H   UNL d   1      29.011 -14.340   4.557  0.00  0.00     0.162 HD
BRANCH  27  29
ATOM     29  C   UNL d   1      28.838 -13.027   6.225  0.00  0.00     0.124 C 
BRANCH  29  30
ATOM     30  C   UNL d   1      29.436 -14.129   7.130  0.00  0.00     0.047 C 
BRANCH  30  31
ATOM     31  C   UNL d   1      29.180 -13.817   8.613  0.00  0.00     0.236 C 
BRANCH  31  32
ATOM     32  N   UNL d   1      29.963 -14.745   9.574  0.00  0.00    -0.071 N 
ATOM     33  C   UNL d   1      31.462 -14.734   9.231  0.00  0.00     0.235 C 
ATOM     34  C   UNL d   1      32.258 -15.600  10.204  0.00  0.00     0.028 C 
ATOM     35  C   UNL d   1      32.042 -15.108  11.624  0.00  0.00     0.003 C 
ATOM     36  C   UNL d   1      30.572 -15.295  11.964  0.00  0.00     0.028 C 
ATOM     37  C   UNL d   1      29.708 -14.418  11.054  0.00  0.00     0.235 C 
ATOM     38  H   UNL d   1      29.633 -15.706   9.418  0.00  0.00     0.279 HD
ENDBRANCH  31  32
ENDBRANCH  30  31
ENDBRANCH  29  30
ENDBRANCH  27  29
ENDBRANCH   4  25
TORSDOF 10
ENDMDL
MODEL 2
REMARK VINA RESULT:    -9.650      6.946     10.857
REMARK INTER + INTRA:         -14.282
REMARK INTER:                 -12.633
REMARK INTRA:                  -1.649
REMARK CONF_INDEPENDENT:        2.983
REMARK UNBOUND:                -1.649
REMARK  10 active torsions:
REMARK  status: ('A' for Active; 'I' for Inactive)
REMARK    1  A    between atoms: C_7  and  N_8 
REMARK       I    between atoms: N_8  and  C_9 
REMARK    2  A    between atoms: C_9  and  C_11 
REMARK    3  A    between atoms: C_14  and  C_15 
REMARK    4  A    between atoms: C_15  and  O_16 
REMARK    5  A    between atoms: O_16  and  C_17 
REMARK    6  A    between atoms: C_20  and  C_21 
REMARK       I    between atoms: C_21  and  N_23 
REMARK    7  A    between atoms: N_23  and  C_24 
REMARK    8  A    between atoms: C_24  and  C_25 
REMARK    9  A    between atoms: C_25  and  C_26 
REMARK   10  A    between atoms: C_26  and  N_27 
ROOT
ATOM      1  C   UNL d   1      30.717 -15.173  -5.870  0.00  0.00     0.069 A 
ATOM      2  C   UNL d   1      30.421 -15.776  -4.654  0.00  0.00     0.038 A 
ATOM      3  C   UNL d   1      30.398 -17.170  -4.543  0.00  0.00     0.020 A 
ATOM      4  C   UNL d   1      30.662 -17.989  -5.646  0.00  0.00     0.032 A 
ATOM      5  C   UNL d   1      30.941 -17.368  -6.877  0.00  0.00     0.020 A 
ATOM      6  C   UNL d   1      30.960 -15.968  -6.988  0.00  0.00     0.038 A 
ENDROOT
BRANCH   1   7
ATOM      7  O   UNL d   1      30.709 -13.827  -6.072  0.00  0.00    -0.345 OA
BRANCH   7   8
ATOM      8  C   UNL d   1      29.490 -13.286  -6.578  0.00  0.00     0.244 C 
BRANCH   8   9
ATOM      9  C   UNL d   1      28.349 -13.976  -5.923  0.00  0.00     0.123 A 
ATOM     10  N   UNL d   1      27.732 -14.987  -6.497  0.00  0.00    -0.144 NA
ATOM     11  N   UNL d   1      26.670 -15.407  -5.755  0.00  0.00    -0.136 NA
ATOM     12  C   UNL d   1      26.517 -14.703  -4.648  0.00  0.00     0.189 A 
ATOM     13  S   UNL d   1      27.662 -13.475  -4.419  0.00  0.00    -0.044 SA
BRANCH  12  14
ATOM     14  C   UNL d   1      25.709 -15.241  -3.592  0.00  0.00     0.283 C 
ATOM     15  N   UNL d   1      26.167 -16.324  -2.824  0.00  0.00    -0.321 N 
ATOM     16  H   UNL d   1      27.068 -16.709  -3.087  0.00  0.00     0.169 HD
ATOM     17  O   UNL d   1      24.638 -14.649  -3.471  0.00  0.00    -0.265 OA
BRANCH  15  18
ATOM     18  C   UNL d   1      25.553 -16.937  -1.663  0.00  0.00     0.041 A 
ATOM     19  C   UNL d   1      24.169 -17.225  -1.709  0.00  0.00     0.030 A 
ATOM     20  C   UNL d   1      23.502 -17.833  -0.620  0.00  0.00     0.002 A 
ATOM     21  C   UNL d   1      24.192 -18.160   0.539  0.00  0.00     0.001 A 
ATOM     22  C   UNL d   1      25.544 -17.891   0.605  0.00  0.00     0.009 A 
ATOM     23  C   UNL d   1      26.223 -17.296  -0.473  0.00  0.00    -0.035 A 
ATOM     24  C   UNL d   1      27.677 -17.103  -0.225  0.00  0.00     0.050 C 
ENDBRANCH  15  18
ENDBRANCH  12  14
ENDBRANCH   8   9
ENDBRANCH   7   8
ENDBRANCH   1   7
BRANCH   4  25
ATOM     25  C   UNL d   1      30.654 -19.495  -5.549  0.00  0.00     0.251 C 
ATOM     26  O   UNL d   1      29.659 -20.083  -5.139  0.00  0.00    -0.268 OA
ATOM     27  N   UNL d   1      31.799 -20.186  -5.944  0.00  0.00    -0.357 N 
ATOM     28  H   UNL d   1      32.606 -19.677  -6.265  0.00  0.00     0.162 HD
BRANCH  27  29
ATOM     29  C   UNL d   1      31.863 -21.640  -5.901  0.00  0.00     0.124 C 
BRANCH  29  30
ATOM     30  C   UNL d   1      31.728 -22.217  -4.473  0.00  0.00     0.047 C 
BRANCH  30  31
ATOM     31  C   UNL d   1      31.565 -23.746  -4.515  0.00  0.00     0.236 C 
BRANCH  31  32
ATOM     32  N   UNL d   1      30.148 -24.218  -4.109  0.00  0.00    -0.071 N 
ATOM     33  C   UNL d   1      29.932 -25.686  -4.513  0.00  0.00     0.235 C 
ATOM     34  C   UNL d   1      28.560 -26.185  -4.071  0.00  0.00     0.028 C 
ATOM     35  C   UNL d   1      28.418 -26.031  -2.567  0.00  0.00     0.003 C 
ATOM     36  C   UNL d   1      28.475 -24.546  -2.244  0.00  0.00     0.028 C 
ATOM     37  C   UNL d   1      29.846 -23.981  -2.621  0.00  0.00     0.235 C 
ATOM     38  H   UNL d   1      29.469 -23.663  -4.645  0.00  0.00     0.279 HD
ENDBRANCH  31  32
ENDBRANCH  30  31
ENDBRANCH  29  30
ENDBRANCH  27  29
ENDBRANCH   4  25
TORSDOF 10
ENDMDL
MODEL 3
REMARK VINA RESULT:    -9.459      4.403      8.277
REMARK INTER + INTRA:         -14.208
REMARK INTER:                 -12.442
REMARK INTRA:                  -1.766
REMARK CONF_INDEPENDENT:        2.983
REMARK UNBOUND:                -1.766
REMARK  10 active torsions:
REMARK  status: ('A' for Active; 'I' for Inactive)
REMARK    1  A    between atoms: C_7  and  N_8 
REMARK       I    between atoms: N_8  and  C_9 
REMARK    2  A    between atoms: C_9  and  C_11 
REMARK    3  A    between atoms: C_14  and  C_15 
REMARK    4  A    between atoms: C_15  and  O_16 
REMARK    5  A    between atoms: O_16  and  C_17 
REMARK    6  A    between atoms: C_20  and  C_21 
REMARK       I    between atoms: C_21  and  N_23 
REMARK    7  A    between atoms: N_23  and  C_24 
REMARK    8  A    between atoms: C_24  and  C_25 
REMARK    9  A    between atoms: C_25  and  C_26 
REMARK   10  A    between atoms: C_26  and  N_27 
ROOT
ATOM      1  C   UNL d   1      25.936 -16.650  -0.378  0.00  0.00     0.069 A 
ATOM      2  C   UNL d   1      27.021 -17.509  -0.500  0.00  0.00     0.038 A 
ATOM      3  C   UNL d   1      28.317 -17.051  -0.242  0.00  0.00     0.020 A 
ATOM      4  C   UNL d   1      28.556 -15.725   0.135  0.00  0.00     0.032 A 
ATOM      5  C   UNL d   1      27.452 -14.859   0.236  0.00  0.00     0.020 A 
ATOM      6  C   UNL d   1      26.151 -15.319  -0.028  0.00  0.00     0.038 A 
ENDROOT
BRANCH   1   7
ATOM      7  O   UNL d   1      24.652 -17.004  -0.661  0.00  0.00    -0.345 OA
BRANCH   7   8
ATOM      8  C   UNL d   1      23.823 -15.961  -1.171  0.00  0.00     0.244 C 
BRANCH   8   9
ATOM      9  C   UNL d   1      24.451 -15.402  -2.396  0.00  0.00     0.123 A 
ATOM     10  N   UNL d   1      23.945 -14.359  -3.017  0.00  0.00    -0.144 NA
ATOM     11  N   UNL d   1      24.635 -14.074  -4.156  0.00  0.00    -0.136 NA
ATOM     12  C   UNL d   1      25.639 -14.908  -4.359  0.00  0.00     0.189 A 
ATOM     13  S   UNL d   1      25.826 -16.104  -3.173  0.00  0.00    -0.044 SA
BRANCH  12  14
ATOM     14  C   UNL d   1      26.676 -14.532  -5.276  0.00  0.00     0.283 C 
ATOM     15  N   UNL d   1      26.775 -13.208  -5.738  0.00  0.00    -0.321 N 
ATOM     16  H   UNL d   1      26.060 -12.567  -5.412  0.00  0.00     0.169 HD
ATOM     17  O   UNL d   1      27.409 -15.474  -5.569  0.00  0.00    -0.265 OA
BRANCH  15  18
ATOM     18  C   UNL d   1      27.797 -12.613  -6.575  0.00  0.00     0.041 A 
ATOM     19  C   UNL d   1      28.780 -13.460  -7.139  0.00  0.00     0.030 A 
ATOM     20  C   UNL d   1      29.802 -12.955  -7.975  0.00  0.00     0.002 A 
ATOM     21  C   UNL d   1      29.876 -11.600  -8.262  0.00  0.00     0.001 A 
ATOM     22  C   UNL d   1      28.927 -10.755  -7.726  0.00  0.00     0.009 A 
ATOM     23  C   UNL d   1      27.898 -11.243  -6.900  0.00  0.00    -0.035 A 
ATOM     24  C   UNL d   1      26.960 -10.187  -6.432  0.00  0.00     0.050 C 
ENDBRANCH  15  18
ENDBRANCH  12  14
ENDBRANCH   8   9
ENDBRANCH   7   8
ENDBRANCH   1   7
BRANCH   4  25
ATOM     25  C   UNL d   1      29.943 -15.210   0.430  0.00  0.00     0.251 C 
ATOM     26  O   UNL d   1      30.233 -14.042   0.192  0.00  0.00    -0.268 OA
ATOM     27  N   UNL d   1      30.871 -16.095   0.980  0.00  0.00    -0.357 N 
ATOM     28  H   UNL d   1      30.610 -17.051   1.152  0.00  0.00     0.162 HD
BRANCH  27  29
ATOM     29  C   UNL d   1      32.223 -15.670   1.312  0.00  0.00     0.124 C 
BRANCH  29  30
ATOM     30  C   UNL d   1      32.413 -15.343   2.811  0.00  0.00     0.047 C 
BRANCH  30  31
ATOM     31  C   UNL d   1      31.523 -14.161   3.230  0.00  0.00     0.236 C 
BRANCH  31  32
ATOM     32  N   UNL d   1      30.079 -14.586   3.592  0.00  0.00    -0.071 N 
ATOM     33  C   UNL d   1      29.948 -14.813   5.107  0.00  0.00     0.235 C 
ATOM     34  C   UNL d   1      28.517 -15.179   5.490  0.00  0.00     0.028 C 
ATOM     35  C   UNL d   1      27.569 -14.080   5.041  0.00  0.00     0.003 C 
ATOM     36  C   UNL d   1      27.619 -14.012   3.523  0.00  0.00     0.028 C 
ATOM     37  C   UNL d   1      29.021 -13.606   3.064  0.00  0.00     0.235 C 
ATOM     38  H   UNL d   1      29.898 -15.493   3.143  0.00  0.00     0.279 HD
ENDBRANCH  31  32
ENDBRANCH  30  31
ENDBRANCH  29  30
ENDBRANCH  27  29
ENDBRANCH   4  25
TORSDOF 10
ENDMDL
MODEL 4
REMARK VINA RESULT:    -9.385      6.442      8.882
REMARK INTER + INTRA:         -14.255
REMARK INTER:                 -12.368
REMARK INTRA:                  -1.887
REMARK CONF_INDEPENDENT:        2.983
REMARK UNBOUND:                -1.887
REMARK  10 active torsions:
REMARK  status: ('A' for Active; 'I' for Inactive)
REMARK    1  A    between atoms: C_7  and  N_8 
REMARK       I    between atoms: N_8  and  C_9 
REMARK    2  A    between atoms: C_9  and  C_11 
REMARK    3  A    between atoms: C_14  and  C_15 
REMARK    4  A    between atoms: C_15  and  O_16 
REMARK    5  A    between atoms: O_16  and  C_17 
REMARK    6  A    between atoms: C_20  and  C_21 
REMARK       I    between atoms: C_21  and  N_23 
REMARK    7  A    between atoms: N_23  and  C_24 
REMARK    8  A    between atoms: C_24  and  C_25 
REMARK    9  A    between atoms: C_25  and  C_26 
REMARK   10  A    between atoms: C_26  and  N_27 
ROOT
ATOM      1  C   UNL d   1      26.692 -14.755  -3.138  0.00  0.00     0.069 A 
ATOM      2  C   UNL d   1      25.530 -14.040  -3.403  0.00  0.00     0.038 A 
ATOM      3  C   UNL d   1      25.570 -12.899  -4.210  0.00  0.00     0.020 A 
ATOM      4  C   UNL d   1      26.773 -12.443  -4.761  0.00  0.00     0.032 A 
ATOM      5  C   UNL d   1      27.947 -13.163  -4.470  0.00  0.00     0.020 A 
ATOM      6  C   UNL d   1      27.905 -14.306  -3.656  0.00  0.00     0.038 A 
ENDROOT
BRANCH   1   7
ATOM      7  O   UNL d   1      26.745 -15.843  -2.322  0.00  0.00    -0.345 OA
BRANCH   7   8
ATOM      8  C   UNL d   1      26.294 -15.634  -0.985  0.00  0.00     0.244 C 
BRANCH   8   9
ATOM      9  C   UNL d   1      25.156 -16.549  -0.712  0.00  0.00     0.123 A 
ATOM     10  N   UNL d   1      25.236 -17.498   0.196  0.00  0.00    -0.144 NA
ATOM     11  N   UNL d   1      24.109 -18.263   0.216  0.00  0.00    -0.136 NA
ATOM     12  C   UNL d   1      23.216 -17.870  -0.673  0.00  0.00     0.189 A 
ATOM     13  S   UNL d   1      23.676 -16.530  -1.604  0.00  0.00    -0.044 SA
BRANCH  12  14
ATOM     14  C   UNL d   1      21.857 -18.306  -0.529  0.00  0.00     0.283 C 
ATOM     15  N   UNL d   1      21.553 -19.457   0.218  0.00  0.00    -0.321 N 
ATOM     16  H   UNL d   1      22.344 -19.961   0.605  0.00  0.00     0.169 HD
ATOM     17  O   UNL d   1      21.063 -17.572  -1.112  0.00  0.00    -0.265 OA
BRANCH  15  18
ATOM     18  C   UNL d   1      20.253 -19.998   0.562  0.00  0.00     0.041 A 
ATOM     19  C   UNL d   1      19.347 -20.286  -0.485  0.00  0.00     0.030 A 
ATOM     20  C   UNL d   1      18.065 -20.825  -0.228  0.00  0.00     0.002 A 
ATOM     21  C   UNL d   1      17.653 -21.082   1.072  0.00  0.00     0.001 A 
ATOM     22  C   UNL d   1      18.521 -20.811   2.110  0.00  0.00     0.009 A 
ATOM     23  C   UNL d   1      19.803 -20.284   1.869  0.00  0.00    -0.035 A 
ATOM     24  C   UNL d   1      20.602 -20.077   3.108  0.00  0.00     0.050 C 
ENDBRANCH  15  18
ENDBRANCH  12  14
ENDBRANCH   8   9
ENDBRANCH   7   8
ENDBRANCH   1   7
BRANCH   4  25
ATOM     25  C   UNL d   1      26.841 -11.221  -5.643  0.00  0.00     0.251 C 
ATOM     26  O   UNL d   1      27.923 -10.815  -6.055  0.00  0.00    -0.268 OA
ATOM     27  N   UNL d   1      25.647 -10.581  -5.975  0.00  0.00    -0.357 N 
ATOM     28  H   UNL d   1      24.775 -10.928  -5.612  0.00  0.00     0.162 HD
BRANCH  27  29
ATOM     29  C   UNL d   1      25.627  -9.409  -6.838  0.00  0.00     0.124 C 
BRANCH  29  30
ATOM     30  C   UNL d   1      25.406  -8.085  -6.070  0.00  0.00     0.047 C 
BRANCH  30  31
ATOM     31  C   UNL d   1      24.450  -8.295  -4.883  0.00  0.00     0.236 C 
BRANCH  31  32
ATOM     32  N   UNL d   1      25.142  -8.129  -3.508  0.00  0.00    -0.071 N 
ATOM     33  C   UNL d   1      25.977  -9.375  -3.171  0.00  0.00     0.235 C 
ATOM     34  C   UNL d   1      26.711  -9.206  -1.844  0.00  0.00     0.028 C 
ATOM     35  C   UNL d   1      27.603  -7.979  -1.904  0.00  0.00     0.003 C 
ATOM     36  C   UNL d   1      26.710  -6.761  -2.075  0.00  0.00     0.028 C 
ATOM     37  C   UNL d   1      25.970  -6.838  -3.412  0.00  0.00     0.235 C 
ATOM     38  H   UNL d   1      24.405  -8.067  -2.794  0.00  0.00     0.279 HD
ENDBRANCH  31  32
ENDBRANCH  30  31
ENDBRANCH  29  30
ENDBRANCH  27  29
ENDBRANCH   4  25
TORSDOF 10
ENDMDL
MODEL 5
REMARK VINA RESULT:    -9.333      6.104     10.009
REMARK INTER + INTRA:         -14.512
REMARK INTER:                 -12.316
REMARK INTRA:                  -2.196
REMARK CONF_INDEPENDENT:        2.983
REMARK UNBOUND:                -2.196
REMARK  10 active torsions:
REMARK  status: ('A' for Active; 'I' for Inactive)
REMARK    1  A    between atoms: C_7  and  N_8 
REMARK       I    between atoms: N_8  and  C_9 
REMARK    2  A    between atoms: C_9  and  C_11 
REMARK    3  A    between atoms: C_14  and  C_15 
REMARK    4  A    between atoms: C_15  and  O_16 
REMARK    5  A    between atoms: O_16  and  C_17 
REMARK    6  A    between atoms: C_20  and  C_21 
REMARK       I    between atoms: C_21  and  N_23 
REMARK    7  A    between atoms: N_23  and  C_24 
REMARK    8  A    between atoms: C_24  and  C_25 
REMARK    9  A    between atoms: C_25  and  C_26 
REMARK   10  A    between atoms: C_26  and  N_27 
ROOT
ATOM      1  C   UNL d   1      26.512 -14.530  -2.781  0.00  0.00     0.069 A 
ATOM      2  C   UNL d   1      26.153 -14.392  -4.116  0.00  0.00     0.038 A 
ATOM      3  C   UNL d   1      27.044 -14.759  -5.129  0.00  0.00     0.020 A 
ATOM      4  C   UNL d   1      28.315 -15.262  -4.829  0.00  0.00     0.032 A 
ATOM      5  C   UNL d   1      28.676 -15.378  -3.474  0.00  0.00     0.020 A 
ATOM      6  C   UNL d   1      27.780 -15.005  -2.457  0.00  0.00     0.038 A 
ENDROOT
BRANCH   1   7
ATOM      7  O   UNL d   1      25.722 -14.148  -1.739  0.00  0.00    -0.345 OA
BRANCH   7   8
ATOM      8  C   UNL d   1      26.015 -14.764  -0.486  0.00  0.00     0.244 C 
BRANCH   8   9
ATOM      9  C   UNL d   1      25.287 -16.056  -0.402  0.00  0.00     0.123 A 
ATOM     10  N   UNL d   1      25.818 -17.111   0.177  0.00  0.00    -0.144 NA
ATOM     11  N   UNL d   1      25.010 -18.201   0.063  0.00  0.00    -0.136 NA
ATOM     12  C   UNL d   1      23.896 -17.937  -0.597  0.00  0.00     0.189 A 
ATOM     13  S   UNL d   1      23.743 -16.335  -1.127  0.00  0.00    -0.044 SA
BRANCH  12  14
ATOM     14  C   UNL d   1      22.790 -18.842  -0.478  0.00  0.00     0.283 C 
ATOM     15  N   UNL d   1      21.868 -18.708   0.575  0.00  0.00    -0.321 N 
ATOM     16  H   UNL d   1      22.058 -17.969   1.243  0.00  0.00     0.169 HD
ATOM     17  O   UNL d   1      22.773 -19.685  -1.372  0.00  0.00    -0.265 OA
BRANCH  15  18
ATOM     18  C   UNL d   1      20.644 -19.447   0.808  0.00  0.00     0.041 A 
ATOM     19  C   UNL d   1      20.275 -19.730   2.144  0.00  0.00     0.030 A 
ATOM     20  C   UNL d   1      19.090 -20.436   2.452  0.00  0.00     0.002 A 
ATOM     21  C   UNL d   1      18.250 -20.882   1.442  0.00  0.00     0.001 A 
ATOM     22  C   UNL d   1      18.587 -20.615   0.131  0.00  0.00     0.009 A 
ATOM     23  C   UNL d   1      19.758 -19.905  -0.191  0.00  0.00    -0.035 A 
ATOM     24  C   UNL d   1      19.944 -19.697  -1.652  0.00  0.00     0.050 C 
ENDBRANCH  15  18
ENDBRANCH  12  14
ENDBRANCH   8   9
ENDBRANCH   7   8
ENDBRANCH   1   7
BRANCH   4  25
ATOM     25  C   UNL d   1      29.291 -15.675  -5.903  0.00  0.00     0.251 C 
ATOM     26  O   UNL d   1      29.335 -15.066  -6.967  0.00  0.00    -0.268 OA
ATOM     27  N   UNL d   1      30.136 -16.755  -5.645  0.00  0.00    -0.357 N 
ATOM     28  H   UNL d   1      30.069 -17.245  -4.769  0.00  0.00     0.162 HD
BRANCH  27  29
ATOM     29  C   UNL d   1      31.118 -17.202  -6.622  0.00  0.00     0.124 C 
BRANCH  29  30
ATOM     30  C   UNL d   1      32.218 -16.153  -6.909  0.00  0.00     0.047 C 
BRANCH  30  31
ATOM     31  C   UNL d   1      32.101 -15.618  -8.346  0.00  0.00     0.236 C 
BRANCH  31  32
ATOM     32  N   UNL d   1      31.574 -14.165  -8.413  0.00  0.00    -0.071 N 
ATOM     33  C   UNL d   1      31.660 -13.496  -7.031  0.00  0.00     0.235 C 
ATOM     34  C   UNL d   1      31.196 -12.044  -7.089  0.00  0.00     0.028 C 
ATOM     35  C   UNL d   1      32.037 -11.276  -8.095  0.00  0.00     0.003 C 
ATOM     36  C   UNL d   1      31.785 -11.878  -9.468  0.00  0.00     0.028 C 
ATOM     37  C   UNL d   1      32.269 -13.330  -9.500  0.00  0.00     0.235 C 
ATOM     38  H   UNL d   1      30.576 -14.205  -8.658  0.00  0.00     0.279 HD
ENDBRANCH  31  32
ENDBRANCH  30  31
ENDBRANCH  29  30
ENDBRANCH  27  29
ENDBRANCH   4  25
TORSDOF 10
ENDMDL
MODEL 6
REMARK VINA RESULT:    -9.230      4.233      6.270
REMARK INTER + INTRA:         -14.654
REMARK INTER:                 -12.213
REMARK INTRA:                  -2.441
REMARK CONF_INDEPENDENT:        2.983
REMARK UNBOUND:                -2.441
REMARK  10 active torsions:
REMARK  status: ('A' for Active; 'I' for Inactive)
REMARK    1  A    between atoms: C_7  and  N_8 
REMARK       I    between atoms: N_8  and  C_9 
REMARK    2  A    between atoms: C_9  and  C_11 
REMARK    3  A    between atoms: C_14  and  C_15 
REMARK    4  A    between atoms: C_15  and  O_16 
REMARK    5  A    between atoms: O_16  and  C_17 
REMARK    6  A    between atoms: C_20  and  C_21 
REMARK       I    between atoms: C_21  and  N_23 
REMARK    7  A    between atoms: N_23  and  C_24 
REMARK    8  A    between atoms: C_24  and  C_25 
REMARK    9  A    between atoms: C_25  and  C_26 
REMARK   10  A    between atoms: C_26  and  N_27 
ROOT
ATOM      1  C   UNL d   1      30.015 -12.985  -4.663  0.00  0.00     0.069 A 
ATOM      2  C   UNL d   1      29.588 -12.197  -3.601  0.00  0.00     0.038 A 
ATOM      3  C   UNL d   1      29.553 -12.716  -2.303  0.00  0.00     0.020 A 
ATOM      4  C   UNL d   1      29.936 -14.036  -2.041  0.00  0.00     0.032 A 
ATOM      5  C   UNL d   1      30.347 -14.832  -3.126  0.00  0.00     0.020 A 
ATOM      6  C   UNL d   1      30.377 -14.309  -4.430  0.00  0.00     0.038 A 
ENDROOT
BRANCH   1   7
ATOM      7  O   UNL d   1      30.028 -12.570  -5.959  0.00  0.00    -0.345 OA
BRANCH   7   8
ATOM      8  C   UNL d   1      28.776 -12.632  -6.640  0.00  0.00     0.244 C 
BRANCH   8   9
ATOM      9  C   UNL d   1      27.874 -13.557  -5.906  0.00  0.00     0.123 A 
ATOM     10  N   UNL d   1      27.828 -14.841  -6.185  0.00  0.00    -0.144 NA
ATOM     11  N   UNL d   1      26.874 -15.476  -5.447  0.00  0.00    -0.136 NA
ATOM     12  C   UNL d   1      26.233 -14.654  -4.637  0.00  0.00     0.189 A 
ATOM     13  S   UNL d   1      26.745 -13.040  -4.705  0.00  0.00    -0.044 SA
BRANCH  12  14
ATOM     14  C   UNL d   1      25.486 -15.204  -3.543  0.00  0.00     0.283 C 
ATOM     15  N   UNL d   1      25.969 -16.320  -2.838  0.00  0.00    -0.321 N 
ATOM     16  H   UNL d   1      26.840 -16.717  -3.174  0.00  0.00     0.169 HD
ATOM     17  O   UNL d   1      24.442 -14.591  -3.331  0.00  0.00    -0.265 OA
BRANCH  15  18
ATOM     18  C   UNL d   1      25.422 -16.953  -1.655  0.00  0.00     0.041 A 
ATOM     19  C   UNL d   1      24.023 -17.148  -1.584  0.00  0.00     0.030 A 
ATOM     20  C   UNL d   1      23.417 -17.768  -0.467  0.00  0.00     0.002 A 
ATOM     21  C   UNL d   1      24.184 -18.200   0.605  0.00  0.00     0.001 A 
ATOM     22  C   UNL d   1      25.552 -18.022   0.557  0.00  0.00     0.009 A 
ATOM     23  C   UNL d   1      26.170 -17.416  -0.551  0.00  0.00    -0.035 A 
ATOM     24  C   UNL d   1      27.651 -17.328  -0.431  0.00  0.00     0.050 C 
ENDBRANCH  15  18
ENDBRANCH  12  14
ENDBRANCH   8   9
ENDBRANCH   7   8
ENDBRANCH   1   7
BRANCH   4  25
ATOM     25  C   UNL d   1      29.918 -14.618  -0.649  0.00  0.00     0.251 C 
ATOM     26  O   UNL d   1      28.874 -14.649  -0.005  0.00  0.00    -0.268 OA
ATOM     27  N   UNL d   1      31.112 -15.117  -0.129  0.00  0.00    -0.357 N 
ATOM     28  H   UNL d   1      31.956 -15.066  -0.674  0.00  0.00     0.162 HD
BRANCH  27  29
ATOM     29  C   UNL d   1      31.173 -15.713   1.198  0.00  0.00     0.124 C 
BRANCH  29  30
ATOM     30  C   UNL d   1      32.237 -15.064   2.113  0.00  0.00     0.047 C 
BRANCH  30  31
ATOM     31  C   UNL d   1      31.571 -14.241   3.228  0.00  0.00     0.236 C 
BRANCH  31  32
ATOM     32  N   UNL d   1      30.099 -14.644   3.486  0.00  0.00    -0.071 N 
ATOM     33  C   UNL d   1      29.834 -14.785   4.994  0.00  0.00     0.235 C 
ATOM     34  C   UNL d   1      28.373 -15.129   5.269  0.00  0.00     0.028 C 
ATOM     35  C   UNL d   1      27.474 -14.057   4.679  0.00  0.00     0.003 C 
ATOM     36  C   UNL d   1      27.657 -14.075   3.169  0.00  0.00     0.028 C 
ATOM     37  C   UNL d   1      29.096 -13.695   2.812  0.00  0.00     0.235 C 
ATOM     38  H   UNL d   1      29.954 -15.575   3.074  0.00  0.00     0.279 HD
ENDBRANCH  31  32
ENDBRANCH  30  31
ENDBRANCH  29  30
ENDBRANCH  27  29
ENDBRANCH   4  25
TORSDOF 10
ENDMDL
MODEL 7
REMARK VINA RESULT:    -8.702      5.342      9.463
REMARK INTER + INTRA:         -14.572
REMARK INTER:                 -11.685
REMARK INTRA:                  -2.887
REMARK CONF_INDEPENDENT:        2.983
REMARK UNBOUND:                -2.887
REMARK  10 active torsions:
REMARK  status: ('A' for Active; 'I' for Inactive)
REMARK    1  A    between atoms: C_7  and  N_8 
REMARK       I    between atoms: N_8  and  C_9 
REMARK    2  A    between atoms: C_9  and  C_11 
REMARK    3  A    between atoms: C_14  and  C_15 
REMARK    4  A    between atoms: C_15  and  O_16 
REMARK    5  A    between atoms: O_16  and  C_17 
REMARK    6  A    between atoms: C_20  and  C_21 
REMARK       I    between atoms: C_21  and  N_23 
REMARK    7  A    between atoms: N_23  and  C_24 
REMARK    8  A    between atoms: C_24  and  C_25 
REMARK    9  A    between atoms: C_25  and  C_26 
REMARK   10  A    between atoms: C_26  and  N_27 
ROOT
ATOM      1  C   UNL d   1      25.385 -14.651  -2.601  0.00  0.00     0.069 A 
ATOM      2  C   UNL d   1      25.840 -15.949  -2.406  0.00  0.00     0.038 A 
ATOM      3  C   UNL d   1      26.832 -16.216  -1.458  0.00  0.00     0.020 A 
ATOM      4  C   UNL d   1      27.397 -15.191  -0.691  0.00  0.00     0.032 A 
ATOM      5  C   UNL d   1      26.943 -13.877  -0.910  0.00  0.00     0.020 A 
ATOM      6  C   UNL d   1      25.949 -13.610  -1.866  0.00  0.00     0.038 A 
ENDROOT
BRANCH   1   7
ATOM      7  O   UNL d   1      24.461 -14.302  -3.538  0.00  0.00    -0.345 OA
BRANCH   7   8
ATOM      8  C   UNL d   1      24.958 -13.553  -4.645  0.00  0.00     0.244 C 
BRANCH   8   9
ATOM      9  C   UNL d   1      26.293 -14.083  -5.025  0.00  0.00     0.123 A 
ATOM     10  N   UNL d   1      26.432 -15.263  -5.589  0.00  0.00    -0.144 NA
ATOM     11  N   UNL d   1      27.745 -15.575  -5.773  0.00  0.00    -0.136 NA
ATOM     12  C   UNL d   1      28.555 -14.624  -5.343  0.00  0.00     0.189 A 
ATOM     13  S   UNL d   1      27.779 -13.268  -4.686  0.00  0.00    -0.044 SA
BRANCH  12  14
ATOM     14  C   UNL d   1      29.915 -14.616  -5.797  0.00  0.00     0.283 C 
ATOM     15  N   UNL d   1      30.237 -15.045  -7.096  0.00  0.00    -0.321 N 
ATOM     16  H   UNL d   1      29.464 -15.383  -7.659  0.00  0.00     0.169 HD
ATOM     17  O   UNL d   1      30.695 -14.204  -4.941  0.00  0.00    -0.265 OA
BRANCH  15  18
ATOM     18  C   UNL d   1      31.520 -15.017  -7.769  0.00  0.00     0.041 A 
ATOM     19  C   UNL d   1      32.323 -16.181  -7.731  0.00  0.00     0.030 A 
ATOM     20  C   UNL d   1      33.582 -16.234  -8.374  0.00  0.00     0.002 A 
ATOM     21  C   UNL d   1      34.073 -15.133  -9.060  0.00  0.00     0.001 A 
ATOM     22  C   UNL d   1      33.306 -13.987  -9.113  0.00  0.00     0.009 A 
ATOM     23  C   UNL d   1      32.047 -13.922  -8.487  0.00  0.00    -0.035 A 
ATOM     24  C   UNL d   1      31.361 -12.615  -8.669  0.00  0.00     0.050 C 
ENDBRANCH  15  18
ENDBRANCH  12  14
ENDBRANCH   8   9
ENDBRANCH   7   8
ENDBRANCH   1   7
BRANCH   4  25
ATOM     25  C   UNL d   1      28.460 -15.454   0.346  0.00  0.00     0.251 C 
ATOM     26  O   UNL d   1      28.156 -15.582   1.527  0.00  0.00    -0.268 OA
ATOM     27  N   UNL d   1      29.785 -15.553  -0.081  0.00  0.00    -0.357 N 
ATOM     28  H   UNL d   1      30.008 -15.431  -1.054  0.00  0.00     0.162 HD
BRANCH  27  29
ATOM     29  C   UNL d   1      30.867 -15.825   0.855  0.00  0.00     0.124 C 
BRANCH  29  30
ATOM     30  C   UNL d   1      31.397 -14.559   1.566  0.00  0.00     0.047 C 
BRANCH  30  31
ATOM     31  C   UNL d   1      31.354 -14.730   3.093  0.00  0.00     0.236 C 
BRANCH  31  32
ATOM     32  N   UNL d   1      29.916 -14.742   3.664  0.00  0.00    -0.071 N 
ATOM     33  C   UNL d   1      29.944 -14.897   5.194  0.00  0.00     0.235 C 
ATOM     34  C   UNL d   1      28.536 -14.854   5.780  0.00  0.00     0.028 C 
ATOM     35  C   UNL d   1      27.861 -13.548   5.399  0.00  0.00     0.003 C 
ATOM     36  C   UNL d   1      27.713 -13.524   3.886  0.00  0.00     0.028 C 
ATOM     37  C   UNL d   1      29.093 -13.520   3.225  0.00  0.00     0.235 C 
ATOM     38  H   UNL d   1      29.439 -15.573   3.293  0.00  0.00     0.279 HD
ENDBRANCH  31  32
ENDBRANCH  30  31
ENDBRANCH  29  30
ENDBRANCH  27  29
ENDBRANCH   4  25
TORSDOF 10
ENDMDL
MODEL 8
REMARK VINA RESULT:    -8.536      6.449      8.785
REMARK INTER + INTRA:         -14.126
REMARK INTER:                 -11.519
REMARK INTRA:                  -2.606
REMARK CONF_INDEPENDENT:        2.983
REMARK UNBOUND:                -2.606
REMARK  10 active torsions:
REMARK  status: ('A' for Active; 'I' for Inactive)
REMARK    1  A    between atoms: C_7  and  N_8 
REMARK       I    between atoms: N_8  and  C_9 
REMARK    2  A    between atoms: C_9  and  C_11 
REMARK    3  A    between atoms: C_14  and  C_15 
REMARK    4  A    between atoms: C_15  and  O_16 
REMARK    5  A    between atoms: O_16  and  C_17 
REMARK    6  A    between atoms: C_20  and  C_21 
REMARK       I    between atoms: C_21  and  N_23 
REMARK    7  A    between atoms: N_23  and  C_24 
REMARK    8  A    between atoms: C_24  and  C_25 
REMARK    9  A    between atoms: C_25  and  C_26 
REMARK   10  A    between atoms: C_26  and  N_27 
ROOT
ATOM      1  C   UNL d   1      30.631 -15.612  -6.222  0.00  0.00     0.069 A 
ATOM      2  C   UNL d   1      30.601 -16.727  -7.051  0.00  0.00     0.038 A 
ATOM      3  C   UNL d   1      30.659 -18.014  -6.508  0.00  0.00     0.020 A 
ATOM      4  C   UNL d   1      30.758 -18.213  -5.127  0.00  0.00     0.032 A 
ATOM      5  C   UNL d   1      30.807 -17.078  -4.298  0.00  0.00     0.020 A 
ATOM      6  C   UNL d   1      30.753 -15.785  -4.846  0.00  0.00     0.038 A 
ENDROOT
BRANCH   1   7
ATOM      7  O   UNL d   1      30.631 -14.328  -6.676  0.00  0.00    -0.345 OA
BRANCH   7   8
ATOM      8  C   UNL d   1      29.345 -13.764  -6.928  0.00  0.00     0.244 C 
BRANCH   8   9
ATOM      9  C   UNL d   1      28.379 -14.304  -5.938  0.00  0.00     0.123 A 
ATOM     10  N   UNL d   1      27.476 -15.200  -6.272  0.00  0.00    -0.144 NA
ATOM     11  N   UNL d   1      26.649 -15.486  -5.228  0.00  0.00    -0.136 NA
ATOM     12  C   UNL d   1      26.952 -14.800  -4.141  0.00  0.00     0.189 A 
ATOM     13  S   UNL d   1      28.275 -13.754  -4.303  0.00  0.00    -0.044 SA
BRANCH  12  14
ATOM     14  C   UNL d   1      26.445 -15.248  -2.876  0.00  0.00     0.283 C 
ATOM     15  N   UNL d   1      25.554 -16.333  -2.808  0.00  0.00    -0.321 N 
ATOM     16  H   UNL d   1      25.278 -16.741  -3.695  0.00  0.00     0.169 HD
ATOM     17  O   UNL d   1      26.880 -14.588  -1.935  0.00  0.00    -0.265 OA
BRANCH  15  18
ATOM     18  C   UNL d   1      25.017 -16.993  -1.636  0.00  0.00     0.041 A 
ATOM     19  C   UNL d   1      23.618 -17.194  -1.560  0.00  0.00     0.030 A 
ATOM     20  C   UNL d   1      23.021 -17.840  -0.454  0.00  0.00     0.002 A 
ATOM     21  C   UNL d   1      23.797 -18.294   0.604  0.00  0.00     0.001 A 
ATOM     22  C   UNL d   1      25.163 -18.112   0.551  0.00  0.00     0.009 A 
ATOM     23  C   UNL d   1      25.773 -17.479  -0.547  0.00  0.00    -0.035 A 
ATOM     24  C   UNL d   1      27.254 -17.392  -0.435  0.00  0.00     0.050 C 
ENDBRANCH  15  18
ENDBRANCH  12  14
ENDBRANCH   8   9
ENDBRANCH   7   8
ENDBRANCH   1   7
BRANCH   4  25
ATOM     25  C   UNL d   1      30.811 -19.591  -4.515  0.00  0.00     0.251 C 
ATOM     26  O   UNL d   1      30.101 -20.491  -4.953  0.00  0.00    -0.268 OA
ATOM     27  N   UNL d   1      31.688 -19.806  -3.452  0.00  0.00    -0.357 N 
ATOM     28  H   UNL d   1      32.249 -19.047  -3.104  0.00  0.00     0.162 HD
BRANCH  27  29
ATOM     29  C   UNL d   1      31.813 -21.112  -2.821  0.00  0.00     0.124 C 
BRANCH  29  30
ATOM     30  C   UNL d   1      31.155 -21.184  -1.424  0.00  0.00     0.047 C 
BRANCH  30  31
ATOM     31  C   UNL d   1      32.031 -20.487  -0.370  0.00  0.00     0.236 C 
BRANCH  31  32
ATOM     32  N   UNL d   1      31.600 -19.027  -0.091  0.00  0.00    -0.071 N 
ATOM     33  C   UNL d   1      32.831 -18.108  -0.009  0.00  0.00     0.235 C 
ATOM     34  C   UNL d   1      32.422 -16.654   0.210  0.00  0.00     0.028 C 
ATOM     35  C   UNL d   1      31.507 -16.203  -0.915  0.00  0.00     0.003 C 
ATOM     36  C   UNL d   1      30.237 -17.037  -0.844  0.00  0.00     0.028 C 
ATOM     37  C   UNL d   1      30.563 -18.510  -1.100  0.00  0.00     0.235 C 
ATOM     38  H   UNL d   1      31.155 -19.004   0.835  0.00  0.00     0.279 HD
ENDBRANCH  31  32
ENDBRANCH  30  31
ENDBRANCH  29  30
ENDBRANCH  27  29
ENDBRANCH   4  25
TORSDOF 10
ENDMDL
MODEL 9
REMARK VINA RESULT:    -8.519      6.102     11.268
REMARK INTER + INTRA:         -14.298
REMARK INTER:                 -11.502
REMARK INTRA:                  -2.796
REMARK CONF_INDEPENDENT:        2.983
REMARK UNBOUND:                -2.796
REMARK  10 active torsions:
REMARK  status: ('A' for Active; 'I' for Inactive)
REMARK    1  A    between atoms: C_7  and  N_8 
REMARK       I    between atoms: N_8  and  C_9 
REMARK    2  A    between atoms: C_9  and  C_11 
REMARK    3  A    between atoms: C_14  and  C_15 
REMARK    4  A    between atoms: C_15  and  O_16 
REMARK    5  A    between atoms: O_16  and  C_17 
REMARK    6  A    between atoms: C_20  and  C_21 
REMARK       I    between atoms: C_21  and  N_23 
REMARK    7  A    between atoms: N_23  and  C_24 
REMARK    8  A    between atoms: C_24  and  C_25 
REMARK    9  A    between atoms: C_25  and  C_26 
REMARK   10  A    between atoms: C_26  and  N_27 
ROOT
ATOM      1  C   UNL d   1      31.640 -19.368  -0.259  0.00  0.00     0.069 A 
ATOM      2  C   UNL d   1      30.457 -19.033  -0.907  0.00  0.00     0.038 A 
ATOM      3  C   UNL d   1      29.947 -17.734  -0.822  0.00  0.00     0.020 A 
ATOM      4  C   UNL d   1      30.602 -16.746  -0.080  0.00  0.00     0.032 A 
ATOM      5  C   UNL d   1      31.788 -17.100   0.589  0.00  0.00     0.020 A 
ATOM      6  C   UNL d   1      32.297 -18.407   0.505  0.00  0.00     0.038 A 
ENDROOT
BRANCH   1   7
ATOM      7  O   UNL d   1      32.174 -20.620  -0.251  0.00  0.00    -0.345 OA
BRANCH   7   8
ATOM      8  C   UNL d   1      31.337 -21.644   0.284  0.00  0.00     0.244 C 
BRANCH   8   9
ATOM      9  C   UNL d   1      31.369 -21.565   1.767  0.00  0.00     0.123 A 
ATOM     10  N   UNL d   1      30.296 -21.794   2.493  0.00  0.00    -0.144 NA
ATOM     11  N   UNL d   1      30.538 -21.585   3.817  0.00  0.00    -0.136 NA
ATOM     12  C   UNL d   1      31.781 -21.206   4.050  0.00  0.00     0.189 A 
ATOM     13  S   UNL d   1      32.759 -21.080   2.671  0.00  0.00    -0.044 SA
BRANCH  12  14
ATOM     14  C   UNL d   1      32.300 -21.314   5.382  0.00  0.00     0.283 C 
ATOM     15  N   UNL d   1      33.555 -21.904   5.614  0.00  0.00    -0.321 N 
ATOM     16  H   UNL d   1      34.035 -22.268   4.798  0.00  0.00     0.169 HD
ATOM     17  O   UNL d   1      31.538 -20.843   6.224  0.00  0.00    -0.265 OA
BRANCH  15  18
ATOM     18  C   UNL d   1      34.290 -22.014   6.858  0.00  0.00     0.041 A 
ATOM     19  C   UNL d   1      34.576 -20.828   7.576  0.00  0.00     0.030 A 
ATOM     20  C   UNL d   1      35.279 -20.856   8.802  0.00  0.00     0.002 A 
ATOM     21  C   UNL d   1      35.719 -22.058   9.338  0.00  0.00     0.001 A 
ATOM     22  C   UNL d   1      35.449 -23.227   8.658  0.00  0.00     0.009 A 
ATOM     23  C   UNL d   1      34.743 -23.217   7.441  0.00  0.00    -0.035 A 
ATOM     24  C   UNL d   1      34.531 -24.573   6.866  0.00  0.00     0.050 C 
ENDBRANCH  15  18
ENDBRANCH  12  14
ENDBRANCH   8   9
ENDBRANCH   7   8
ENDBRANCH   1   7
BRANCH   4  25
ATOM     25  C   UNL d   1      30.078 -15.335   0.020  0.00  0.00     0.251 C 
ATOM     26  O   UNL d   1      29.958 -14.646  -0.989  0.00  0.00    -0.268 OA
ATOM     27  N   UNL d   1      29.733 -14.848   1.280  0.00  0.00    -0.357 N 
ATOM     28  H   UNL d   1      29.854 -15.429   2.092  0.00  0.00     0.162 HD
BRANCH  27  29
ATOM     29  C   UNL d   1      29.200 -13.504   1.458  0.00  0.00     0.124 C 
BRANCH  29  30
ATOM     30  C   UNL d   1      27.678 -13.478   1.727  0.00  0.00     0.047 C 
BRANCH  30  31
ATOM     31  C   UNL d   1      26.892 -13.346   0.412  0.00  0.00     0.236 C 
BRANCH  31  32
ATOM     32  N   UNL d   1      26.931 -14.630  -0.451  0.00  0.00    -0.071 N 
ATOM     33  C   UNL d   1      26.761 -15.878   0.430  0.00  0.00     0.235 C 
ATOM     34  C   UNL d   1      26.741 -17.151  -0.411  0.00  0.00     0.028 C 
ATOM     35  C   UNL d   1      25.619 -17.074  -1.432  0.00  0.00     0.003 C 
ATOM     36  C   UNL d   1      25.926 -15.923  -2.376  0.00  0.00     0.028 C 
ATOM     37  C   UNL d   1      25.920 -14.600  -1.608  0.00  0.00     0.235 C 
ATOM     38  H   UNL d   1      27.867 -14.695  -0.873  0.00  0.00     0.279 HD
ENDBRANCH  31  32
ENDBRANCH  30  31
ENDBRANCH  29  30
ENDBRANCH  27  29
ENDBRANCH   4  25
TORSDOF 10
ENDMDL
