MODEL 1
REMARK VINA RESULT:    -8.648      0.000      0.000
REMARK INTER + INTRA:         -11.631
REMARK INTER:                 -10.737
REMARK INTRA:                  -0.895
REMARK CONF_INDEPENDENT:        2.088
REMARK UNBOUND:                -0.895
REMARK  7 active torsions:
REMARK  status: ('A' for Active; 'I' for Inactive)
REMARK    1  A    between atoms: O_2  and  C_3 
REMARK    2  A    between atoms: C_3  and  C_4 
REMARK    3  A    between atoms: C_4  and  N_5 
REMARK       I    between atoms: N_5  and  C_6 
REMARK    4  A    between atoms: C_6  and  C_8 
REMARK    5  A    between atoms: C_9  and  N_10 
REMARK    6  A    between atoms: N_11  and  N_12 
REMARK    7  A    between atoms: C_13  and  C_14 
ROOT
ATOM      1  C   UNL d   1      31.384 -16.447  -1.012  0.00  0.00     0.176 C 
ATOM      2  C   UNL d   1      30.326 -17.323  -0.945  0.00  0.00     0.331 C 
ATOM      3  N   UNL d   1      30.039 -17.252  -2.347  0.00  0.00    -0.205 N 
ATOM      4  C   UNL d   1      29.280 -16.167  -2.434  0.00  0.00     0.175 C 
ATOM      5  N   UNL d   1      28.142 -16.146  -3.144  0.00  0.00    -0.225 NA
ATOM      6  C   UNL d   1      27.345 -15.151  -2.990  0.00  0.00     0.088 C 
ATOM      7  C   UNL d   1      26.160 -15.295  -3.796  0.00  0.00     0.034 C 
ATOM      8  C   UNL d   1      25.191 -14.327  -3.973  0.00  0.00     0.002 C 
ATOM      9  C   UNL d   1      25.398 -13.196  -3.232  0.00  0.00     0.002 C 
ATOM     10  C   UNL d   1      26.518 -13.158  -2.271  0.00  0.00     0.034 C 
ATOM     11  C   UNL d   1      27.692 -14.118  -2.098  0.00  0.00     0.086 C 
ATOM     12  N   UNL d   1      29.077 -14.224  -1.227  0.00  0.00    -0.246 NA
ATOM     13  C   UNL d   1      30.012 -15.326  -1.575  0.00  0.00     0.107 C 
ENDROOT
BRANCH   3  14
ATOM     14  N   UNL d   1      30.709 -17.538  -3.522  0.00  0.00    -0.180 NA
ATOM     15  C   UNL d   1      30.078 -17.853  -4.549  0.00  0.00     0.150 C 
BRANCH  15  16
ATOM     16  C   UNL d   1      30.809 -17.980  -5.820  0.00  0.00    -0.011 A 
ATOM     17  C   UNL d   1      31.164 -16.866  -6.593  0.00  0.00     0.013 A 
ATOM     18  C   UNL d   1      31.561 -17.067  -7.917  0.00  0.00     0.001 A 
ATOM     19  C   UNL d   1      31.690 -18.366  -8.413  0.00  0.00     0.001 A 
ATOM     20  C   UNL d   1      31.436 -19.467  -7.591  0.00  0.00     0.007 A 
ATOM     21  C   UNL d   1      30.929 -19.283  -6.306  0.00  0.00    -0.050 A 
ATOM     22  C   UNL d   1      30.405 -20.445  -5.509  0.00  0.00     0.049 C 
ENDBRANCH  15  16
ENDBRANCH   3  14
BRANCH   2  23
ATOM     23  N   UNL d   1      29.547 -17.062   0.230  0.00  0.00     0.116 N 
ATOM     24  H   UNL d   1      29.185 -17.971   0.605  0.00  0.00     0.316 HD
ATOM     25  H   UNL d   1      30.117 -16.844   1.081  0.00  0.00     0.316 HD
ENDBRANCH   2  23
BRANCH   1  26
ATOM     26  C   UNL d   1      32.393 -17.226   0.218  0.00  0.00     0.239 C 
ATOM     27  N   UNL d   1      32.123 -18.536   1.105  0.00  0.00    -0.358 N 
ATOM     28  H   UNL d   1      31.270 -19.084   1.054  0.00  0.00     0.162 HD
ATOM     29  O   UNL d   1      33.300 -16.528   0.725  0.00  0.00    -0.272 OA
BRANCH  27  30
ATOM     30  C   UNL d   1      33.059 -19.012   2.401  0.00  0.00     0.148 C 
BRANCH  30  31
ATOM     31  C   UNL d   1      32.819 -20.419   3.225  0.00  0.00     0.186 C 
BRANCH  31  32
ATOM     32  O   UNL d   1      31.904 -20.290   4.369  0.00  0.00    -0.394 OA
ATOM     33  C   UNL d   1      32.192 -21.200   5.458  0.00  0.00     0.201 C 
ENDBRANCH  31  32
ENDBRANCH  30  31
ENDBRANCH  27  30
ENDBRANCH   1  26
TORSDOF 7
ENDMDL
MODEL 2
REMARK VINA RESULT:    -8.550      3.379      5.026
REMARK INTER + INTRA:         -12.149
REMARK INTER:                 -10.639
REMARK INTRA:                  -1.511
REMARK CONF_INDEPENDENT:        2.088
REMARK UNBOUND:                -1.511
REMARK  7 active torsions:
REMARK  status: ('A' for Active; 'I' for Inactive)
REMARK    1  A    between atoms: O_2  and  C_3 
REMARK    2  A    between atoms: C_3  and  C_4 
REMARK    3  A    between atoms: C_4  and  N_5 
REMARK       I    between atoms: N_5  and  C_6 
REMARK    4  A    between atoms: C_6  and  C_8 
REMARK    5  A    between atoms: C_9  and  N_10 
REMARK    6  A    between atoms: N_11  and  N_12 
REMARK    7  A    between atoms: C_13  and  C_14 
ROOT
ATOM      1  C   UNL d   1      28.991 -15.905  -0.387  0.00  0.00     0.176 C 
ATOM      2  C   UNL d   1      28.903 -16.981  -1.239  0.00  0.00     0.331 C 
ATOM      3  N   UNL d   1      27.869 -16.397  -2.041  0.00  0.00    -0.205 N 
ATOM      4  C   UNL d   1      26.768 -16.701  -1.364  0.00  0.00     0.175 C 
ATOM      5  N   UNL d   1      25.674 -17.194  -1.962  0.00  0.00    -0.225 NA
ATOM      6  C   UNL d   1      24.745 -17.685  -1.225  0.00  0.00     0.088 C 
ATOM      7  C   UNL d   1      23.658 -18.200  -2.019  0.00  0.00     0.034 C 
ATOM      8  C   UNL d   1      22.448 -18.646  -1.525  0.00  0.00     0.002 C 
ATOM      9  C   UNL d   1      22.374 -18.643  -0.159  0.00  0.00     0.002 C 
ATOM     10  C   UNL d   1      23.573 -18.293   0.627  0.00  0.00     0.034 C 
ATOM     11  C   UNL d   1      24.896 -17.681   0.175  0.00  0.00     0.086 C 
ATOM     12  N   UNL d   1      26.276 -17.102   0.843  0.00  0.00    -0.246 NA
ATOM     13  C   UNL d   1      27.232 -16.416  -0.066  0.00  0.00     0.107 C 
ENDROOT
BRANCH   3  14
ATOM     14  N   UNL d   1      27.726 -15.266  -2.823  0.00  0.00    -0.180 NA
ATOM     15  C   UNL d   1      27.243 -15.347  -3.970  0.00  0.00     0.150 C 
BRANCH  15  16
ATOM     16  C   UNL d   1      26.947 -14.106  -4.703  0.00  0.00    -0.011 A 
ATOM     17  C   UNL d   1      27.871 -13.512  -5.573  0.00  0.00     0.013 A 
ATOM     18  C   UNL d   1      27.658 -12.192  -5.979  0.00  0.00     0.001 A 
ATOM     19  C   UNL d   1      26.491 -11.528  -5.596  0.00  0.00     0.001 A 
ATOM     20  C   UNL d   1      25.529 -12.177  -4.817  0.00  0.00     0.007 A 
ATOM     21  C   UNL d   1      25.779 -13.450  -4.308  0.00  0.00    -0.050 A 
ATOM     22  C   UNL d   1      24.881 -14.053  -3.264  0.00  0.00     0.049 C 
ENDBRANCH  15  16
ENDBRANCH   3  14
BRANCH   2  23
ATOM     23  N   UNL d   1      28.996 -18.203  -0.497  0.00  0.00     0.116 N 
ATOM     24  H   UNL d   1      29.852 -18.168   0.107  0.00  0.00     0.316 HD
ATOM     25  H   UNL d   1      28.330 -18.267   0.309  0.00  0.00     0.316 HD
ENDBRANCH   2  23
BRANCH   1  26
ATOM     26  C   UNL d   1      30.740 -15.981  -0.117  0.00  0.00     0.239 C 
ATOM     27  N   UNL d   1      31.573 -16.224   1.233  0.00  0.00    -0.358 N 
ATOM     28  H   UNL d   1      31.143 -16.353   2.143  0.00  0.00     0.162 HD
ATOM     29  O   UNL d   1      31.467 -15.471  -1.000  0.00  0.00    -0.272 OA
BRANCH  27  30
ATOM     30  C   UNL d   1      33.222 -16.024   1.377  0.00  0.00     0.148 C 
BRANCH  30  31
ATOM     31  C   UNL d   1      34.210 -17.126   2.101  0.00  0.00     0.186 C 
BRANCH  31  32
ATOM     32  O   UNL d   1      33.498 -18.106   2.935  0.00  0.00    -0.394 OA
ATOM     33  C   UNL d   1      33.404 -19.425   2.344  0.00  0.00     0.201 C 
ENDBRANCH  31  32
ENDBRANCH  30  31
ENDBRANCH  27  30
ENDBRANCH   1  26
TORSDOF 7
ENDMDL
MODEL 3
REMARK VINA RESULT:    -8.519      4.536      7.634
REMARK INTER + INTRA:         -11.583
REMARK INTER:                 -10.607
REMARK INTRA:                  -0.976
REMARK CONF_INDEPENDENT:        2.088
REMARK UNBOUND:                -0.976
REMARK  7 active torsions:
REMARK  status: ('A' for Active; 'I' for Inactive)
REMARK    1  A    between atoms: O_2  and  C_3 
REMARK    2  A    between atoms: C_3  and  C_4 
REMARK    3  A    between atoms: C_4  and  N_5 
REMARK       I    between atoms: N_5  and  C_6 
REMARK    4  A    between atoms: C_6  and  C_8 
REMARK    5  A    between atoms: C_9  and  N_10 
REMARK    6  A    between atoms: N_11  and  N_12 
REMARK    7  A    between atoms: C_13  and  C_14 
ROOT
ATOM      1  C   UNL d   1      28.797 -15.778  -0.812  0.00  0.00     0.176 C 
ATOM      2  C   UNL d   1      29.006 -16.679   0.205  0.00  0.00     0.331 C 
ATOM      3  N   UNL d   1      27.783 -16.363   0.882  0.00  0.00    -0.205 N 
ATOM      4  C   UNL d   1      28.116 -15.301   1.604  0.00  0.00     0.175 C 
ATOM      5  N   UNL d   1      27.780 -15.181   2.897  0.00  0.00    -0.225 NA
ATOM      6  C   UNL d   1      28.335 -14.252   3.588  0.00  0.00     0.088 C 
ATOM      7  C   UNL d   1      27.892 -14.279   4.960  0.00  0.00     0.034 C 
ATOM      8  C   UNL d   1      28.181 -13.321   5.911  0.00  0.00     0.002 C 
ATOM      9  C   UNL d   1      29.022 -12.338   5.468  0.00  0.00     0.002 C 
ATOM     10  C   UNL d   1      29.610 -12.445   4.119  0.00  0.00     0.034 C 
ATOM     11  C   UNL d   1      29.260 -13.388   2.972  0.00  0.00     0.086 C 
ATOM     12  N   UNL d   1      29.661 -13.614   1.398  0.00  0.00    -0.246 NA
ATOM     13  C   UNL d   1      28.865 -14.609   0.632  0.00  0.00     0.107 C 
ENDROOT
BRANCH   3  14
ATOM     14  N   UNL d   1      26.434 -16.413   0.587  0.00  0.00    -0.180 NA
ATOM     15  C   UNL d   1      25.933 -17.441   0.090  0.00  0.00     0.150 C 
BRANCH  15  16
ATOM     16  C   UNL d   1      24.470 -17.521  -0.049  0.00  0.00    -0.011 A 
ATOM     17  C   UNL d   1      23.724 -18.575   0.496  0.00  0.00     0.013 A 
ATOM     18  C   UNL d   1      22.409 -18.760   0.062  0.00  0.00     0.001 A 
ATOM     19  C   UNL d   1      21.835 -17.846  -0.822  0.00  0.00     0.001 A 
ATOM     20  C   UNL d   1      22.562 -16.739  -1.269  0.00  0.00     0.007 A 
ATOM     21  C   UNL d   1      23.908 -16.603  -0.939  0.00  0.00    -0.050 A 
ATOM     22  C   UNL d   1      24.769 -15.573  -1.616  0.00  0.00     0.049 C 
ENDBRANCH  15  16
ENDBRANCH   3  14
BRANCH   2  23
ATOM     23  N   UNL d   1      30.382 -16.656   0.605  0.00  0.00     0.116 N 
ATOM     24  H   UNL d   1      30.436 -16.400   1.620  0.00  0.00     0.316 HD
ATOM     25  H   UNL d   1      30.806 -17.604   0.736  0.00  0.00     0.316 HD
ENDBRANCH   2  23
BRANCH   1  26
ATOM     26  C   UNL d   1      29.521 -16.740  -2.111  0.00  0.00     0.239 C 
ATOM     27  N   UNL d   1      31.031 -17.244  -2.311  0.00  0.00    -0.358 N 
ATOM     28  H   UNL d   1      31.785 -17.031  -1.666  0.00  0.00     0.162 HD
ATOM     29  O   UNL d   1      28.892 -16.787  -3.193  0.00  0.00    -0.272 OA
BRANCH  27  30
ATOM     30  C   UNL d   1      31.623 -17.934  -3.709  0.00  0.00     0.148 C 
BRANCH  30  31
ATOM     31  C   UNL d   1      31.326 -19.495  -4.147  0.00  0.00     0.186 C 
BRANCH  31  32
ATOM     32  O   UNL d   1      30.243 -19.642  -5.130  0.00  0.00    -0.394 OA
ATOM     33  C   UNL d   1      30.471 -18.928  -6.369  0.00  0.00     0.201 C 
ENDBRANCH  31  32
ENDBRANCH  30  31
ENDBRANCH  27  30
ENDBRANCH   1  26
TORSDOF 7
ENDMDL
MODEL 4
REMARK VINA RESULT:    -8.464      3.807      5.323
REMARK INTER + INTRA:         -12.107
REMARK INTER:                 -10.552
REMARK INTRA:                  -1.555
REMARK CONF_INDEPENDENT:        2.088
REMARK UNBOUND:                -1.555
REMARK  7 active torsions:
REMARK  status: ('A' for Active; 'I' for Inactive)
REMARK    1  A    between atoms: O_2  and  C_3 
REMARK    2  A    between atoms: C_3  and  C_4 
REMARK    3  A    between atoms: C_4  and  N_5 
REMARK       I    between atoms: N_5  and  C_6 
REMARK    4  A    between atoms: C_6  and  C_8 
REMARK    5  A    between atoms: C_9  and  N_10 
REMARK    6  A    between atoms: N_11  and  N_12 
REMARK    7  A    between atoms: C_13  and  C_14 
ROOT
ATOM      1  C   UNL d   1      29.068 -15.882  -0.406  0.00  0.00     0.176 C 
ATOM      2  C   UNL d   1      28.975 -16.967  -1.246  0.00  0.00     0.331 C 
ATOM      3  N   UNL d   1      27.946 -16.387  -2.056  0.00  0.00    -0.205 N 
ATOM      4  C   UNL d   1      26.843 -16.676  -1.378  0.00  0.00     0.175 C 
ATOM      5  N   UNL d   1      25.746 -17.170  -1.972  0.00  0.00    -0.225 NA
ATOM      6  C   UNL d   1      24.813 -17.647  -1.231  0.00  0.00     0.088 C 
ATOM      7  C   UNL d   1      23.725 -18.165  -2.021  0.00  0.00     0.034 C 
ATOM      8  C   UNL d   1      22.511 -18.598  -1.524  0.00  0.00     0.002 C 
ATOM      9  C   UNL d   1      22.435 -18.579  -0.158  0.00  0.00     0.002 C 
ATOM     10  C   UNL d   1      23.635 -18.226   0.626  0.00  0.00     0.034 C 
ATOM     11  C   UNL d   1      24.961 -17.627   0.169  0.00  0.00     0.086 C 
ATOM     12  N   UNL d   1      26.345 -17.048   0.833  0.00  0.00    -0.246 NA
ATOM     13  C   UNL d   1      27.306 -16.378  -0.082  0.00  0.00     0.107 C 
ENDROOT
BRANCH   3  14
ATOM     14  N   UNL d   1      27.811 -15.264  -2.852  0.00  0.00    -0.180 NA
ATOM     15  C   UNL d   1      27.246 -15.339  -3.960  0.00  0.00     0.150 C 
BRANCH  15  16
ATOM     16  C   UNL d   1      26.967 -14.097  -4.699  0.00  0.00    -0.011 A 
ATOM     17  C   UNL d   1      27.923 -13.486  -5.521  0.00  0.00     0.013 A 
ATOM     18  C   UNL d   1      27.711 -12.166  -5.929  0.00  0.00     0.001 A 
ATOM     19  C   UNL d   1      26.519 -11.520  -5.597  0.00  0.00     0.001 A 
ATOM     20  C   UNL d   1      25.531 -12.187  -4.868  0.00  0.00     0.007 A 
ATOM     21  C   UNL d   1      25.773 -13.460  -4.356  0.00  0.00    -0.050 A 
ATOM     22  C   UNL d   1      24.836 -14.082  -3.359  0.00  0.00     0.049 C 
ENDBRANCH  15  16
ENDBRANCH   3  14
BRANCH   2  23
ATOM     23  N   UNL d   1      29.060 -18.181  -0.488  0.00  0.00     0.116 N 
ATOM     24  H   UNL d   1      29.844 -18.096   0.201  0.00  0.00     0.316 HD
ATOM     25  H   UNL d   1      28.317 -18.282   0.243  0.00  0.00     0.316 HD
ENDBRANCH   2  23
BRANCH   1  26
ATOM     26  C   UNL d   1      30.817 -15.965  -0.132  0.00  0.00     0.239 C 
ATOM     27  N   UNL d   1      31.645 -16.471   1.146  0.00  0.00    -0.358 N 
ATOM     28  H   UNL d   1      31.211 -16.807   2.000  0.00  0.00     0.162 HD
ATOM     29  O   UNL d   1      31.535 -15.255  -0.872  0.00  0.00    -0.272 OA
BRANCH  27  30
ATOM     30  C   UNL d   1      33.285 -16.260   1.356  0.00  0.00     0.148 C 
BRANCH  30  31
ATOM     31  C   UNL d   1      33.938 -15.018   2.220  0.00  0.00     0.186 C 
BRANCH  31  32
ATOM     32  O   UNL d   1      33.170 -13.766   2.136  0.00  0.00    -0.394 OA
ATOM     33  C   UNL d   1      31.906 -13.803   2.840  0.00  0.00     0.201 C 
ENDBRANCH  31  32
ENDBRANCH  30  31
ENDBRANCH  27  30
ENDBRANCH   1  26
TORSDOF 7
ENDMDL
MODEL 5
REMARK VINA RESULT:    -8.274      4.839      6.695
REMARK INTER + INTRA:         -11.729
REMARK INTER:                 -10.362
REMARK INTRA:                  -1.367
REMARK CONF_INDEPENDENT:        2.088
REMARK UNBOUND:                -1.367
REMARK  7 active torsions:
REMARK  status: ('A' for Active; 'I' for Inactive)
REMARK    1  A    between atoms: O_2  and  C_3 
REMARK    2  A    between atoms: C_3  and  C_4 
REMARK    3  A    between atoms: C_4  and  N_5 
REMARK       I    between atoms: N_5  and  C_6 
REMARK    4  A    between atoms: C_6  and  C_8 
REMARK    5  A    between atoms: C_9  and  N_10 
REMARK    6  A    between atoms: N_11  and  N_12 
REMARK    7  A    between atoms: C_13  and  C_14 
ROOT
ATOM      1  C   UNL d   1      25.901 -14.568  -3.080  0.00  0.00     0.176 C 
ATOM      2  C   UNL d   1      25.155 -14.450  -4.229  0.00  0.00     0.331 C 
ATOM      3  N   UNL d   1      26.297 -14.412  -5.094  0.00  0.00    -0.205 N 
ATOM      4  C   UNL d   1      26.648 -13.133  -5.058  0.00  0.00     0.175 C 
ATOM      5  N   UNL d   1      26.943 -12.440  -6.167  0.00  0.00    -0.225 NA
ATOM      6  C   UNL d   1      27.039 -11.163  -6.082  0.00  0.00     0.088 C 
ATOM      7  C   UNL d   1      27.328 -10.569  -7.363  0.00  0.00     0.034 C 
ATOM      8  C   UNL d   1      27.644  -9.241  -7.575  0.00  0.00     0.002 C 
ATOM      9  C   UNL d   1      27.583  -8.471  -6.446  0.00  0.00     0.002 C 
ATOM     10  C   UNL d   1      27.096  -9.072  -5.188  0.00  0.00     0.034 C 
ATOM     11  C   UNL d   1      26.844 -10.535  -4.837  0.00  0.00     0.086 C 
ATOM     12  N   UNL d   1      26.443 -11.434  -3.525  0.00  0.00    -0.246 NA
ATOM     13  C   UNL d   1      26.502 -12.913  -3.674  0.00  0.00     0.107 C 
ENDROOT
BRANCH   3  14
ATOM     14  N   UNL d   1      27.351 -15.253  -5.398  0.00  0.00    -0.180 NA
ATOM     15  C   UNL d   1      28.523 -14.827  -5.386  0.00  0.00     0.150 C 
BRANCH  15  16
ATOM     16  C   UNL d   1      29.627 -15.787  -5.543  0.00  0.00    -0.011 A 
ATOM     17  C   UNL d   1      30.210 -16.059  -6.788  0.00  0.00     0.013 A 
ATOM     18  C   UNL d   1      31.016 -17.193  -6.918  0.00  0.00     0.001 A 
ATOM     19  C   UNL d   1      31.304 -17.972  -5.797  0.00  0.00     0.001 A 
ATOM     20  C   UNL d   1      30.801 -17.620  -4.541  0.00  0.00     0.007 A 
ATOM     21  C   UNL d   1      29.903 -16.562  -4.415  0.00  0.00    -0.050 A 
ATOM     22  C   UNL d   1      29.154 -16.334  -3.132  0.00  0.00     0.049 C 
ENDBRANCH  15  16
ENDBRANCH   3  14
BRANCH   2  23
ATOM     23  N   UNL d   1      24.059 -13.552  -4.011  0.00  0.00     0.116 N 
ATOM     24  H   UNL d   1      24.404 -12.567  -4.110  0.00  0.00     0.316 HD
ATOM     25  H   UNL d   1      23.392 -13.487  -4.816  0.00  0.00     0.316 HD
ENDBRANCH   2  23
BRANCH   1  26
ATOM     26  C   UNL d   1      24.787 -15.631  -2.204  0.00  0.00     0.239 C 
ATOM     27  N   UNL d   1      24.853 -17.213  -1.941  0.00  0.00    -0.358 N 
ATOM     28  H   UNL d   1      25.593 -17.812  -2.294  0.00  0.00     0.162 HD
ATOM     29  O   UNL d   1      23.626 -15.200  -2.020  0.00  0.00    -0.272 OA
BRANCH  27  30
ATOM     30  C   UNL d   1      23.605 -18.121  -1.308  0.00  0.00     0.148 C 
BRANCH  30  31
ATOM     31  C   UNL d   1      22.357 -17.474  -0.448  0.00  0.00     0.186 C 
BRANCH  31  32
ATOM     32  O   UNL d   1      21.029 -17.904  -0.911  0.00  0.00    -0.394 OA
ATOM     33  C   UNL d   1      20.706 -19.276  -0.579  0.00  0.00     0.201 C 
ENDBRANCH  31  32
ENDBRANCH  30  31
ENDBRANCH  27  30
ENDBRANCH   1  26
TORSDOF 7
ENDMDL
MODEL 6
REMARK VINA RESULT:    -8.160      5.235      8.585
REMARK INTER + INTRA:         -12.354
REMARK INTER:                 -10.248
REMARK INTRA:                  -2.105
REMARK CONF_INDEPENDENT:        2.088
REMARK UNBOUND:                -2.105
REMARK  7 active torsions:
REMARK  status: ('A' for Active; 'I' for Inactive)
REMARK    1  A    between atoms: O_2  and  C_3 
REMARK    2  A    between atoms: C_3  and  C_4 
REMARK    3  A    between atoms: C_4  and  N_5 
REMARK       I    between atoms: N_5  and  C_6 
REMARK    4  A    between atoms: C_6  and  C_8 
REMARK    5  A    between atoms: C_9  and  N_10 
REMARK    6  A    between atoms: N_11  and  N_12 
REMARK    7  A    between atoms: C_13  and  C_14 
ROOT
ATOM      1  C   UNL d   1      27.005 -12.855  -0.721  0.00  0.00     0.176 C 
ATOM      2  C   UNL d   1      28.009 -13.767  -0.498  0.00  0.00     0.331 C 
ATOM      3  N   UNL d   1      27.221 -14.581   0.379  0.00  0.00    -0.205 N 
ATOM      4  C   UNL d   1      27.363 -13.972   1.549  0.00  0.00     0.175 C 
ATOM      5  N   UNL d   1      27.634 -14.644   2.678  0.00  0.00    -0.225 NA
ATOM      6  C   UNL d   1      27.992 -13.976   3.714  0.00  0.00     0.088 C 
ATOM      7  C   UNL d   1      28.276 -14.845   4.829  0.00  0.00     0.034 C 
ATOM      8  C   UNL d   1      28.530 -14.429   6.121  0.00  0.00     0.002 C 
ATOM      9  C   UNL d   1      28.577 -13.070   6.265  0.00  0.00     0.002 C 
ATOM     10  C   UNL d   1      28.473 -12.213   5.068  0.00  0.00     0.034 C 
ATOM     11  C   UNL d   1      28.077 -12.573   3.639  0.00  0.00     0.086 C 
ATOM     12  N   UNL d   1      27.774 -11.813   2.218  0.00  0.00    -0.246 NA
ATOM     13  C   UNL d   1      27.221 -12.640   1.113  0.00  0.00     0.107 C 
ENDROOT
BRANCH   3  14
ATOM     14  N   UNL d   1      26.048 -15.307   0.287  0.00  0.00    -0.180 NA
ATOM     15  C   UNL d   1      25.746 -15.889  -0.773  0.00  0.00     0.150 C 
BRANCH  15  16
ATOM     16  C   UNL d   1      24.582 -16.790  -0.781  0.00  0.00    -0.011 A 
ATOM     17  C   UNL d   1      23.277 -16.325  -0.990  0.00  0.00     0.013 A 
ATOM     18  C   UNL d   1      22.207 -17.163  -0.670  0.00  0.00     0.001 A 
ATOM     19  C   UNL d   1      22.452 -18.469  -0.244  0.00  0.00     0.001 A 
ATOM     20  C   UNL d   1      23.760 -18.949  -0.145  0.00  0.00     0.007 A 
ATOM     21  C   UNL d   1      24.840 -18.093  -0.349  0.00  0.00    -0.050 A 
ATOM     22  C   UNL d   1      26.239 -18.516   0.005  0.00  0.00     0.049 C 
ENDBRANCH  15  16
ENDBRANCH   3  14
BRANCH   2  23
ATOM     23  N   UNL d   1      29.262 -13.088  -0.344  0.00  0.00     0.116 N 
ATOM     24  H   UNL d   1      29.864 -13.294  -1.177  0.00  0.00     0.316 HD
ATOM     25  H   UNL d   1      29.216 -12.058  -0.529  0.00  0.00     0.316 HD
ENDBRANCH   2  23
BRANCH   1  26
ATOM     26  C   UNL d   1      27.391 -12.512  -2.416  0.00  0.00     0.239 C 
ATOM     27  N   UNL d   1      26.561 -12.823  -3.753  0.00  0.00    -0.358 N 
ATOM     28  H   UNL d   1      25.665 -13.299  -3.761  0.00  0.00     0.162 HD
ATOM     29  O   UNL d   1      28.594 -12.288  -2.684  0.00  0.00    -0.272 OA
BRANCH  27  30
ATOM     30  C   UNL d   1      27.162 -12.663  -5.300  0.00  0.00     0.148 C 
BRANCH  30  31
ATOM     31  C   UNL d   1      27.989 -13.856  -6.080  0.00  0.00     0.186 C 
BRANCH  31  32
ATOM     32  O   UNL d   1      27.423 -15.200  -5.883  0.00  0.00    -0.394 OA
ATOM     33  C   UNL d   1      26.168 -15.210  -5.160  0.00  0.00     0.201 C 
ENDBRANCH  31  32
ENDBRANCH  30  31
ENDBRANCH  27  30
ENDBRANCH   1  26
TORSDOF 7
ENDMDL
MODEL 7
REMARK VINA RESULT:    -7.863      4.754      6.325
REMARK INTER + INTRA:         -11.861
REMARK INTER:                  -9.951
REMARK INTRA:                  -1.910
REMARK CONF_INDEPENDENT:        2.088
REMARK UNBOUND:                -1.910
REMARK  7 active torsions:
REMARK  status: ('A' for Active; 'I' for Inactive)
REMARK    1  A    between atoms: O_2  and  C_3 
REMARK    2  A    between atoms: C_3  and  C_4 
REMARK    3  A    between atoms: C_4  and  N_5 
REMARK       I    between atoms: N_5  and  C_6 
REMARK    4  A    between atoms: C_6  and  C_8 
REMARK    5  A    between atoms: C_9  and  N_10 
REMARK    6  A    between atoms: N_11  and  N_12 
REMARK    7  A    between atoms: C_13  and  C_14 
ROOT
ATOM      1  C   UNL d   1      31.238 -14.577   1.797  0.00  0.00     0.176 C 
ATOM      2  C   UNL d   1      30.406 -14.803   2.868  0.00  0.00     0.331 C 
ATOM      3  N   UNL d   1      29.232 -14.336   2.191  0.00  0.00    -0.205 N 
ATOM      4  C   UNL d   1      29.294 -13.023   2.373  0.00  0.00     0.175 C 
ATOM      5  N   UNL d   1      28.230 -12.303   2.760  0.00  0.00    -0.225 NA
ATOM      6  C   UNL d   1      28.420 -11.093   3.144  0.00  0.00     0.088 C 
ATOM      7  C   UNL d   1      27.186 -10.471   3.556  0.00  0.00     0.034 C 
ATOM      8  C   UNL d   1      27.030  -9.136   3.870  0.00  0.00     0.002 C 
ATOM      9  C   UNL d   1      28.197  -8.422   3.843  0.00  0.00     0.002 C 
ATOM     10  C   UNL d   1      29.471  -9.130   3.607  0.00  0.00     0.034 C 
ATOM     11  C   UNL d   1      29.723 -10.560   3.138  0.00  0.00     0.086 C 
ATOM     12  N   UNL d   1      30.988 -11.504   2.695  0.00  0.00    -0.246 NA
ATOM     13  C   UNL d   1      30.668 -12.838   2.121  0.00  0.00     0.107 C 
ENDROOT
BRANCH   3  14
ATOM     14  N   UNL d   1      28.520 -14.691   1.061  0.00  0.00    -0.180 NA
ATOM     15  C   UNL d   1      27.809 -15.715   1.058  0.00  0.00     0.150 C 
BRANCH  15  16
ATOM     16  C   UNL d   1      26.932 -15.966  -0.098  0.00  0.00    -0.011 A 
ATOM     17  C   UNL d   1      26.585 -14.956  -1.006  0.00  0.00     0.013 A 
ATOM     18  C   UNL d   1      25.515 -15.177  -1.876  0.00  0.00     0.001 A 
ATOM     19  C   UNL d   1      24.880 -16.419  -1.894  0.00  0.00     0.001 A 
ATOM     20  C   UNL d   1      25.313 -17.450  -1.056  0.00  0.00     0.007 A 
ATOM     21  C   UNL d   1      26.301 -17.211  -0.102  0.00  0.00    -0.050 A 
ATOM     22  C   UNL d   1      26.595 -18.219   0.974  0.00  0.00     0.049 C 
ENDBRANCH  15  16
ENDBRANCH   3  14
BRANCH   2  23
ATOM     23  N   UNL d   1      31.057 -14.415   4.084  0.00  0.00     0.116 N 
ATOM     24  H   UNL d   1      31.791 -15.125   4.317  0.00  0.00     0.316 HD
ATOM     25  H   UNL d   1      31.738 -13.626   3.973  0.00  0.00     0.316 HD
ENDBRANCH   2  23
BRANCH   1  26
ATOM     26  C   UNL d   1      32.302 -15.972   2.047  0.00  0.00     0.239 C 
ATOM     27  N   UNL d   1      32.062 -17.529   1.743  0.00  0.00    -0.358 N 
ATOM     28  H   UNL d   1      31.199 -17.900   1.359  0.00  0.00     0.162 HD
ATOM     29  O   UNL d   1      33.247 -15.820   2.855  0.00  0.00    -0.272 OA
BRANCH  27  30
ATOM     30  C   UNL d   1      33.060 -18.760   2.260  0.00  0.00     0.148 C 
BRANCH  30  31
ATOM     31  C   UNL d   1      32.504 -20.165   2.916  0.00  0.00     0.186 C 
BRANCH  31  32
ATOM     32  O   UNL d   1      32.173 -20.065   4.345  0.00  0.00    -0.394 OA
ATOM     33  C   UNL d   1      31.435 -21.200   4.859  0.00  0.00     0.201 C 
ENDBRANCH  31  32
ENDBRANCH  30  31
ENDBRANCH  27  30
ENDBRANCH   1  26
TORSDOF 7
ENDMDL
MODEL 8
REMARK VINA RESULT:    -7.462      2.311      5.796
REMARK INTER + INTRA:         -11.499
REMARK INTER:                  -9.550
REMARK INTRA:                  -1.948
REMARK CONF_INDEPENDENT:        2.088
REMARK UNBOUND:                -1.948
REMARK  7 active torsions:
REMARK  status: ('A' for Active; 'I' for Inactive)
REMARK    1  A    between atoms: O_2  and  C_3 
REMARK    2  A    between atoms: C_3  and  C_4 
REMARK    3  A    between atoms: C_4  and  N_5 
REMARK       I    between atoms: N_5  and  C_6 
REMARK    4  A    between atoms: C_6  and  C_8 
REMARK    5  A    between atoms: C_9  and  N_10 
REMARK    6  A    between atoms: N_11  and  N_12 
REMARK    7  A    between atoms: C_13  and  C_14 
ROOT
ATOM      1  C   UNL d   1      31.416 -19.821  -0.096  0.00  0.00     0.176 C 
ATOM      2  C   UNL d   1      31.912 -18.563  -0.347  0.00  0.00     0.331 C 
ATOM      3  N   UNL d   1      30.691 -18.080  -0.921  0.00  0.00    -0.205 N 
ATOM      4  C   UNL d   1      30.780 -18.488  -2.181  0.00  0.00     0.175 C 
ATOM      5  N   UNL d   1      30.503 -17.681  -3.215  0.00  0.00    -0.225 NA
ATOM      6  C   UNL d   1      30.838 -18.063  -4.394  0.00  0.00     0.088 C 
ATOM      7  C   UNL d   1      30.500 -17.073  -5.386  0.00  0.00     0.034 C 
ATOM      8  C   UNL d   1      30.587 -17.249  -6.753  0.00  0.00     0.002 C 
ATOM      9  C   UNL d   1      31.117 -18.454  -7.122  0.00  0.00     0.002 C 
ATOM     10  C   UNL d   1      31.632 -19.366  -6.081  0.00  0.00     0.034 C 
ATOM     11  C   UNL d   1      31.471 -19.309  -4.565  0.00  0.00     0.086 C 
ATOM     12  N   UNL d   1      31.821 -20.231  -3.255  0.00  0.00    -0.246 NA
ATOM     13  C   UNL d   1      31.266 -19.790  -1.949  0.00  0.00     0.107 C 
ENDROOT
BRANCH   3  14
ATOM     14  N   UNL d   1      29.386 -17.909  -0.501  0.00  0.00    -0.180 NA
ATOM     15  C   UNL d   1      28.604 -17.182  -1.145  0.00  0.00     0.150 C 
BRANCH  15  16
ATOM     16  C   UNL d   1      27.181 -17.162  -0.768  0.00  0.00    -0.011 A 
ATOM     17  C   UNL d   1      26.642 -18.058   0.164  0.00  0.00     0.013 A 
ATOM     18  C   UNL d   1      25.254 -18.197   0.235  0.00  0.00     0.001 A 
ATOM     19  C   UNL d   1      24.434 -17.379  -0.544  0.00  0.00     0.001 A 
ATOM     20  C   UNL d   1      24.991 -16.414  -1.388  0.00  0.00     0.007 A 
ATOM     21  C   UNL d   1      26.372 -16.342  -1.557  0.00  0.00    -0.050 A 
ATOM     22  C   UNL d   1      26.973 -15.498  -2.646  0.00  0.00     0.049 C 
ENDBRANCH  15  16
ENDBRANCH   3  14
BRANCH   2  23
ATOM     23  N   UNL d   1      33.257 -18.655  -0.835  0.00  0.00     0.116 N 
ATOM     24  H   UNL d   1      33.790 -19.328  -0.233  0.00  0.00     0.316 HD
ATOM     25  H   UNL d   1      33.358 -19.226  -1.707  0.00  0.00     0.316 HD
ENDBRANCH   2  23
BRANCH   1  26
ATOM     26  C   UNL d   1      32.287 -20.102   1.421  0.00  0.00     0.239 C 
ATOM     27  N   UNL d   1      31.733 -20.456   2.885  0.00  0.00    -0.358 N 
ATOM     28  H   UNL d   1      30.747 -20.546   3.107  0.00  0.00     0.162 HD
ATOM     29  O   UNL d   1      33.460 -19.669   1.485  0.00  0.00    -0.272 OA
BRANCH  27  30
ATOM     30  C   UNL d   1      32.656 -20.449   4.274  0.00  0.00     0.148 C 
BRANCH  30  31
ATOM     31  C   UNL d   1      32.239 -21.264   5.645  0.00  0.00     0.186 C 
BRANCH  31  32
ATOM     32  O   UNL d   1      30.805 -21.197   5.964  0.00  0.00    -0.394 OA
ATOM     33  C   UNL d   1      29.965 -21.949   5.056  0.00  0.00     0.201 C 
ENDBRANCH  31  32
ENDBRANCH  30  31
ENDBRANCH  27  30
ENDBRANCH   1  26
TORSDOF 7
ENDMDL
MODEL 9
REMARK VINA RESULT:    -7.450      3.566      5.307
REMARK INTER + INTRA:         -12.004
REMARK INTER:                  -9.538
REMARK INTRA:                  -2.466
REMARK CONF_INDEPENDENT:        2.088
REMARK UNBOUND:                -2.466
REMARK  7 active torsions:
REMARK  status: ('A' for Active; 'I' for Inactive)
REMARK    1  A    between atoms: O_2  and  C_3 
REMARK    2  A    between atoms: C_3  and  C_4 
REMARK    3  A    between atoms: C_4  and  N_5 
REMARK       I    between atoms: N_5  and  C_6 
REMARK    4  A    between atoms: C_6  and  C_8 
REMARK    5  A    between atoms: C_9  and  N_10 
REMARK    6  A    between atoms: N_11  and  N_12 
REMARK    7  A    between atoms: C_13  and  C_14 
ROOT
ATOM      1  C   UNL d   1      29.136 -15.900  -0.471  0.00  0.00     0.176 C 
ATOM      2  C   UNL d   1      29.032 -16.997  -1.294  0.00  0.00     0.331 C 
ATOM      3  N   UNL d   1      28.001 -16.423  -2.107  0.00  0.00    -0.205 N 
ATOM      4  C   UNL d   1      26.900 -16.697  -1.417  0.00  0.00     0.175 C 
ATOM      5  N   UNL d   1      25.798 -17.193  -1.997  0.00  0.00    -0.225 NA
ATOM      6  C   UNL d   1      24.867 -17.655  -1.243  0.00  0.00     0.088 C 
ATOM      7  C   UNL d   1      23.770 -18.178  -2.018  0.00  0.00     0.034 C 
ATOM      8  C   UNL d   1      22.558 -18.597  -1.507  0.00  0.00     0.002 C 
ATOM      9  C   UNL d   1      22.491 -18.558  -0.141  0.00  0.00     0.002 C 
ATOM     10  C   UNL d   1      23.698 -18.200   0.631  0.00  0.00     0.034 C 
ATOM     11  C   UNL d   1      25.024 -17.615   0.156  0.00  0.00     0.086 C 
ATOM     12  N   UNL d   1      26.415 -17.034   0.803  0.00  0.00    -0.246 NA
ATOM     13  C   UNL d   1      27.374 -16.382  -0.128  0.00  0.00     0.107 C 
ENDROOT
BRANCH   3  14
ATOM     14  N   UNL d   1      27.866 -15.311  -2.917  0.00  0.00    -0.180 NA
ATOM     15  C   UNL d   1      27.284 -15.397  -4.016  0.00  0.00     0.150 C 
BRANCH  15  16
ATOM     16  C   UNL d   1      27.008 -14.164  -4.771  0.00  0.00    -0.011 A 
ATOM     17  C   UNL d   1      27.947 -13.594  -5.641  0.00  0.00     0.013 A 
ATOM     18  C   UNL d   1      27.752 -12.278  -6.069  0.00  0.00     0.001 A 
ATOM     19  C   UNL d   1      26.591 -11.595  -5.705  0.00  0.00     0.001 A 
ATOM     20  C   UNL d   1      25.615 -12.220  -4.925  0.00  0.00     0.007 A 
ATOM     21  C   UNL d   1      25.845 -13.488  -4.395  0.00  0.00    -0.050 A 
ATOM     22  C   UNL d   1      24.932 -14.065  -3.350  0.00  0.00     0.049 C 
ENDBRANCH  15  16
ENDBRANCH   3  14
BRANCH   2  23
ATOM     23  N   UNL d   1      29.115 -18.200  -0.520  0.00  0.00     0.116 N 
ATOM     24  H   UNL d   1      30.017 -18.197   0.015  0.00  0.00     0.316 HD
ATOM     25  H   UNL d   1      28.512 -18.201   0.336  0.00  0.00     0.316 HD
ENDBRANCH   2  23
BRANCH   1  26
ATOM     26  C   UNL d   1      30.886 -15.988  -0.207  0.00  0.00     0.239 C 
ATOM     27  N   UNL d   1      32.094 -15.312  -1.019  0.00  0.00    -0.358 N 
ATOM     28  H   UNL d   1      31.963 -14.731  -1.841  0.00  0.00     0.162 HD
ATOM     29  O   UNL d   1      31.302 -16.941   0.491  0.00  0.00    -0.272 OA
BRANCH  27  30
ATOM     30  C   UNL d   1      33.705 -15.683  -0.805  0.00  0.00     0.148 C 
BRANCH  30  31
ATOM     31  C   UNL d   1      34.257 -17.215  -0.550  0.00  0.00     0.186 C 
BRANCH  31  32
ATOM     32  O   UNL d   1      33.329 -18.265  -0.996  0.00  0.00    -0.394 OA
ATOM     33  C   UNL d   1      33.190 -18.356  -2.434  0.00  0.00     0.201 C 
ENDBRANCH  31  32
ENDBRANCH  30  31
ENDBRANCH  27  30
ENDBRANCH   1  26
TORSDOF 7
ENDMDL
