MODEL 1
REMARK VINA RESULT:    -9.319      0.000      0.000
REMARK INTER + INTRA:         -12.747
REMARK INTER:                 -10.811
REMARK INTRA:                  -1.936
REMARK CONF_INDEPENDENT:        1.492
REMARK UNBOUND:                -1.936
REMARK  5 active torsions:
REMARK  status: ('A' for Active; 'I' for Inactive)
REMARK    1  A    between atoms: C_2  and  N_3 
REMARK    2  A    between atoms: C_11  and  C_12 
REMARK       I    between atoms: C_12  and  N_14 
REMARK    3  A    between atoms: N_14  and  N_15 
REMARK    4  A    between atoms: C_19  and  C_20 
REMARK    5  A    between atoms: C_19  and  C_26 
ROOT
ATOM      1  N   UNL d   1      27.902 -15.256   0.750  0.00  0.00    -0.166 N 
ATOM      2  C   UNL d   1      28.509 -16.221  -0.007  0.00  0.00     0.346 A 
ATOM      3  O   UNL d   1      29.541 -16.841   0.215  0.00  0.00    -0.245 OA
ATOM      4  N   UNL d   1      27.704 -16.475  -1.093  0.00  0.00    -0.315 N 
ATOM      5  C   UNL d   1      26.443 -15.741  -1.074  0.00  0.00     0.173 A 
ATOM      6  C   UNL d   1      26.656 -14.939   0.259  0.00  0.00     0.285 A 
ATOM      7  O   UNL d   1      25.850 -14.195   0.810  0.00  0.00    -0.267 OA
ATOM      8  H   UNL d   1      27.984 -17.149  -1.789  0.00  0.00     0.166 HD
ENDROOT
BRANCH   1   9
ATOM      9  N   UNL d   1      28.363 -14.825   1.991  0.00  0.00    -0.252 N 
ATOM     10  C   UNL d   1      28.183 -13.503   2.358  0.00  0.00     0.270 C 
ATOM     11  O   UNL d   1      27.601 -12.672   1.668  0.00  0.00    -0.266 OA
ATOM     12  H   UNL d   1      28.773 -15.540   2.579  0.00  0.00     0.191 HD
BRANCH  10  13
ATOM     13  C   UNL d   1      28.749 -13.066   3.665  0.00  0.00     0.035 C 
ATOM     14  C   UNL d   1      28.488 -13.842   4.809  0.00  0.00     0.049 C 
ATOM     15  C   UNL d   1      29.019 -13.469   6.045  0.00  0.00     0.063 A 
ATOM     16  N   UNL d   1      28.926 -14.343   7.129  0.00  0.00    -0.317 N 
ATOM     17  C   UNL d   1      29.654 -12.236   6.190  0.00  0.00     0.064 A 
ATOM     18  C   UNL d   1      29.472 -14.075   8.358  0.00  0.00     0.314 A 
ATOM     19  H   UNL d   1      28.508 -15.259   7.024  0.00  0.00     0.169 HD
ATOM     20  C   UNL d   1      30.136 -12.702   8.556  0.00  0.00     0.316 A 
ATOM     21  O   UNL d   1      29.427 -14.897   9.275  0.00  0.00    -0.262 OA
ATOM     22  N   UNL d   1      30.160 -11.841   7.456  0.00  0.00    -0.308 N 
ATOM     23  O   UNL d   1      30.610 -12.418   9.656  0.00  0.00    -0.262 OA
ATOM     24  C   UNL d   1      29.816 -11.428   5.060  0.00  0.00     0.033 C 
ATOM     25  C   UNL d   1      29.495 -11.899   3.795  0.00  0.00     0.019 C 
BRANCH  22  26
ATOM     26  C   UNL d   1      30.663 -10.487   7.648  0.00  0.00     0.128 C 
ATOM     27  C   UNL d   1      29.654  -9.648   8.426  0.00  0.00     0.027 C 
ENDBRANCH  22  26
ENDBRANCH  10  13
ENDBRANCH   1   9
BRANCH   5  28
ATOM     28  C   UNL d   1      26.367 -14.870  -2.333  0.00  0.00    -0.016 A 
ATOM     29  C   UNL d   1      26.237 -15.468  -3.614  0.00  0.00     0.010 A 
ATOM     30  C   UNL d   1      26.109 -14.692  -4.764  0.00  0.00     0.001 A 
ATOM     31  C   UNL d   1      26.060 -13.309  -4.653  0.00  0.00     0.000 A 
ATOM     32  C   UNL d   1      26.093 -12.708  -3.397  0.00  0.00     0.001 A 
ATOM     33  C   UNL d   1      26.284 -13.476  -2.252  0.00  0.00     0.010 A 
ENDBRANCH   5  28
BRANCH   5  34
ATOM     34  C   UNL d   1      25.264 -16.728  -0.957  0.00  0.00    -0.016 C 
ATOM     35  C   UNL d   1      23.957 -16.325  -1.269  0.00  0.00     0.010 C 
ATOM     36  C   UNL d   1      22.867 -17.112  -0.893  0.00  0.00     0.001 C 
ATOM     37  C   UNL d   1      23.064 -18.359  -0.305  0.00  0.00     0.000 C 
ATOM     38  C   UNL d   1      24.348 -18.850  -0.145  0.00  0.00     0.001 C 
ATOM     39  C   UNL d   1      25.430 -18.035  -0.452  0.00  0.00     0.010 C 
ENDBRANCH   5  34
TORSDOF 5
ENDMDL
MODEL 2
REMARK VINA RESULT:    -9.175      1.094      1.933
REMARK INTER + INTRA:         -12.455
REMARK INTER:                 -10.667
REMARK INTRA:                  -1.788
REMARK CONF_INDEPENDENT:        1.492
REMARK UNBOUND:                -1.788
REMARK  5 active torsions:
REMARK  status: ('A' for Active; 'I' for Inactive)
REMARK    1  A    between atoms: C_2  and  N_3 
REMARK    2  A    between atoms: C_11  and  C_12 
REMARK       I    between atoms: C_12  and  N_14 
REMARK    3  A    between atoms: N_14  and  N_15 
REMARK    4  A    between atoms: C_19  and  C_20 
REMARK    5  A    between atoms: C_19  and  C_26 
ROOT
ATOM      1  N   UNL d   1      27.525 -15.535   0.724  0.00  0.00    -0.166 N 
ATOM      2  C   UNL d   1      28.078 -16.505  -0.064  0.00  0.00     0.346 A 
ATOM      3  O   UNL d   1      29.061 -17.204   0.144  0.00  0.00    -0.245 OA
ATOM      4  N   UNL d   1      27.276 -16.658  -1.172  0.00  0.00    -0.315 N 
ATOM      5  C   UNL d   1      26.067 -15.842  -1.139  0.00  0.00     0.173 A 
ATOM      6  C   UNL d   1      26.311 -15.112   0.231  0.00  0.00     0.285 A 
ATOM      7  O   UNL d   1      25.548 -14.339   0.802  0.00  0.00    -0.267 OA
ATOM      8  H   UNL d   1      27.522 -17.320  -1.892  0.00  0.00     0.166 HD
ENDROOT
BRANCH   1   9
ATOM      9  N   UNL d   1      27.992 -15.189   1.990  0.00  0.00    -0.252 N 
ATOM     10  C   UNL d   1      27.801 -13.898   2.452  0.00  0.00     0.270 C 
ATOM     11  O   UNL d   1      27.203 -13.026   1.829  0.00  0.00    -0.266 OA
ATOM     12  H   UNL d   1      28.416 -15.938   2.521  0.00  0.00     0.191 HD
BRANCH  10  13
ATOM     13  C   UNL d   1      28.375 -13.550   3.782  0.00  0.00     0.035 C 
ATOM     14  C   UNL d   1      28.378 -12.203   4.186  0.00  0.00     0.049 C 
ATOM     15  C   UNL d   1      28.893 -11.847   5.434  0.00  0.00     0.063 A 
ATOM     16  N   UNL d   1      28.713 -10.547   5.911  0.00  0.00    -0.317 N 
ATOM     17  C   UNL d   1      29.570 -12.790   6.208  0.00  0.00     0.064 A 
ATOM     18  C   UNL d   1      29.138 -10.137   7.149  0.00  0.00     0.314 A 
ATOM     19  H   UNL d   1      28.185  -9.867   5.380  0.00  0.00     0.169 HD
ATOM     20  C   UNL d   1      29.927 -11.147   8.000  0.00  0.00     0.316 A 
ATOM     21  O   UNL d   1      28.905  -9.000   7.564  0.00  0.00    -0.262 OA
ATOM     22  N   UNL d   1      30.126 -12.418   7.459  0.00  0.00    -0.308 N 
ATOM     23  O   UNL d   1      30.348 -10.800   9.104  0.00  0.00    -0.262 OA
ATOM     24  C   UNL d   1      29.646 -14.108   5.743  0.00  0.00     0.033 C 
ATOM     25  C   UNL d   1      28.939 -14.509   4.618  0.00  0.00     0.019 C 
BRANCH  22  26
ATOM     26  C   UNL d   1      30.980 -13.352   8.182  0.00  0.00     0.128 C 
ATOM     27  C   UNL d   1      30.142 -14.264   9.071  0.00  0.00     0.027 C 
ENDBRANCH  22  26
ENDBRANCH  10  13
ENDBRANCH   1   9
BRANCH   5  28
ATOM     28  C   UNL d   1      26.072 -14.915  -2.360  0.00  0.00    -0.016 A 
ATOM     29  C   UNL d   1      25.997 -15.454  -3.671  0.00  0.00     0.010 A 
ATOM     30  C   UNL d   1      25.942 -14.627  -4.790  0.00  0.00     0.001 A 
ATOM     31  C   UNL d   1      25.912 -13.249  -4.621  0.00  0.00     0.000 A 
ATOM     32  C   UNL d   1      25.891 -12.704  -3.340  0.00  0.00     0.001 A 
ATOM     33  C   UNL d   1      26.009 -13.525  -2.221  0.00  0.00     0.010 A 
ENDBRANCH   5  28
BRANCH   5  34
ATOM     34  C   UNL d   1      24.822 -16.750  -1.081  0.00  0.00    -0.016 C 
ATOM     35  C   UNL d   1      23.535 -16.213  -1.230  0.00  0.00     0.010 C 
ATOM     36  C   UNL d   1      22.412 -16.971  -0.895  0.00  0.00     0.001 C 
ATOM     37  C   UNL d   1      22.545 -18.305  -0.514  0.00  0.00     0.000 C 
ATOM     38  C   UNL d   1      23.793 -18.903  -0.527  0.00  0.00     0.001 C 
ATOM     39  C   UNL d   1      24.915 -18.128  -0.790  0.00  0.00     0.010 C 
ENDBRANCH   5  34
TORSDOF 5
ENDMDL
MODEL 3
REMARK VINA RESULT:    -8.872      1.363      3.557
REMARK INTER + INTRA:         -12.315
REMARK INTER:                 -10.363
REMARK INTRA:                  -1.952
REMARK CONF_INDEPENDENT:        1.492
REMARK UNBOUND:                -1.952
REMARK  5 active torsions:
REMARK  status: ('A' for Active; 'I' for Inactive)
REMARK    1  A    between atoms: C_2  and  N_3 
REMARK    2  A    between atoms: C_11  and  C_12 
REMARK       I    between atoms: C_12  and  N_14 
REMARK    3  A    between atoms: N_14  and  N_15 
REMARK    4  A    between atoms: C_19  and  C_20 
REMARK    5  A    between atoms: C_19  and  C_26 
ROOT
ATOM      1  N   UNL d   1      27.314 -14.926   1.157  0.00  0.00    -0.166 N 
ATOM      2  C   UNL d   1      26.520 -13.966   0.594  0.00  0.00     0.346 A 
ATOM      3  O   UNL d   1      26.385 -12.791   0.911  0.00  0.00    -0.245 OA
ATOM      4  N   UNL d   1      25.905 -14.517  -0.507  0.00  0.00    -0.315 N 
ATOM      5  C   UNL d   1      26.335 -15.880  -0.798  0.00  0.00     0.173 A 
ATOM      6  C   UNL d   1      27.337 -16.073   0.396  0.00  0.00     0.285 A 
ATOM      7  O   UNL d   1      28.059 -17.043   0.605  0.00  0.00    -0.267 OA
ATOM      8  H   UNL d   1      25.258 -13.971  -1.055  0.00  0.00     0.166 HD
ENDROOT
BRANCH   1   9
ATOM      9  N   UNL d   1      28.185 -14.703   2.220  0.00  0.00    -0.252 N 
ATOM     10  C   UNL d   1      27.774 -13.908   3.276  0.00  0.00     0.270 C 
ATOM     11  O   UNL d   1      26.658 -13.405   3.363  0.00  0.00    -0.266 OA
ATOM     12  H   UNL d   1      29.073 -15.185   2.169  0.00  0.00     0.191 HD
BRANCH  10  13
ATOM     13  C   UNL d   1      28.758 -13.639   4.362  0.00  0.00     0.035 C 
ATOM     14  C   UNL d   1      28.462 -14.073   5.667  0.00  0.00     0.049 C 
ATOM     15  C   UNL d   1      29.373 -13.851   6.702  0.00  0.00     0.063 A 
ATOM     16  N   UNL d   1      29.167 -14.455   7.943  0.00  0.00    -0.317 N 
ATOM     17  C   UNL d   1      30.490 -13.043   6.491  0.00  0.00     0.064 A 
ATOM     18  C   UNL d   1      30.045 -14.334   8.991  0.00  0.00     0.314 A 
ATOM     19  H   UNL d   1      28.386 -15.080   8.095  0.00  0.00     0.169 HD
ATOM     20  C   UNL d   1      31.259 -13.410   8.797  0.00  0.00     0.316 A 
ATOM     21  O   UNL d   1      29.865 -14.933  10.053  0.00  0.00    -0.262 OA
ATOM     22  N   UNL d   1      31.394 -12.787   7.554  0.00  0.00    -0.308 N 
ATOM     23  O   UNL d   1      32.049 -13.255   9.728  0.00  0.00    -0.262 OA
ATOM     24  C   UNL d   1      30.716 -12.533   5.208  0.00  0.00     0.033 C 
ATOM     25  C   UNL d   1      29.940 -12.941   4.132  0.00  0.00     0.019 C 
BRANCH  22  26
ATOM     26  C   UNL d   1      32.459 -11.806   7.384  0.00  0.00     0.128 C 
ATOM     27  C   UNL d   1      32.113 -10.511   8.110  0.00  0.00     0.027 C 
ENDBRANCH  22  26
ENDBRANCH  10  13
ENDBRANCH   1   9
BRANCH   5  28
ATOM     28  C   UNL d   1      25.108 -16.798  -0.750  0.00  0.00    -0.016 A 
ATOM     29  C   UNL d   1      25.219 -18.121  -0.250  0.00  0.00     0.010 A 
ATOM     30  C   UNL d   1      24.104 -18.950  -0.145  0.00  0.00     0.001 A 
ATOM     31  C   UNL d   1      22.852 -18.458  -0.491  0.00  0.00     0.000 A 
ATOM     32  C   UNL d   1      22.710 -17.134  -0.895  0.00  0.00     0.001 A 
ATOM     33  C   UNL d   1      23.829 -16.322  -1.061  0.00  0.00     0.010 A 
ENDBRANCH   5  28
BRANCH   5  34
ATOM     34  C   UNL d   1      27.061 -15.922  -2.158  0.00  0.00    -0.016 C 
ATOM     35  C   UNL d   1      28.362 -16.437  -2.261  0.00  0.00     0.010 C 
ATOM     36  C   UNL d   1      29.119 -16.213  -3.412  0.00  0.00     0.001 C 
ATOM     37  C   UNL d   1      28.558 -15.575  -4.516  0.00  0.00     0.000 C 
ATOM     38  C   UNL d   1      27.223 -15.212  -4.497  0.00  0.00     0.001 C 
ATOM     39  C   UNL d   1      26.493 -15.369  -3.326  0.00  0.00     0.010 C 
ENDBRANCH   5  34
TORSDOF 5
ENDMDL
MODEL 4
REMARK VINA RESULT:    -8.700      2.288     10.294
REMARK INTER + INTRA:         -12.253
REMARK INTER:                 -10.192
REMARK INTRA:                  -2.061
REMARK CONF_INDEPENDENT:        1.492
REMARK UNBOUND:                -2.061
REMARK  5 active torsions:
REMARK  status: ('A' for Active; 'I' for Inactive)
REMARK    1  A    between atoms: C_2  and  N_3 
REMARK    2  A    between atoms: C_11  and  C_12 
REMARK       I    between atoms: C_12  and  N_14 
REMARK    3  A    between atoms: N_14  and  N_15 
REMARK    4  A    between atoms: C_19  and  C_20 
REMARK    5  A    between atoms: C_19  and  C_26 
ROOT
ATOM      1  N   UNL d   1      29.281 -13.786   4.474  0.00  0.00    -0.166 N 
ATOM      2  C   UNL d   1      30.608 -13.503   4.640  0.00  0.00     0.346 A 
ATOM      3  O   UNL d   1      31.531 -13.627   3.845  0.00  0.00    -0.245 OA
ATOM      4  N   UNL d   1      30.769 -12.944   5.888  0.00  0.00    -0.315 N 
ATOM      5  C   UNL d   1      29.514 -12.737   6.603  0.00  0.00     0.173 A 
ATOM      6  C   UNL d   1      28.529 -13.327   5.532  0.00  0.00     0.285 A 
ATOM      7  O   UNL d   1      27.304 -13.342   5.584  0.00  0.00    -0.267 OA
ATOM      8  H   UNL d   1      31.685 -12.679   6.213  0.00  0.00     0.166 HD
ENDROOT
BRANCH   1   9
ATOM      9  N   UNL d   1      28.719 -14.250   3.287  0.00  0.00    -0.252 N 
ATOM     10  C   UNL d   1      28.237 -13.338   2.364  0.00  0.00     0.270 C 
ATOM     11  O   UNL d   1      28.305 -12.121   2.501  0.00  0.00    -0.266 OA
ATOM     12  H   UNL d   1      28.738 -15.253   3.156  0.00  0.00     0.191 HD
BRANCH  10  13
ATOM     13  C   UNL d   1      27.583 -13.877   1.139  0.00  0.00     0.035 C 
ATOM     14  C   UNL d   1      27.119 -12.973   0.166  0.00  0.00     0.049 C 
ATOM     15  C   UNL d   1      26.518 -13.448  -1.001  0.00  0.00     0.063 A 
ATOM     16  N   UNL d   1      26.242 -12.563  -2.045  0.00  0.00    -0.317 N 
ATOM     17  C   UNL d   1      26.208 -14.802  -1.129  0.00  0.00     0.064 A 
ATOM     18  C   UNL d   1      25.706 -12.961  -3.244  0.00  0.00     0.314 A 
ATOM     19  H   UNL d   1      26.503 -11.588  -1.983  0.00  0.00     0.169 HD
ATOM     20  C   UNL d   1      25.314 -14.441  -3.390  0.00  0.00     0.316 A 
ATOM     21  O   UNL d   1      25.536 -12.164  -4.168  0.00  0.00    -0.262 OA
ATOM     22  N   UNL d   1      25.562 -15.277  -2.300  0.00  0.00    -0.308 N 
ATOM     23  O   UNL d   1      24.804 -14.825  -4.442  0.00  0.00    -0.262 OA
ATOM     24  C   UNL d   1      26.587 -15.675  -0.104  0.00  0.00     0.033 C 
ATOM     25  C   UNL d   1      27.385 -15.240   0.945  0.00  0.00     0.019 C 
BRANCH  22  26
ATOM     26  C   UNL d   1      25.083 -16.652  -2.359  0.00  0.00     0.128 C 
ATOM     27  C   UNL d   1      24.009 -16.889  -1.302  0.00  0.00     0.027 C 
ENDBRANCH  22  26
ENDBRANCH  10  13
ENDBRANCH   1   9
BRANCH   5  28
ATOM     28  C   UNL d   1      29.568 -13.525   7.917  0.00  0.00    -0.016 A 
ATOM     29  C   UNL d   1      30.742 -14.234   8.283  0.00  0.00     0.010 A 
ATOM     30  C   UNL d   1      30.830 -14.908   9.498  0.00  0.00     0.001 A 
ATOM     31  C   UNL d   1      29.769 -14.847  10.392  0.00  0.00     0.000 A 
ATOM     32  C   UNL d   1      28.647 -14.080  10.091  0.00  0.00     0.001 A 
ATOM     33  C   UNL d   1      28.529 -13.457   8.851  0.00  0.00     0.010 A 
ENDBRANCH   5  28
BRANCH   5  34
ATOM     34  C   UNL d   1      29.277 -11.229   6.819  0.00  0.00    -0.016 C 
ATOM     35  C   UNL d   1      28.739 -10.433   5.797  0.00  0.00     0.010 C 
ATOM     36  C   UNL d   1      28.793  -9.041   5.884  0.00  0.00     0.001 C 
ATOM     37  C   UNL d   1      29.278  -8.422   7.034  0.00  0.00     0.000 C 
ATOM     38  C   UNL d   1      29.654  -9.189   8.123  0.00  0.00     0.001 C 
ATOM     39  C   UNL d   1      29.668 -10.573   8.006  0.00  0.00     0.010 C 
ENDBRANCH   5  34
TORSDOF 5
ENDMDL
MODEL 5
REMARK VINA RESULT:    -8.523      1.614      3.921
REMARK INTER + INTRA:         -12.053
REMARK INTER:                 -10.015
REMARK INTRA:                  -2.038
REMARK CONF_INDEPENDENT:        1.492
REMARK UNBOUND:                -2.038
REMARK  5 active torsions:
REMARK  status: ('A' for Active; 'I' for Inactive)
REMARK    1  A    between atoms: C_2  and  N_3 
REMARK    2  A    between atoms: C_11  and  C_12 
REMARK       I    between atoms: C_12  and  N_14 
REMARK    3  A    between atoms: N_14  and  N_15 
REMARK    4  A    between atoms: C_19  and  C_20 
REMARK    5  A    between atoms: C_19  and  C_26 
ROOT
ATOM      1  N   UNL d   1      27.297 -14.942   1.360  0.00  0.00    -0.166 N 
ATOM      2  C   UNL d   1      26.649 -13.957   0.668  0.00  0.00     0.346 A 
ATOM      3  O   UNL d   1      26.555 -12.764   0.926  0.00  0.00    -0.245 OA
ATOM      4  N   UNL d   1      26.145 -14.512  -0.486  0.00  0.00    -0.315 N 
ATOM      5  C   UNL d   1      26.514 -15.911  -0.674  0.00  0.00     0.173 A 
ATOM      6  C   UNL d   1      27.339 -16.118   0.646  0.00  0.00     0.285 A 
ATOM      7  O   UNL d   1      27.959 -17.123   0.979  0.00  0.00    -0.267 OA
ATOM      8  H   UNL d   1      25.613 -13.949  -1.132  0.00  0.00     0.166 HD
ENDROOT
BRANCH   1   9
ATOM      9  N   UNL d   1      28.036 -14.731   2.521  0.00  0.00    -0.252 N 
ATOM     10  C   UNL d   1      27.446 -14.080   3.591  0.00  0.00     0.270 C 
ATOM     11  O   UNL d   1      26.280 -13.700   3.605  0.00  0.00    -0.266 OA
ATOM     12  H   UNL d   1      28.972 -15.117   2.521  0.00  0.00     0.191 HD
BRANCH  10  13
ATOM     13  C   UNL d   1      28.292 -13.815   4.788  0.00  0.00     0.035 C 
ATOM     14  C   UNL d   1      28.306 -12.518   5.333  0.00  0.00     0.049 C 
ATOM     15  C   UNL d   1      29.075 -12.242   6.465  0.00  0.00     0.063 A 
ATOM     16  N   UNL d   1      28.932 -11.016   7.115  0.00  0.00    -0.317 N 
ATOM     17  C   UNL d   1      29.970 -13.195   6.953  0.00  0.00     0.064 A 
ATOM     18  C   UNL d   1      29.607 -10.692   8.265  0.00  0.00     0.314 A 
ATOM     19  H   UNL d   1      28.253 -10.335   6.798  0.00  0.00     0.169 HD
ATOM     20  C   UNL d   1      30.633 -11.708   8.795  0.00  0.00     0.316 A 
ATOM     21  O   UNL d   1      29.408  -9.626   8.849  0.00  0.00    -0.262 OA
ATOM     22  N   UNL d   1      30.778 -12.899   8.081  0.00  0.00    -0.308 N 
ATOM     23  O   UNL d   1      31.278 -11.436   9.808  0.00  0.00    -0.262 OA
ATOM     24  C   UNL d   1      30.017 -14.449   6.336  0.00  0.00     0.033 C 
ATOM     25  C   UNL d   1      29.093 -14.798   5.360  0.00  0.00     0.019 C 
BRANCH  22  26
ATOM     26  C   UNL d   1      31.833 -13.822   8.482  0.00  0.00     0.128 C 
ATOM     27  C   UNL d   1      31.302 -14.835   9.490  0.00  0.00     0.027 C 
ENDBRANCH  22  26
ENDBRANCH  10  13
ENDBRANCH   1   9
BRANCH   5  28
ATOM     28  C   UNL d   1      25.231 -16.746  -0.759  0.00  0.00    -0.016 A 
ATOM     29  C   UNL d   1      25.238 -18.115  -0.384  0.00  0.00     0.010 A 
ATOM     30  C   UNL d   1      24.070 -18.874  -0.399  0.00  0.00     0.001 A 
ATOM     31  C   UNL d   1      22.867 -18.270  -0.740  0.00  0.00     0.000 A 
ATOM     32  C   UNL d   1      22.825 -16.907  -1.020  0.00  0.00     0.001 A 
ATOM     33  C   UNL d   1      23.999 -16.159  -1.068  0.00  0.00     0.010 A 
ENDBRANCH   5  28
BRANCH   5  34
ATOM     34  C   UNL d   1      27.405 -16.054  -1.925  0.00  0.00    -0.016 C 
ATOM     35  C   UNL d   1      28.654 -16.689  -1.848  0.00  0.00     0.010 C 
ATOM     36  C   UNL d   1      29.572 -16.566  -2.891  0.00  0.00     0.001 C 
ATOM     37  C   UNL d   1      29.224 -15.908  -4.068  0.00  0.00     0.000 C 
ATOM     38  C   UNL d   1      27.937 -15.424  -4.231  0.00  0.00     0.001 C 
ATOM     39  C   UNL d   1      27.049 -15.483  -3.166  0.00  0.00     0.010 C 
ENDBRANCH   5  34
TORSDOF 5
ENDMDL
MODEL 6
REMARK VINA RESULT:    -8.469      2.113      3.696
REMARK INTER + INTRA:         -12.045
REMARK INTER:                  -9.961
REMARK INTRA:                  -2.084
REMARK CONF_INDEPENDENT:        1.492
REMARK UNBOUND:                -2.084
REMARK  5 active torsions:
REMARK  status: ('A' for Active; 'I' for Inactive)
REMARK    1  A    between atoms: C_2  and  N_3 
REMARK    2  A    between atoms: C_11  and  C_12 
REMARK       I    between atoms: C_12  and  N_14 
REMARK    3  A    between atoms: N_14  and  N_15 
REMARK    4  A    between atoms: C_19  and  C_20 
REMARK    5  A    between atoms: C_19  and  C_26 
ROOT
ATOM      1  N   UNL d   1      27.948 -15.639   0.300  0.00  0.00    -0.166 N 
ATOM      2  C   UNL d   1      27.094 -16.625  -0.110  0.00  0.00     0.346 A 
ATOM      3  O   UNL d   1      26.453 -17.421   0.563  0.00  0.00    -0.245 OA
ATOM      4  N   UNL d   1      26.983 -16.546  -1.479  0.00  0.00    -0.315 N 
ATOM      5  C   UNL d   1      27.704 -15.419  -2.062  0.00  0.00     0.173 A 
ATOM      6  C   UNL d   1      28.324 -14.827  -0.747  0.00  0.00     0.285 A 
ATOM      7  O   UNL d   1      28.986 -13.800  -0.640  0.00  0.00    -0.267 OA
ATOM      8  H   UNL d   1      26.407 -17.203  -1.982  0.00  0.00     0.166 HD
ENDROOT
BRANCH   1   9
ATOM      9  N   UNL d   1      28.213 -15.332   1.632  0.00  0.00    -0.252 N 
ATOM     10  C   UNL d   1      27.553 -14.270   2.226  0.00  0.00     0.270 C 
ATOM     11  O   UNL d   1      26.703 -13.588   1.663  0.00  0.00    -0.266 OA
ATOM     12  H   UNL d   1      28.860 -15.950   2.104  0.00  0.00     0.191 HD
BRANCH  10  13
ATOM     13  C   UNL d   1      27.914 -13.933   3.632  0.00  0.00     0.035 C 
ATOM     14  C   UNL d   1      28.211 -12.596   3.952  0.00  0.00     0.049 C 
ATOM     15  C   UNL d   1      28.535 -12.245   5.264  0.00  0.00     0.063 A 
ATOM     16  N   UNL d   1      28.633 -10.898   5.615  0.00  0.00    -0.317 N 
ATOM     17  C   UNL d   1      28.746 -13.237   6.222  0.00  0.00     0.064 A 
ATOM     18  C   UNL d   1      28.890 -10.472   6.894  0.00  0.00     0.314 A 
ATOM     19  H   UNL d   1      28.438 -10.170   4.940  0.00  0.00     0.169 HD
ATOM     20  C   UNL d   1      29.172 -11.548   7.957  0.00  0.00     0.316 A 
ATOM     21  O   UNL d   1      28.906  -9.274   7.182  0.00  0.00    -0.262 OA
ATOM     22  N   UNL d   1      29.113 -12.881   7.546  0.00  0.00    -0.308 N 
ATOM     23  O   UNL d   1      29.436 -11.198   9.107  0.00  0.00    -0.262 OA
ATOM     24  C   UNL d   1      28.544 -14.573   5.860  0.00  0.00     0.033 C 
ATOM     25  C   UNL d   1      28.001 -14.903   4.626  0.00  0.00     0.019 C 
BRANCH  22  26
ATOM     26  C   UNL d   1      29.503 -13.915   8.496  0.00  0.00     0.128 C 
ATOM     27  C   UNL d   1      28.530 -13.958   9.668  0.00  0.00     0.027 C 
ENDBRANCH  22  26
ENDBRANCH  10  13
ENDBRANCH   1   9
BRANCH   5  28
ATOM     28  C   UNL d   1      28.733 -15.964  -3.060  0.00  0.00    -0.016 A 
ATOM     29  C   UNL d   1      29.625 -17.000  -2.678  0.00  0.00     0.010 A 
ATOM     30  C   UNL d   1      30.527 -17.547  -3.587  0.00  0.00     0.001 A 
ATOM     31  C   UNL d   1      30.524 -17.106  -4.904  0.00  0.00     0.000 A 
ATOM     32  C   UNL d   1      29.594 -16.157  -5.319  0.00  0.00     0.001 A 
ATOM     33  C   UNL d   1      28.733 -15.562  -4.400  0.00  0.00     0.010 A 
ENDBRANCH   5  28
BRANCH   5  34
ATOM     34  C   UNL d   1      26.706 -14.436  -2.709  0.00  0.00    -0.016 C 
ATOM     35  C   UNL d   1      25.593 -14.908  -3.419  0.00  0.00     0.010 C 
ATOM     36  C   UNL d   1      24.861 -14.045  -4.237  0.00  0.00     0.001 C 
ATOM     37  C   UNL d   1      25.156 -12.684  -4.274  0.00  0.00     0.000 C 
ATOM     38  C   UNL d   1      26.141 -12.171  -3.449  0.00  0.00     0.001 C 
ATOM     39  C   UNL d   1      26.915 -13.041  -2.692  0.00  0.00     0.010 C 
ENDBRANCH   5  34
TORSDOF 5
ENDMDL
MODEL 7
REMARK VINA RESULT:    -8.411      5.205     10.598
REMARK INTER + INTRA:         -11.880
REMARK INTER:                  -9.903
REMARK INTRA:                  -1.977
REMARK CONF_INDEPENDENT:        1.492
REMARK UNBOUND:                -1.977
REMARK  5 active torsions:
REMARK  status: ('A' for Active; 'I' for Inactive)
REMARK    1  A    between atoms: C_2  and  N_3 
REMARK    2  A    between atoms: C_11  and  C_12 
REMARK       I    between atoms: C_12  and  N_14 
REMARK    3  A    between atoms: N_14  and  N_15 
REMARK    4  A    between atoms: C_19  and  C_20 
REMARK    5  A    between atoms: C_19  and  C_26 
ROOT
ATOM      1  N   UNL d   1      28.029 -15.064  -2.744  0.00  0.00    -0.166 N 
ATOM      2  C   UNL d   1      26.987 -14.195  -2.918  0.00  0.00     0.346 A 
ATOM      3  O   UNL d   1      26.723 -13.487  -3.881  0.00  0.00    -0.245 OA
ATOM      4  N   UNL d   1      26.170 -14.288  -1.814  0.00  0.00    -0.315 N 
ATOM      5  C   UNL d   1      26.584 -15.314  -0.863  0.00  0.00     0.173 A 
ATOM      6  C   UNL d   1      27.872 -15.821  -1.606  0.00  0.00     0.285 A 
ATOM      7  O   UNL d   1      28.595 -16.756  -1.275  0.00  0.00    -0.267 OA
ATOM      8  H   UNL d   1      25.348 -13.710  -1.739  0.00  0.00     0.166 HD
ENDROOT
BRANCH   1   9
ATOM      9  N   UNL d   1      28.996 -15.334  -3.709  0.00  0.00    -0.252 N 
ATOM     10  C   UNL d   1      28.602 -15.571  -5.015  0.00  0.00     0.270 C 
ATOM     11  O   UNL d   1      27.439 -15.522  -5.401  0.00  0.00    -0.266 OA
ATOM     12  H   UNL d   1      29.956 -15.297  -3.390  0.00  0.00     0.191 HD
BRANCH  10  13
ATOM     13  C   UNL d   1      29.662 -15.922  -6.002  0.00  0.00     0.035 C 
ATOM     14  C   UNL d   1      30.030 -17.272  -6.148  0.00  0.00     0.049 C 
ATOM     15  C   UNL d   1      31.007 -17.635  -7.077  0.00  0.00     0.063 A 
ATOM     16  N   UNL d   1      31.225 -18.984  -7.360  0.00  0.00    -0.317 N 
ATOM     17  C   UNL d   1      31.751 -16.652  -7.731  0.00  0.00     0.064 A 
ATOM     18  C   UNL d   1      32.124 -19.418  -8.300  0.00  0.00     0.314 A 
ATOM     19  H   UNL d   1      30.661 -19.704  -6.926  0.00  0.00     0.169 HD
ATOM     20  C   UNL d   1      32.988 -18.356  -9.000  0.00  0.00     0.316 A 
ATOM     21  O   UNL d   1      32.245 -20.615  -8.570  0.00  0.00    -0.262 OA
ATOM     22  N   UNL d   1      32.769 -17.023  -8.647  0.00  0.00    -0.308 N 
ATOM     23  O   UNL d   1      33.826 -18.715  -9.827  0.00  0.00    -0.262 OA
ATOM     24  C   UNL d   1      31.439 -15.309  -7.497  0.00  0.00     0.033 C 
ATOM     25  C   UNL d   1      30.321 -14.955  -6.753  0.00  0.00     0.019 C 
BRANCH  22  26
ATOM     26  C   UNL d   1      33.660 -16.007  -9.194  0.00  0.00     0.128 C 
ATOM     27  C   UNL d   1      35.032 -16.088  -8.534  0.00  0.00     0.027 C 
ENDBRANCH  22  26
ENDBRANCH  10  13
ENDBRANCH   1   9
BRANCH   5  28
ATOM     28  C   UNL d   1      26.855 -14.643   0.489  0.00  0.00    -0.016 A 
ATOM     29  C   UNL d   1      27.782 -15.212   1.401  0.00  0.00     0.010 A 
ATOM     30  C   UNL d   1      28.084 -14.586   2.608  0.00  0.00     0.001 A 
ATOM     31  C   UNL d   1      27.505 -13.360   2.906  0.00  0.00     0.000 A 
ATOM     32  C   UNL d   1      26.665 -12.742   1.983  0.00  0.00     0.001 A 
ATOM     33  C   UNL d   1      26.312 -13.393   0.804  0.00  0.00     0.010 A 
ENDBRANCH   5  28
BRANCH   5  34
ATOM     34  C   UNL d   1      25.509 -16.417  -0.779  0.00  0.00    -0.016 C 
ATOM     35  C   UNL d   1      24.202 -16.180  -1.230  0.00  0.00     0.010 C 
ATOM     36  C   UNL d   1      23.171 -17.059  -0.895  0.00  0.00     0.001 C 
ATOM     37  C   UNL d   1      23.441 -18.239  -0.206  0.00  0.00     0.000 C 
ATOM     38  C   UNL d   1      24.749 -18.574   0.098  0.00  0.00     0.001 C 
ATOM     39  C   UNL d   1      25.764 -17.665  -0.171  0.00  0.00     0.010 C 
ENDBRANCH   5  34
TORSDOF 5
ENDMDL
MODEL 8
REMARK VINA RESULT:    -8.330      1.559      2.320
REMARK INTER + INTRA:         -11.880
REMARK INTER:                  -9.821
REMARK INTRA:                  -2.059
REMARK CONF_INDEPENDENT:        1.492
REMARK UNBOUND:                -2.059
REMARK  5 active torsions:
REMARK  status: ('A' for Active; 'I' for Inactive)
REMARK    1  A    between atoms: C_2  and  N_3 
REMARK    2  A    between atoms: C_11  and  C_12 
REMARK       I    between atoms: C_12  and  N_14 
REMARK    3  A    between atoms: N_14  and  N_15 
REMARK    4  A    between atoms: C_19  and  C_20 
REMARK    5  A    between atoms: C_19  and  C_26 
ROOT
ATOM      1  N   UNL d   1      28.054 -14.082   1.132  0.00  0.00    -0.166 N 
ATOM      2  C   UNL d   1      28.824 -14.933   0.389  0.00  0.00     0.346 A 
ATOM      3  O   UNL d   1      29.978 -15.296   0.576  0.00  0.00    -0.245 OA
ATOM      4  N   UNL d   1      28.044 -15.426  -0.632  0.00  0.00    -0.315 N 
ATOM      5  C   UNL d   1      26.653 -14.989  -0.572  0.00  0.00     0.173 A 
ATOM      6  C   UNL d   1      26.746 -14.078   0.704  0.00  0.00     0.285 A 
ATOM      7  O   UNL d   1      25.822 -13.497   1.266  0.00  0.00    -0.267 OA
ATOM      8  H   UNL d   1      28.434 -16.063  -1.309  0.00  0.00     0.166 HD
ENDROOT
BRANCH   1   9
ATOM      9  N   UNL d   1      28.467 -13.483   2.320  0.00  0.00    -0.252 N 
ATOM     10  C   UNL d   1      28.270 -14.149   3.517  0.00  0.00     0.270 C 
ATOM     11  O   UNL d   1      27.780 -15.271   3.607  0.00  0.00    -0.266 OA
ATOM     12  H   UNL d   1      28.937 -12.592   2.222  0.00  0.00     0.191 HD
BRANCH  10  13
ATOM     13  C   UNL d   1      28.664 -13.446   4.771  0.00  0.00     0.035 C 
ATOM     14  C   UNL d   1      30.031 -13.244   5.031  0.00  0.00     0.049 C 
ATOM     15  C   UNL d   1      30.432 -12.573   6.188  0.00  0.00     0.063 A 
ATOM     16  N   UNL d   1      31.768 -12.200   6.343  0.00  0.00    -0.317 N 
ATOM     17  C   UNL d   1      29.498 -12.263   7.177  0.00  0.00     0.064 A 
ATOM     18  C   UNL d   1      32.228 -11.489   7.422  0.00  0.00     0.314 A 
ATOM     19  H   UNL d   1      32.446 -12.379   5.613  0.00  0.00     0.169 HD
ATOM     20  C   UNL d   1      31.226 -11.177   8.547  0.00  0.00     0.316 A 
ATOM     21  O   UNL d   1      33.402 -11.121   7.496  0.00  0.00    -0.262 OA
ATOM     22  N   UNL d   1      29.913 -11.616   8.370  0.00  0.00    -0.308 N 
ATOM     23  O   UNL d   1      31.614 -10.567   9.543  0.00  0.00    -0.262 OA
ATOM     24  C   UNL d   1      28.152 -12.564   6.946  0.00  0.00     0.033 C 
ATOM     25  C   UNL d   1      27.726 -13.019   5.705  0.00  0.00     0.019 C 
BRANCH  22  26
ATOM     26  C   UNL d   1      28.974 -11.452   9.472  0.00  0.00     0.128 C 
ATOM     27  C   UNL d   1      28.807 -12.763  10.232  0.00  0.00     0.027 C 
ENDBRANCH  22  26
ENDBRANCH  10  13
ENDBRANCH   1   9
BRANCH   5  28
ATOM     28  C   UNL d   1      26.323 -14.236  -1.866  0.00  0.00    -0.016 A 
ATOM     29  C   UNL d   1      26.499 -12.830  -1.944  0.00  0.00     0.010 A 
ATOM     30  C   UNL d   1      26.259 -12.136  -3.128  0.00  0.00     0.001 A 
ATOM     31  C   UNL d   1      25.887 -12.838  -4.267  0.00  0.00     0.000 A 
ATOM     32  C   UNL d   1      25.800 -14.227  -4.234  0.00  0.00     0.001 A 
ATOM     33  C   UNL d   1      25.977 -14.917  -3.038  0.00  0.00     0.010 A 
ENDBRANCH   5  28
BRANCH   5  34
ATOM     34  C   UNL d   1      25.732 -16.202  -0.334  0.00  0.00    -0.016 C 
ATOM     35  C   UNL d   1      26.247 -17.406   0.169  0.00  0.00     0.010 C 
ATOM     36  C   UNL d   1      25.487 -18.576   0.113  0.00  0.00     0.001 C 
ATOM     37  C   UNL d   1      24.170 -18.544  -0.339  0.00  0.00     0.000 C 
ATOM     38  C   UNL d   1      23.587 -17.335  -0.678  0.00  0.00     0.001 C 
ATOM     39  C   UNL d   1      24.366 -16.186  -0.691  0.00  0.00     0.010 C 
ENDBRANCH   5  34
TORSDOF 5
ENDMDL
MODEL 9
REMARK VINA RESULT:    -8.128      5.542     10.516
REMARK INTER + INTRA:         -11.715
REMARK INTER:                  -9.620
REMARK INTRA:                  -2.095
REMARK CONF_INDEPENDENT:        1.492
REMARK UNBOUND:                -2.095
REMARK  5 active torsions:
REMARK  status: ('A' for Active; 'I' for Inactive)
REMARK    1  A    between atoms: C_2  and  N_3 
REMARK    2  A    between atoms: C_11  and  C_12 
REMARK       I    between atoms: C_12  and  N_14 
REMARK    3  A    between atoms: N_14  and  N_15 
REMARK    4  A    between atoms: C_19  and  C_20 
REMARK    5  A    between atoms: C_19  and  C_26 
ROOT
ATOM      1  N   UNL d   1      25.949 -13.812  -3.919  0.00  0.00    -0.166 N 
ATOM      2  C   UNL d   1      26.543 -14.916  -4.464  0.00  0.00     0.346 A 
ATOM      3  O   UNL d   1      26.884 -15.119  -5.622  0.00  0.00    -0.245 OA
ATOM      4  N   UNL d   1      26.796 -15.806  -3.445  0.00  0.00    -0.315 N 
ATOM      5  C   UNL d   1      26.459 -15.294  -2.121  0.00  0.00     0.173 A 
ATOM      6  C   UNL d   1      25.901 -13.888  -2.545  0.00  0.00     0.285 A 
ATOM      7  O   UNL d   1      25.530 -12.986  -1.801  0.00  0.00    -0.267 OA
ATOM      8  H   UNL d   1      27.219 -16.700  -3.642  0.00  0.00     0.166 HD
ENDROOT
BRANCH   1   9
ATOM      9  N   UNL d   1      25.655 -12.648  -4.625  0.00  0.00    -0.252 N 
ATOM     10  C   UNL d   1      26.575 -11.614  -4.640  0.00  0.00     0.270 C 
ATOM     11  O   UNL d   1      27.672 -11.663  -4.093  0.00  0.00    -0.266 OA
ATOM     12  H   UNL d   1      24.779 -12.652  -5.132  0.00  0.00     0.191 HD
BRANCH  10  13
ATOM     13  C   UNL d   1      26.194 -10.361  -5.351  0.00  0.00     0.035 C 
ATOM     14  C   UNL d   1      25.156  -9.572  -4.822  0.00  0.00     0.049 C 
ATOM     15  C   UNL d   1      24.788  -8.384  -5.456  0.00  0.00     0.063 A 
ATOM     16  N   UNL d   1      23.903  -7.509  -4.823  0.00  0.00    -0.317 N 
ATOM     17  C   UNL d   1      25.315  -8.065  -6.708  0.00  0.00     0.064 A 
ATOM     18  C   UNL d   1      23.537  -6.298  -5.354  0.00  0.00     0.314 A 
ATOM     19  H   UNL d   1      23.550  -7.707  -3.896  0.00  0.00     0.169 HD
ATOM     20  C   UNL d   1      24.069  -5.946  -6.754  0.00  0.00     0.316 A 
ATOM     21  O   UNL d   1      22.804  -5.521  -4.739  0.00  0.00    -0.262 OA
ATOM     22  N   UNL d   1      24.910  -6.876  -7.368  0.00  0.00    -0.308 N 
ATOM     23  O   UNL d   1      23.736  -4.880  -7.271  0.00  0.00    -0.262 OA
ATOM     24  C   UNL d   1      26.273  -8.916  -7.268  0.00  0.00     0.033 C 
ATOM     25  C   UNL d   1      26.805  -9.970  -6.537  0.00  0.00     0.019 C 
BRANCH  22  26
ATOM     26  C   UNL d   1      25.323  -6.632  -8.744  0.00  0.00     0.128 C 
ATOM     27  C   UNL d   1      24.108  -6.575  -9.664  0.00  0.00     0.027 C 
ENDBRANCH  22  26
ENDBRANCH  10  13
ENDBRANCH   1   9
BRANCH   5  28
ATOM     28  C   UNL d   1      25.417 -16.225  -1.490  0.00  0.00    -0.016 A 
ATOM     29  C   UNL d   1      25.826 -17.316  -0.679  0.00  0.00     0.010 A 
ATOM     30  C   UNL d   1      24.893 -18.138  -0.050  0.00  0.00     0.001 A 
ATOM     31  C   UNL d   1      23.539 -17.859  -0.180  0.00  0.00     0.000 A 
ATOM     32  C   UNL d   1      23.123 -16.740  -0.895  0.00  0.00     0.001 A 
ATOM     33  C   UNL d   1      24.047 -15.953  -1.576  0.00  0.00     0.010 A 
ENDBRANCH   5  28
BRANCH   5  34
ATOM     34  C   UNL d   1      27.737 -15.161  -1.269  0.00  0.00    -0.016 C 
ATOM     35  C   UNL d   1      28.882 -15.912  -1.571  0.00  0.00     0.010 C 
ATOM     36  C   UNL d   1      29.924 -16.011  -0.647  0.00  0.00     0.001 C 
ATOM     37  C   UNL d   1      29.893 -15.278   0.537  0.00  0.00     0.000 C 
ATOM     38  C   UNL d   1      28.852 -14.399   0.775  0.00  0.00     0.001 C 
ATOM     39  C   UNL d   1      27.782 -14.357  -0.109  0.00  0.00     0.010 C 
ENDBRANCH   5  34
TORSDOF 5
ENDMDL
