MODEL 1
REMARK VINA RESULT:    -8.415      0.000      0.000
REMARK INTER + INTRA:          -9.908
REMARK INTER:                  -9.608
REMARK INTRA:                  -0.300
REMARK CONF_INDEPENDENT:        1.193
REMARK UNBOUND:                -0.300
REMARK  4 active torsions:
REMARK  status: ('A' for Active; 'I' for Inactive)
REMARK       I    between atoms: C_2  and  N_3 
REMARK    1  A    between atoms: C_2  and  C_11 
REMARK    2  A    between atoms: N_3  and  C_4 
REMARK    3  A    between atoms: C_13  and  O_14 
REMARK    4  A    between atoms: C_16  and  O_17 
ROOT
ATOM      1  O   UNL d   1      21.551 -18.949  -1.644  0.00  0.00    -0.267 OA
ATOM      2  C   UNL d   1      21.579 -18.941  -0.411  0.00  0.00     0.256 C 
ATOM      3  N   UNL d   1      22.645 -18.480   0.360  0.00  0.00    -0.323 N 
ATOM      4  H   UNL d   1      22.720 -18.804   1.317  0.00  0.00     0.169 HD
ENDROOT
BRANCH   2   5
ATOM      5  C   UNL d   1      20.409 -19.531   0.293  0.00  0.00     0.037 A 
ATOM      6  C   UNL d   1      20.467 -19.735   1.686  0.00  0.00     0.053 A 
ATOM      7  C   UNL d   1      19.426 -20.405   2.330  0.00  0.00     0.069 A 
ATOM      8  C   UNL d   1      18.346 -20.905   1.610  0.00  0.00     0.073 A 
ATOM      9  C   UNL d   1      18.305 -20.708   0.232  0.00  0.00     0.069 A 
ATOM     10  C   UNL d   1      19.319 -20.018  -0.433  0.00  0.00     0.053 A 
BRANCH   7  11
ATOM     11  O   UNL d   1      19.419 -20.614   3.680  0.00  0.00    -0.361 OA
ATOM     12  H   UNL d   1      20.331 -20.703   4.003  0.00  0.00     0.217 HD
ENDBRANCH   7  11
BRANCH   9  13
ATOM     13  O   UNL d   1      17.280 -21.200  -0.521  0.00  0.00    -0.361 OA
ATOM     14  H   UNL d   1      16.909 -21.982  -0.077  0.00  0.00     0.217 HD
ENDBRANCH   9  13
ENDBRANCH   2   5
BRANCH   3  15
ATOM     15  C   UNL d   1      23.800 -17.909  -0.243  0.00  0.00     0.036 A 
ATOM     16  C   UNL d   1      25.072 -18.397   0.082  0.00  0.00     0.029 A 
ATOM     17  C   UNL d   1      26.227 -17.824  -0.457  0.00  0.00     0.004 A 
ATOM     18  C   UNL d   1      26.124 -16.733  -1.312  0.00  0.00     0.024 A 
ATOM     19  C   UNL d   1      24.860 -16.251  -1.655  0.00  0.00     0.036 A 
ATOM     20 CL   UNL d   1      24.749 -14.864  -2.675  0.00  0.00    -0.084 Cl
ATOM     21  C   UNL d   1      23.694 -16.855  -1.158  0.00  0.00     0.053 A 
ENDBRANCH   3  15
TORSDOF 4
ENDMDL
MODEL 2
REMARK VINA RESULT:    -8.393      1.207      2.553
REMARK INTER + INTRA:          -9.621
REMARK INTER:                  -9.586
REMARK INTRA:                  -0.035
REMARK CONF_INDEPENDENT:        1.193
REMARK UNBOUND:                -0.035
REMARK  4 active torsions:
REMARK  status: ('A' for Active; 'I' for Inactive)
REMARK       I    between atoms: C_2  and  N_3 
REMARK    1  A    between atoms: C_2  and  C_11 
REMARK    2  A    between atoms: N_3  and  C_4 
REMARK    3  A    between atoms: C_13  and  O_14 
REMARK    4  A    between atoms: C_16  and  O_17 
ROOT
ATOM      1  O   UNL d   1      21.003 -17.785  -1.018  0.00  0.00    -0.267 OA
ATOM      2  C   UNL d   1      21.396 -18.575  -0.154  0.00  0.00     0.256 C 
ATOM      3  N   UNL d   1      22.722 -18.717   0.253  0.00  0.00    -0.323 N 
ATOM      4  H   UNL d   1      22.994 -19.582   0.706  0.00  0.00     0.169 HD
ENDROOT
BRANCH   2   5
ATOM      5  C   UNL d   1      20.378 -19.482   0.440  0.00  0.00     0.037 A 
ATOM      6  C   UNL d   1      19.334 -19.976  -0.367  0.00  0.00     0.053 A 
ATOM      7  C   UNL d   1      18.306 -20.721   0.213  0.00  0.00     0.069 A 
ATOM      8  C   UNL d   1      18.280 -20.954   1.584  0.00  0.00     0.073 A 
ATOM      9  C   UNL d   1      19.311 -20.450   2.373  0.00  0.00     0.069 A 
ATOM     10  C   UNL d   1      20.365 -19.725   1.816  0.00  0.00     0.053 A 
BRANCH   7  11
ATOM     11  O   UNL d   1      17.280 -21.243  -0.522  0.00  0.00    -0.361 OA
ATOM     12  H   UNL d   1      16.845 -21.953  -0.020  0.00  0.00     0.217 HD
ENDBRANCH   7  11
BRANCH   9  13
ATOM     13  O   UNL d   1      19.318 -20.630   3.725  0.00  0.00    -0.361 OA
ATOM     14  H   UNL d   1      19.843 -21.422   3.935  0.00  0.00     0.217 HD
ENDBRANCH   9  13
ENDBRANCH   2   5
BRANCH   3  15
ATOM     15  C   UNL d   1      23.750 -17.889  -0.277  0.00  0.00     0.036 A 
ATOM     16  C   UNL d   1      23.434 -16.891  -1.208  0.00  0.00     0.029 A 
ATOM     17  C   UNL d   1      24.430 -16.095  -1.782  0.00  0.00     0.004 A 
ATOM     18  C   UNL d   1      25.762 -16.307  -1.449  0.00  0.00     0.024 A 
ATOM     19  C   UNL d   1      26.085 -17.287  -0.509  0.00  0.00     0.036 A 
ATOM     20 CL   UNL d   1      27.746 -17.573  -0.145  0.00  0.00    -0.084 Cl
ATOM     21  C   UNL d   1      25.084 -18.054   0.109  0.00  0.00     0.053 A 
ENDBRANCH   3  15
TORSDOF 4
ENDMDL
MODEL 3
REMARK VINA RESULT:    -7.132      3.373      7.192
REMARK INTER + INTRA:          -8.637
REMARK INTER:                  -8.325
REMARK INTRA:                  -0.311
REMARK CONF_INDEPENDENT:        1.193
REMARK UNBOUND:                -0.311
REMARK  4 active torsions:
REMARK  status: ('A' for Active; 'I' for Inactive)
REMARK       I    between atoms: C_2  and  N_3 
REMARK    1  A    between atoms: C_2  and  C_11 
REMARK    2  A    between atoms: N_3  and  C_4 
REMARK    3  A    between atoms: C_13  and  O_14 
REMARK    4  A    between atoms: C_16  and  O_17 
ROOT
ATOM      1  O   UNL d   1      22.252 -16.749  -0.859  0.00  0.00    -0.267 OA
ATOM      2  C   UNL d   1      23.038 -17.608  -0.450  0.00  0.00     0.256 C 
ATOM      3  N   UNL d   1      22.672 -18.879  -0.008  0.00  0.00    -0.323 N 
ATOM      4  H   UNL d   1      23.314 -19.378   0.598  0.00  0.00     0.169 HD
ENDROOT
BRANCH   2   5
ATOM      5  C   UNL d   1      24.472 -17.221  -0.366  0.00  0.00     0.037 A 
ATOM      6  C   UNL d   1      24.875 -15.950  -0.821  0.00  0.00     0.053 A 
ATOM      7  C   UNL d   1      26.233 -15.631  -0.865  0.00  0.00     0.069 A 
ATOM      8  C   UNL d   1      27.197 -16.563  -0.498  0.00  0.00     0.073 A 
ATOM      9  C   UNL d   1      26.787 -17.820  -0.061  0.00  0.00     0.069 A 
ATOM     10  C   UNL d   1      25.436 -18.157   0.018  0.00  0.00     0.053 A 
BRANCH   7  11
ATOM     11  O   UNL d   1      26.681 -14.408  -1.278  0.00  0.00    -0.361 OA
ATOM     12  H   UNL d   1      27.634 -14.455  -1.467  0.00  0.00     0.217 HD
ENDBRANCH   7  11
BRANCH   9  13
ATOM     13  O   UNL d   1      27.695 -18.777   0.287  0.00  0.00    -0.361 OA
ATOM     14  H   UNL d   1      28.590 -18.400   0.230  0.00  0.00     0.217 HD
ENDBRANCH   9  13
ENDBRANCH   2   5
BRANCH   3  15
ATOM     15  C   UNL d   1      21.320 -19.315  -0.052  0.00  0.00     0.036 A 
ATOM     16  C   UNL d   1      20.627 -19.323  -1.270  0.00  0.00     0.029 A 
ATOM     17  C   UNL d   1      19.283 -19.700  -1.336  0.00  0.00     0.004 A 
ATOM     18  C   UNL d   1      18.605 -20.051  -0.174  0.00  0.00     0.024 A 
ATOM     19  C   UNL d   1      19.291 -20.063   1.040  0.00  0.00     0.036 A 
ATOM     20 CL   UNL d   1      18.424 -20.450   2.480  0.00  0.00    -0.084 Cl
ATOM     21  C   UNL d   1      20.655 -19.735   1.105  0.00  0.00     0.053 A 
ENDBRANCH   3  15
TORSDOF 4
ENDMDL
MODEL 4
REMARK VINA RESULT:    -7.017      3.388      7.104
REMARK INTER + INTRA:          -8.524
REMARK INTER:                  -8.210
REMARK INTRA:                  -0.313
REMARK CONF_INDEPENDENT:        1.193
REMARK UNBOUND:                -0.313
REMARK  4 active torsions:
REMARK  status: ('A' for Active; 'I' for Inactive)
REMARK       I    between atoms: C_2  and  N_3 
REMARK    1  A    between atoms: C_2  and  C_11 
REMARK    2  A    between atoms: N_3  and  C_4 
REMARK    3  A    between atoms: C_13  and  O_14 
REMARK    4  A    between atoms: C_16  and  O_17 
ROOT
ATOM      1  O   UNL d   1      22.231 -16.758  -0.894  0.00  0.00    -0.267 OA
ATOM      2  C   UNL d   1      23.025 -17.645  -0.568  0.00  0.00     0.256 C 
ATOM      3  N   UNL d   1      22.664 -18.930  -0.167  0.00  0.00    -0.323 N 
ATOM      4  H   UNL d   1      23.329 -19.466   0.379  0.00  0.00     0.169 HD
ENDROOT
BRANCH   2   5
ATOM      5  C   UNL d   1      24.467 -17.280  -0.543  0.00  0.00     0.037 A 
ATOM      6  C   UNL d   1      25.424 -18.260  -0.212  0.00  0.00     0.053 A 
ATOM      7  C   UNL d   1      26.762 -17.895  -0.060  0.00  0.00     0.069 A 
ATOM      8  C   UNL d   1      27.160 -16.569  -0.198  0.00  0.00     0.073 A 
ATOM      9  C   UNL d   1      26.203 -15.608  -0.513  0.00  0.00     0.069 A 
ATOM     10  C   UNL d   1      24.863 -15.949  -0.696  0.00  0.00     0.053 A 
BRANCH   7  11
ATOM     11  O   UNL d   1      27.737 -18.804   0.239  0.00  0.00    -0.361 OA
ATOM     12  H   UNL d   1      28.515 -18.345   0.598  0.00  0.00     0.217 HD
ENDBRANCH   7  11
BRANCH   9  13
ATOM     13  O   UNL d   1      26.538 -14.291  -0.634  0.00  0.00    -0.361 OA
ATOM     14  H   UNL d   1      27.425 -14.155  -0.258  0.00  0.00     0.217 HD
ENDBRANCH   9  13
ENDBRANCH   2   5
BRANCH   3  15
ATOM     15  C   UNL d   1      21.305 -19.348  -0.160  0.00  0.00     0.036 A 
ATOM     16  C   UNL d   1      20.565 -19.341  -1.350  0.00  0.00     0.029 A 
ATOM     17  C   UNL d   1      19.214 -19.699  -1.364  0.00  0.00     0.004 A 
ATOM     18  C   UNL d   1      18.577 -20.045  -0.178  0.00  0.00     0.024 A 
ATOM     19  C   UNL d   1      19.310 -20.071   1.009  0.00  0.00     0.036 A 
ATOM     20 CL   UNL d   1      18.494 -20.450   2.480  0.00  0.00    -0.084 Cl
ATOM     21  C   UNL d   1      20.680 -19.762   1.021  0.00  0.00     0.053 A 
ENDBRANCH   3  15
TORSDOF 4
ENDMDL
MODEL 5
REMARK VINA RESULT:    -6.663      4.816      8.808
REMARK INTER + INTRA:          -8.157
REMARK INTER:                  -7.856
REMARK INTRA:                  -0.300
REMARK CONF_INDEPENDENT:        1.193
REMARK UNBOUND:                -0.300
REMARK  4 active torsions:
REMARK  status: ('A' for Active; 'I' for Inactive)
REMARK       I    between atoms: C_2  and  N_3 
REMARK    1  A    between atoms: C_2  and  C_11 
REMARK    2  A    between atoms: N_3  and  C_4 
REMARK    3  A    between atoms: C_13  and  O_14 
REMARK    4  A    between atoms: C_16  and  O_17 
ROOT
ATOM      1  O   UNL d   1      24.074 -14.694  -2.773  0.00  0.00    -0.267 OA
ATOM      2  C   UNL d   1      25.153 -15.163  -3.147  0.00  0.00     0.256 C 
ATOM      3  N   UNL d   1      25.779 -16.273  -2.582  0.00  0.00    -0.323 N 
ATOM      4  H   UNL d   1      26.776 -16.384  -2.723  0.00  0.00     0.169 HD
ENDROOT
BRANCH   2   5
ATOM      5  C   UNL d   1      25.859 -14.440  -4.239  0.00  0.00     0.037 A 
ATOM      6  C   UNL d   1      26.906 -15.080  -4.930  0.00  0.00     0.053 A 
ATOM      7  C   UNL d   1      27.656 -14.364  -5.865  0.00  0.00     0.069 A 
ATOM      8  C   UNL d   1      27.405 -13.016  -6.100  0.00  0.00     0.073 A 
ATOM      9  C   UNL d   1      26.375 -12.392  -5.402  0.00  0.00     0.069 A 
ATOM     10  C   UNL d   1      25.593 -13.090  -4.481  0.00  0.00     0.053 A 
BRANCH   7  11
ATOM     11  O   UNL d   1      28.669 -14.937  -6.580  0.00  0.00    -0.361 OA
ATOM     12  H   UNL d   1      28.776 -14.473  -7.428  0.00  0.00     0.217 HD
ENDBRANCH   7  11
BRANCH   9  13
ATOM     13  O   UNL d   1      26.105 -11.066  -5.578  0.00  0.00    -0.361 OA
ATOM     14  H   UNL d   1      25.163 -10.908  -5.390  0.00  0.00     0.217 HD
ENDBRANCH   9  13
ENDBRANCH   2   5
BRANCH   3  15
ATOM     15  C   UNL d   1      25.167 -17.010  -1.530  0.00  0.00     0.036 A 
ATOM     16  C   UNL d   1      25.927 -17.411  -0.424  0.00  0.00     0.029 A 
ATOM     17  C   UNL d   1      25.365 -18.178   0.601  0.00  0.00     0.004 A 
ATOM     18  C   UNL d   1      24.036 -18.576   0.517  0.00  0.00     0.024 A 
ATOM     19  C   UNL d   1      23.267 -18.167  -0.572  0.00  0.00     0.036 A 
ATOM     20 CL   UNL d   1      21.635 -18.713  -0.688  0.00  0.00    -0.084 Cl
ATOM     21  C   UNL d   1      23.812 -17.353  -1.579  0.00  0.00     0.053 A 
ENDBRANCH   3  15
TORSDOF 4
ENDMDL
MODEL 6
REMARK VINA RESULT:    -6.647      1.628      2.245
REMARK INTER + INTRA:          -8.076
REMARK INTER:                  -7.840
REMARK INTRA:                  -0.236
REMARK CONF_INDEPENDENT:        1.193
REMARK UNBOUND:                -0.236
REMARK  4 active torsions:
REMARK  status: ('A' for Active; 'I' for Inactive)
REMARK       I    between atoms: C_2  and  N_3 
REMARK    1  A    between atoms: C_2  and  C_11 
REMARK    2  A    between atoms: N_3  and  C_4 
REMARK    3  A    between atoms: C_13  and  O_14 
REMARK    4  A    between atoms: C_16  and  O_17 
ROOT
ATOM      1  O   UNL d   1      23.174 -16.430  -1.276  0.00  0.00    -0.267 OA
ATOM      2  C   UNL d   1      23.271 -17.478  -0.631  0.00  0.00     0.256 C 
ATOM      3  N   UNL d   1      24.472 -18.087  -0.272  0.00  0.00    -0.323 N 
ATOM      4  H   UNL d   1      24.460 -19.074  -0.044  0.00  0.00     0.169 HD
ENDROOT
BRANCH   2   5
ATOM      5  C   UNL d   1      22.001 -18.167  -0.274  0.00  0.00     0.037 A 
ATOM      6  C   UNL d   1      21.784 -18.575   1.057  0.00  0.00     0.053 A 
ATOM      7  C   UNL d   1      20.656 -19.334   1.372  0.00  0.00     0.069 A 
ATOM      8  C   UNL d   1      19.759 -19.723   0.382  0.00  0.00     0.073 A 
ATOM      9  C   UNL d   1      19.991 -19.324  -0.932  0.00  0.00     0.069 A 
ATOM     10  C   UNL d   1      21.096 -18.543  -1.270  0.00  0.00     0.053 A 
BRANCH   7  11
ATOM     11  O   UNL d   1      20.383 -19.741   2.647  0.00  0.00    -0.361 OA
ATOM     12  H   UNL d   1      20.655 -20.667   2.761  0.00  0.00     0.217 HD
ENDBRANCH   7  11
BRANCH   9  13
ATOM     13  O   UNL d   1      19.154 -19.700  -1.942  0.00  0.00    -0.361 OA
ATOM     14  H   UNL d   1      18.358 -20.105  -1.557  0.00  0.00     0.217 HD
ENDBRANCH   9  13
ENDBRANCH   2   5
BRANCH   3  15
ATOM     15  C   UNL d   1      25.725 -17.490  -0.585  0.00  0.00     0.036 A 
ATOM     16  C   UNL d   1      26.828 -17.698   0.254  0.00  0.00     0.029 A 
ATOM     17  C   UNL d   1      28.057 -17.085  -0.002  0.00  0.00     0.004 A 
ATOM     18  C   UNL d   1      28.192 -16.232  -1.090  0.00  0.00     0.024 A 
ATOM     19  C   UNL d   1      27.104 -16.031  -1.941  0.00  0.00     0.036 A 
ATOM     20 CL   UNL d   1      27.271 -14.928  -3.256  0.00  0.00    -0.084 Cl
ATOM     21  C   UNL d   1      25.881 -16.685  -1.719  0.00  0.00     0.053 A 
ENDBRANCH   3  15
TORSDOF 4
ENDMDL
MODEL 7
REMARK VINA RESULT:    -6.610      4.844      8.853
REMARK INTER + INTRA:          -8.081
REMARK INTER:                  -7.803
REMARK INTRA:                  -0.278
REMARK CONF_INDEPENDENT:        1.193
REMARK UNBOUND:                -0.278
REMARK  4 active torsions:
REMARK  status: ('A' for Active; 'I' for Inactive)
REMARK       I    between atoms: C_2  and  N_3 
REMARK    1  A    between atoms: C_2  and  C_11 
REMARK    2  A    between atoms: N_3  and  C_4 
REMARK    3  A    between atoms: C_13  and  O_14 
REMARK    4  A    between atoms: C_16  and  O_17 
ROOT
ATOM      1  O   UNL d   1      24.139 -14.640  -2.800  0.00  0.00    -0.267 OA
ATOM      2  C   UNL d   1      25.280 -15.037  -3.054  0.00  0.00     0.256 C 
ATOM      3  N   UNL d   1      25.908 -16.113  -2.428  0.00  0.00    -0.323 N 
ATOM      4  H   UNL d   1      26.920 -16.161  -2.458  0.00  0.00     0.169 HD
ENDROOT
BRANCH   2   5
ATOM      5  C   UNL d   1      26.055 -14.258  -4.056  0.00  0.00     0.037 A 
ATOM      6  C   UNL d   1      25.662 -12.941  -4.366  0.00  0.00     0.053 A 
ATOM      7  C   UNL d   1      26.304 -12.252  -5.396  0.00  0.00     0.069 A 
ATOM      8  C   UNL d   1      27.305 -12.861  -6.145  0.00  0.00     0.073 A 
ATOM      9  C   UNL d   1      27.678 -14.167  -5.837  0.00  0.00     0.069 A 
ATOM     10  C   UNL d   1      27.071 -14.869  -4.796  0.00  0.00     0.053 A 
BRANCH   7  11
ATOM     11  O   UNL d   1      25.979 -10.967  -5.728  0.00  0.00    -0.361 OA
ATOM     12  H   UNL d   1      25.121 -10.734  -5.334  0.00  0.00     0.217 HD
ENDBRANCH   7  11
BRANCH   9  13
ATOM     13  O   UNL d   1      28.637 -14.816  -6.557  0.00  0.00    -0.361 OA
ATOM     14  H   UNL d   1      28.658 -14.449  -7.458  0.00  0.00     0.217 HD
ENDBRANCH   9  13
ENDBRANCH   2   5
BRANCH   3  15
ATOM     15  C   UNL d   1      25.231 -16.900  -1.456  0.00  0.00     0.036 A 
ATOM     16  C   UNL d   1      25.928 -17.384  -0.341  0.00  0.00     0.029 A 
ATOM     17  C   UNL d   1      25.301 -18.200   0.606  0.00  0.00     0.004 A 
ATOM     18  C   UNL d   1      23.971 -18.564   0.433  0.00  0.00     0.024 A 
ATOM     19  C   UNL d   1      23.265 -18.072  -0.665  0.00  0.00     0.036 A 
ATOM     20 CL   UNL d   1      21.631 -18.575  -0.894  0.00  0.00    -0.084 Cl
ATOM     21  C   UNL d   1      23.874 -17.210  -1.591  0.00  0.00     0.053 A 
ENDBRANCH   3  15
TORSDOF 4
ENDMDL
MODEL 8
REMARK VINA RESULT:    -6.314      5.202      8.895
REMARK INTER + INTRA:          -7.830
REMARK INTER:                  -7.508
REMARK INTRA:                  -0.322
REMARK CONF_INDEPENDENT:        1.193
REMARK UNBOUND:                -0.322
REMARK  4 active torsions:
REMARK  status: ('A' for Active; 'I' for Inactive)
REMARK       I    between atoms: C_2  and  N_3 
REMARK    1  A    between atoms: C_2  and  C_11 
REMARK    2  A    between atoms: N_3  and  C_4 
REMARK    3  A    between atoms: C_13  and  O_14 
REMARK    4  A    between atoms: C_16  and  O_17 
ROOT
ATOM      1  O   UNL d   1      25.154 -15.344  -3.910  0.00  0.00    -0.267 OA
ATOM      2  C   UNL d   1      25.548 -14.528  -3.073  0.00  0.00     0.256 C 
ATOM      3  N   UNL d   1      25.596 -14.756  -1.698  0.00  0.00    -0.323 N 
ATOM      4  H   UNL d   1      25.615 -13.953  -1.080  0.00  0.00     0.169 HD
ENDROOT
BRANCH   2   5
ATOM      5  C   UNL d   1      25.935 -13.183  -3.575  0.00  0.00     0.037 A 
ATOM      6  C   UNL d   1      26.559 -12.269  -2.702  0.00  0.00     0.053 A 
ATOM      7  C   UNL d   1      26.806 -10.964  -3.129  0.00  0.00     0.069 A 
ATOM      8  C   UNL d   1      26.414 -10.541  -4.395  0.00  0.00     0.073 A 
ATOM      9  C   UNL d   1      25.787 -11.449  -5.245  0.00  0.00     0.069 A 
ATOM     10  C   UNL d   1      25.552 -12.767  -4.853  0.00  0.00     0.053 A 
BRANCH   7  11
ATOM     11  O   UNL d   1      27.427 -10.042  -2.335  0.00  0.00    -0.361 OA
ATOM     12  H   UNL d   1      28.364 -10.276  -2.231  0.00  0.00     0.217 HD
ENDBRANCH   7  11
BRANCH   9  13
ATOM     13  O   UNL d   1      25.362 -11.077  -6.486  0.00  0.00    -0.361 OA
ATOM     14  H   UNL d   1      24.394 -11.166  -6.528  0.00  0.00     0.217 HD
ENDBRANCH   9  13
ENDBRANCH   2   5
BRANCH   3  15
ATOM     15  C   UNL d   1      25.235 -16.015  -1.145  0.00  0.00     0.036 A 
ATOM     16  C   UNL d   1      26.213 -16.823  -0.549  0.00  0.00     0.029 A 
ATOM     17  C   UNL d   1      25.897 -18.086  -0.041  0.00  0.00     0.004 A 
ATOM     18  C   UNL d   1      24.598 -18.569  -0.147  0.00  0.00     0.024 A 
ATOM     19  C   UNL d   1      23.614 -17.765  -0.724  0.00  0.00     0.036 A 
ATOM     20 CL   UNL d   1      22.020 -18.400  -0.897  0.00  0.00    -0.084 Cl
ATOM     21  C   UNL d   1      23.914 -16.475  -1.189  0.00  0.00     0.053 A 
ENDBRANCH   3  15
TORSDOF 4
ENDMDL
MODEL 9
REMARK VINA RESULT:    -6.188      6.096      9.149
REMARK INTER + INTRA:          -7.702
REMARK INTER:                  -7.381
REMARK INTRA:                  -0.322
REMARK CONF_INDEPENDENT:        1.193
REMARK UNBOUND:                -0.322
REMARK  4 active torsions:
REMARK  status: ('A' for Active; 'I' for Inactive)
REMARK       I    between atoms: C_2  and  N_3 
REMARK    1  A    between atoms: C_2  and  C_11 
REMARK    2  A    between atoms: N_3  and  C_4 
REMARK    3  A    between atoms: C_13  and  O_14 
REMARK    4  A    between atoms: C_16  and  O_17 
ROOT
ATOM      1  O   UNL d   1      26.629 -13.877   1.305  0.00  0.00    -0.267 OA
ATOM      2  C   UNL d   1      27.422 -14.764   1.633  0.00  0.00     0.256 C 
ATOM      3  N   UNL d   1      27.451 -16.048   1.091  0.00  0.00    -0.323 N 
ATOM      4  H   UNL d   1      27.894 -16.785   1.629  0.00  0.00     0.169 HD
ENDROOT
BRANCH   2   5
ATOM      5  C   UNL d   1      28.368 -14.446   2.737  0.00  0.00     0.037 A 
ATOM      6  C   UNL d   1      29.701 -14.107   2.431  0.00  0.00     0.053 A 
ATOM      7  C   UNL d   1      30.624 -13.935   3.464  0.00  0.00     0.069 A 
ATOM      8  C   UNL d   1      30.254 -14.126   4.791  0.00  0.00     0.073 A 
ATOM      9  C   UNL d   1      28.936 -14.472   5.080  0.00  0.00     0.069 A 
ATOM     10  C   UNL d   1      27.987 -14.625   4.069  0.00  0.00     0.053 A 
BRANCH   7  11
ATOM     11  O   UNL d   1      31.924 -13.587   3.229  0.00  0.00    -0.361 OA
ATOM     12  H   UNL d   1      32.439 -13.670   4.050  0.00  0.00     0.217 HD
ENDBRANCH   7  11
BRANCH   9  13
ATOM     13  O   UNL d   1      28.530 -14.694   6.363  0.00  0.00    -0.361 OA
ATOM     14  H   UNL d   1      28.803 -15.589   6.630  0.00  0.00     0.217 HD
ENDBRANCH   9  13
ENDBRANCH   2   5
BRANCH   3  15
ATOM     15  C   UNL d   1      26.573 -16.426   0.039  0.00  0.00     0.036 A 
ATOM     16  C   UNL d   1      26.680 -15.810  -1.215  0.00  0.00     0.029 A 
ATOM     17  C   UNL d   1      25.799 -16.126  -2.254  0.00  0.00     0.004 A 
ATOM     18  C   UNL d   1      24.780 -17.047  -2.041  0.00  0.00     0.024 A 
ATOM     19  C   UNL d   1      24.677 -17.677  -0.800  0.00  0.00     0.036 A 
ATOM     20 CL   UNL d   1      23.376 -18.778  -0.534  0.00  0.00    -0.084 Cl
ATOM     21  C   UNL d   1      25.590 -17.403   0.230  0.00  0.00     0.053 A 
ENDBRANCH   3  15
TORSDOF 4
ENDMDL
