MODEL 1
REMARK VINA RESULT:    -8.201      0.000      0.000
REMARK INTER + INTRA:         -13.600
REMARK INTER:                 -11.482
REMARK INTRA:                  -2.117
REMARK CONF_INDEPENDENT:        3.281
REMARK UNBOUND:                -2.117
REMARK  11 active torsions:
REMARK  status: ('A' for Active; 'I' for Inactive)
REMARK    1  A    between atoms: C_2  and  C_3 
REMARK    2  A    between atoms: C_2  and  N_11 
REMARK    3  A    between atoms: C_3  and  C_4 
REMARK    4  A    between atoms: C_4  and  C_5 
REMARK       I    between atoms: N_11  and  C_12 
REMARK       I    between atoms: C_12  and  N_14 
REMARK    5  A    between atoms: N_14  and  C_15 
REMARK    6  A    between atoms: C_16  and  C_15 
REMARK    7  A    between atoms: C_16  and  C_18 
REMARK    8  A    between atoms: C_16  and  O_17 
REMARK    9  A    between atoms: C_18  and  O_19 
REMARK   10  A    between atoms: O_19  and  C_20 
REMARK   11  A    between atoms: C_23  and  N_24 
ROOT
ATOM      1  N   UNL d   1      28.755 -14.723   3.535  0.00  0.00    -0.339 N 
ATOM      2  C   UNL d   1      28.431 -14.412   2.237  0.00  0.00     0.316 C 
ATOM      3  O   UNL d   1      27.685 -13.469   1.951  0.00  0.00    -0.247 OA
ATOM      4  N   UNL d   1      28.965 -15.223   1.249  0.00  0.00    -0.341 N 
ATOM      5  H   UNL d   1      29.347 -15.515   3.730  0.00  0.00     0.164 HD
ATOM      6  H   UNL d   1      29.710 -15.869   1.473  0.00  0.00     0.164 HD
ENDROOT
BRANCH   4   7
ATOM      7  C   UNL d   1      28.707 -14.781  -0.129  0.00  0.00     0.158 C 
BRANCH   7   8
ATOM      8  C   UNL d   1      27.315 -14.824  -0.804  0.00  0.00     0.160 C 
BRANCH   8   9
ATOM      9  C   UNL d   1      26.706 -16.188  -1.086  0.00  0.00     0.209 C 
BRANCH   9  10
ATOM     10  O   UNL d   1      25.976 -16.622   0.053  0.00  0.00    -0.349 OA
BRANCH  10  11
ATOM     11  C   UNL d   1      24.764 -17.195  -0.208  0.00  0.00     0.069 A 
ATOM     12  C   UNL d   1      23.785 -16.318  -0.679  0.00  0.00     0.039 A 
ATOM     13  C   UNL d   1      22.477 -16.759  -0.876  0.00  0.00     0.039 A 
ATOM     14  C   UNL d   1      22.168 -18.107  -0.658  0.00  0.00     0.103 A 
ATOM     15  C   UNL d   1      23.142 -18.990  -0.176  0.00  0.00     0.039 A 
ATOM     16  C   UNL d   1      24.440 -18.527   0.058  0.00  0.00     0.039 A 
BRANCH  14  17
ATOM     17  N   UNL d   1      20.831 -18.609  -0.992  0.00  0.00    -0.116 N 
ATOM     18  O   UNL d   1      19.880 -17.822  -0.899  0.00  0.00    -0.532 OA
ATOM     19  O   UNL d   1      20.737 -19.784  -1.379  0.00  0.00    -0.532 OA
ENDBRANCH  14  17
ENDBRANCH  10  11
ENDBRANCH   9  10
ENDBRANCH   8   9
BRANCH   8  20
ATOM     20  O   UNL d   1      26.359 -14.027  -0.090  0.00  0.00    -0.392 OA
ATOM     21  H   UNL d   1      26.094 -14.514   0.707  0.00  0.00     0.210 HD
ENDBRANCH   8  20
ENDBRANCH   7   8
ENDBRANCH   4   7
BRANCH   1  22
ATOM     22  C   UNL d   1      28.187 -13.959   4.678  0.00  0.00     0.082 C 
ATOM     23  C   UNL d   1      26.662 -14.082   4.765  0.00  0.00     0.032 C 
BRANCH  22  24
ATOM     24  C   UNL d   1      28.807 -14.416   6.002  0.00  0.00     0.029 C 
BRANCH  24  25
ATOM     25  C   UNL d   1      29.564 -13.329   6.778  0.00  0.00     0.040 C 
BRANCH  25  26
ATOM     26  C   UNL d   1      29.233 -13.342   8.251  0.00  0.00    -0.058 A 
ATOM     27  C   UNL d   1      29.523 -14.445   9.069  0.00  0.00     0.007 A 
ATOM     28  C   UNL d   1      29.050 -14.507  10.372  0.00  0.00     0.001 A 
ATOM     29  C   UNL d   1      28.383 -13.416  10.915  0.00  0.00     0.000 A 
ATOM     30  C   UNL d   1      28.153 -12.280  10.139  0.00  0.00     0.001 A 
ATOM     31  C   UNL d   1      28.570 -12.244   8.810  0.00  0.00     0.007 A 
ENDBRANCH  25  26
ENDBRANCH  24  25
ENDBRANCH  22  24
ENDBRANCH   1  22
TORSDOF 11
ENDMDL
MODEL 2
REMARK VINA RESULT:    -7.961      4.685      9.683
REMARK INTER + INTRA:         -13.119
REMARK INTER:                 -11.242
REMARK INTRA:                  -1.877
REMARK CONF_INDEPENDENT:        3.281
REMARK UNBOUND:                -1.877
REMARK  11 active torsions:
REMARK  status: ('A' for Active; 'I' for Inactive)
REMARK    1  A    between atoms: C_2  and  C_3 
REMARK    2  A    between atoms: C_2  and  N_11 
REMARK    3  A    between atoms: C_3  and  C_4 
REMARK    4  A    between atoms: C_4  and  C_5 
REMARK       I    between atoms: N_11  and  C_12 
REMARK       I    between atoms: C_12  and  N_14 
REMARK    5  A    between atoms: N_14  and  C_15 
REMARK    6  A    between atoms: C_16  and  C_15 
REMARK    7  A    between atoms: C_16  and  C_18 
REMARK    8  A    between atoms: C_16  and  O_17 
REMARK    9  A    between atoms: C_18  and  O_19 
REMARK   10  A    between atoms: O_19  and  C_20 
REMARK   11  A    between atoms: C_23  and  N_24 
ROOT
ATOM      1  N   UNL d   1      25.715 -17.513   0.038  0.00  0.00    -0.339 N 
ATOM      2  C   UNL d   1      26.669 -16.525   0.054  0.00  0.00     0.316 C 
ATOM      3  O   UNL d   1      26.388 -15.333  -0.109  0.00  0.00    -0.247 OA
ATOM      4  N   UNL d   1      27.982 -16.928   0.243  0.00  0.00    -0.341 N 
ATOM      5  H   UNL d   1      25.988 -18.477   0.150  0.00  0.00     0.164 HD
ATOM      6  H   UNL d   1      28.182 -17.868   0.554  0.00  0.00     0.164 HD
ENDROOT
BRANCH   4   7
ATOM      7  C   UNL d   1      28.955 -15.836   0.389  0.00  0.00     0.158 C 
BRANCH   7   8
ATOM      8  C   UNL d   1      28.921 -14.794   1.533  0.00  0.00     0.160 C 
BRANCH   8   9
ATOM      9  C   UNL d   1      29.059 -13.327   1.159  0.00  0.00     0.209 C 
BRANCH   9  10
ATOM     10  O   UNL d   1      27.867 -12.889   0.523  0.00  0.00    -0.349 OA
BRANCH  10  11
ATOM     11  C   UNL d   1      27.361 -11.704   0.974  0.00  0.00     0.069 A 
ATOM     12  C   UNL d   1      27.454 -10.640   0.075  0.00  0.00     0.039 A 
ATOM     13  C   UNL d   1      27.074  -9.355   0.459  0.00  0.00     0.039 A 
ATOM     14  C   UNL d   1      26.535  -9.152   1.735  0.00  0.00     0.103 A 
ATOM     15  C   UNL d   1      26.447 -10.211   2.646  0.00  0.00     0.039 A 
ATOM     16  C   UNL d   1      26.871 -11.487   2.264  0.00  0.00     0.039 A 
BRANCH  14  17
ATOM     17  N   UNL d   1      26.008  -7.832   2.099  0.00  0.00    -0.116 N 
ATOM     18  O   UNL d   1      25.295  -7.247   1.273  0.00  0.00    -0.532 OA
ATOM     19  O   UNL d   1      26.281  -7.394   3.228  0.00  0.00    -0.532 OA
ENDBRANCH  14  17
ENDBRANCH  10  11
ENDBRANCH   9  10
ENDBRANCH   8   9
BRANCH   8  20
ATOM     20  O   UNL d   1      27.757 -14.955   2.357  0.00  0.00    -0.392 OA
ATOM     21  H   UNL d   1      26.990 -15.077   1.776  0.00  0.00     0.210 HD
ENDBRANCH   8  20
ENDBRANCH   7   8
ENDBRANCH   4   7
BRANCH   1  22
ATOM     22  C   UNL d   1      24.284 -17.201  -0.221  0.00  0.00     0.082 C 
ATOM     23  C   UNL d   1      24.074 -16.472  -1.552  0.00  0.00     0.032 C 
BRANCH  22  24
ATOM     24  C   UNL d   1      23.436 -18.478  -0.204  0.00  0.00     0.029 C 
BRANCH  24  25
ATOM     25  C   UNL d   1      22.155 -18.421  -1.048  0.00  0.00     0.040 C 
BRANCH  25  26
ATOM     26  C   UNL d   1      21.004 -19.144  -0.391  0.00  0.00    -0.058 A 
ATOM     27  C   UNL d   1      19.895 -19.594  -1.122  0.00  0.00     0.007 A 
ATOM     28  C   UNL d   1      18.772 -20.093  -0.475  0.00  0.00     0.001 A 
ATOM     29  C   UNL d   1      18.790 -20.260   0.904  0.00  0.00     0.000 A 
ATOM     30  C   UNL d   1      19.915 -19.888   1.639  0.00  0.00     0.001 A 
ATOM     31  C   UNL d   1      21.016 -19.326   0.997  0.00  0.00     0.007 A 
ENDBRANCH  25  26
ENDBRANCH  24  25
ENDBRANCH  22  24
ENDBRANCH   1  22
TORSDOF 11
ENDMDL
MODEL 3
REMARK VINA RESULT:    -7.915      5.123      8.784
REMARK INTER + INTRA:         -13.653
REMARK INTER:                 -11.197
REMARK INTRA:                  -2.456
REMARK CONF_INDEPENDENT:        3.281
REMARK UNBOUND:                -2.456
REMARK  11 active torsions:
REMARK  status: ('A' for Active; 'I' for Inactive)
REMARK    1  A    between atoms: C_2  and  C_3 
REMARK    2  A    between atoms: C_2  and  N_11 
REMARK    3  A    between atoms: C_3  and  C_4 
REMARK    4  A    between atoms: C_4  and  C_5 
REMARK       I    between atoms: N_11  and  C_12 
REMARK       I    between atoms: C_12  and  N_14 
REMARK    5  A    between atoms: N_14  and  C_15 
REMARK    6  A    between atoms: C_16  and  C_15 
REMARK    7  A    between atoms: C_16  and  C_18 
REMARK    8  A    between atoms: C_16  and  O_17 
REMARK    9  A    between atoms: C_18  and  O_19 
REMARK   10  A    between atoms: O_19  and  C_20 
REMARK   11  A    between atoms: C_23  and  N_24 
ROOT
ATOM      1  N   UNL d   1      25.187 -18.044   0.195  0.00  0.00    -0.339 N 
ATOM      2  C   UNL d   1      26.174 -17.117  -0.037  0.00  0.00     0.316 C 
ATOM      3  O   UNL d   1      25.927 -15.980  -0.456  0.00  0.00    -0.247 OA
ATOM      4  N   UNL d   1      27.478 -17.521   0.200  0.00  0.00    -0.341 N 
ATOM      5  H   UNL d   1      25.431 -18.969   0.513  0.00  0.00     0.164 HD
ATOM      6  H   UNL d   1      27.658 -18.376   0.709  0.00  0.00     0.164 HD
ENDROOT
BRANCH   4   7
ATOM      7  C   UNL d   1      28.492 -16.465   0.070  0.00  0.00     0.158 C 
BRANCH   7   8
ATOM      8  C   UNL d   1      28.511 -15.174   0.925  0.00  0.00     0.160 C 
BRANCH   8   9
ATOM      9  C   UNL d   1      29.182 -13.944   0.335  0.00  0.00     0.209 C 
BRANCH   9  10
ATOM     10  O   UNL d   1      28.206 -13.141  -0.315  0.00  0.00    -0.349 OA
BRANCH  10  11
ATOM     11  C   UNL d   1      27.719 -13.640  -1.488  0.00  0.00     0.069 A 
ATOM     12  C   UNL d   1      28.669 -14.247  -2.312  0.00  0.00     0.039 A 
ATOM     13  C   UNL d   1      28.317 -14.696  -3.585  0.00  0.00     0.039 A 
ATOM     14  C   UNL d   1      26.985 -14.591  -4.004  0.00  0.00     0.103 A 
ATOM     15  C   UNL d   1      26.029 -13.976  -3.188  0.00  0.00     0.039 A 
ATOM     16  C   UNL d   1      26.403 -13.491  -1.931  0.00  0.00     0.039 A 
BRANCH  14  17
ATOM     17  N   UNL d   1      26.578 -15.183  -5.284  0.00  0.00    -0.116 N 
ATOM     18  O   UNL d   1      27.405 -15.190  -6.205  0.00  0.00    -0.532 OA
ATOM     19  O   UNL d   1      25.439 -15.669  -5.357  0.00  0.00    -0.532 OA
ENDBRANCH  14  17
ENDBRANCH  10  11
ENDBRANCH   9  10
ENDBRANCH   8   9
BRANCH   8  20
ATOM     20  O   UNL d   1      27.194 -14.817   1.368  0.00  0.00    -0.392 OA
ATOM     21  H   UNL d   1      26.691 -14.503   0.600  0.00  0.00     0.210 HD
ENDBRANCH   8  20
ENDBRANCH   7   8
ENDBRANCH   4   7
BRANCH   1  22
ATOM     22  C   UNL d   1      23.759 -17.739  -0.087  0.00  0.00     0.082 C 
ATOM     23  C   UNL d   1      23.586 -16.774  -1.265  0.00  0.00     0.032 C 
BRANCH  22  24
ATOM     24  C   UNL d   1      22.972 -19.024  -0.367  0.00  0.00     0.029 C 
BRANCH  24  25
ATOM     25  C   UNL d   1      21.547 -18.814  -0.899  0.00  0.00     0.040 C 
BRANCH  25  26
ATOM     26  C   UNL d   1      20.501 -19.396   0.021  0.00  0.00    -0.058 A 
ATOM     27  C   UNL d   1      20.618 -19.327   1.417  0.00  0.00     0.007 A 
ATOM     28  C   UNL d   1      19.742 -20.023   2.239  0.00  0.00     0.001 A 
ATOM     29  C   UNL d   1      18.665 -20.699   1.680  0.00  0.00     0.000 A 
ATOM     30  C   UNL d   1      18.490 -20.714   0.297  0.00  0.00     0.001 A 
ATOM     31  C   UNL d   1      19.407 -20.071  -0.532  0.00  0.00     0.007 A 
ENDBRANCH  25  26
ENDBRANCH  24  25
ENDBRANCH  22  24
ENDBRANCH   1  22
TORSDOF 11
ENDMDL
MODEL 4
REMARK VINA RESULT:    -7.818      4.166      9.112
REMARK INTER + INTRA:         -12.445
REMARK INTER:                 -11.100
REMARK INTRA:                  -1.345
REMARK CONF_INDEPENDENT:        3.281
REMARK UNBOUND:                -1.345
REMARK  11 active torsions:
REMARK  status: ('A' for Active; 'I' for Inactive)
REMARK    1  A    between atoms: C_2  and  C_3 
REMARK    2  A    between atoms: C_2  and  N_11 
REMARK    3  A    between atoms: C_3  and  C_4 
REMARK    4  A    between atoms: C_4  and  C_5 
REMARK       I    between atoms: N_11  and  C_12 
REMARK       I    between atoms: C_12  and  N_14 
REMARK    5  A    between atoms: N_14  and  C_15 
REMARK    6  A    between atoms: C_16  and  C_15 
REMARK    7  A    between atoms: C_16  and  C_18 
REMARK    8  A    between atoms: C_16  and  O_17 
REMARK    9  A    between atoms: C_18  and  O_19 
REMARK   10  A    between atoms: O_19  and  C_20 
REMARK   11  A    between atoms: C_23  and  N_24 
ROOT
ATOM      1  N   UNL d   1      29.382 -15.911   0.572  0.00  0.00    -0.339 N 
ATOM      2  C   UNL d   1      29.522 -14.775   1.332  0.00  0.00     0.316 C 
ATOM      3  O   UNL d   1      28.882 -13.743   1.101  0.00  0.00    -0.247 OA
ATOM      4  N   UNL d   1      30.440 -14.827   2.369  0.00  0.00    -0.341 N 
ATOM      5  H   UNL d   1      29.940 -16.725   0.776  0.00  0.00     0.164 HD
ATOM      6  H   UNL d   1      30.820 -15.717   2.663  0.00  0.00     0.164 HD
ENDROOT
BRANCH   4   7
ATOM      7  C   UNL d   1      30.466 -13.644   3.240  0.00  0.00     0.158 C 
BRANCH   7   8
ATOM      8  C   UNL d   1      30.019 -13.652   4.722  0.00  0.00     0.160 C 
BRANCH   8   9
ATOM      9  C   UNL d   1      28.869 -12.740   5.119  0.00  0.00     0.209 C 
BRANCH   9  10
ATOM     10  O   UNL d   1      27.886 -12.748   4.093  0.00  0.00    -0.349 OA
BRANCH  10  11
ATOM     11  C   UNL d   1      27.405 -11.524   3.729  0.00  0.00     0.069 A 
ATOM     12  C   UNL d   1      26.756 -11.487   2.493  0.00  0.00     0.039 A 
ATOM     13  C   UNL d   1      26.319 -10.275   1.961  0.00  0.00     0.039 A 
ATOM     14  C   UNL d   1      26.480  -9.100   2.706  0.00  0.00     0.103 A 
ATOM     15  C   UNL d   1      27.138  -9.127   3.941  0.00  0.00     0.039 A 
ATOM     16  C   UNL d   1      27.609 -10.343   4.447  0.00  0.00     0.039 A 
BRANCH  14  17
ATOM     17  N   UNL d   1      25.903  -7.844   2.215  0.00  0.00    -0.116 N 
ATOM     18  O   UNL d   1      26.140  -6.811   2.855  0.00  0.00    -0.532 OA
ATOM     19  O   UNL d   1      25.237  -7.887   1.169  0.00  0.00    -0.532 OA
ENDBRANCH  14  17
ENDBRANCH  10  11
ENDBRANCH   9  10
ENDBRANCH   8   9
BRANCH   8  20
ATOM     20  O   UNL d   1      29.737 -14.981   5.180  0.00  0.00    -0.392 OA
ATOM     21  H   UNL d   1      29.727 -15.571   4.410  0.00  0.00     0.210 HD
ENDBRANCH   8  20
ENDBRANCH   7   8
ENDBRANCH   4   7
BRANCH   1  22
ATOM     22  C   UNL d   1      28.473 -15.946  -0.605  0.00  0.00     0.082 C 
ATOM     23  C   UNL d   1      29.147 -16.533  -1.850  0.00  0.00     0.032 C 
BRANCH  22  24
ATOM     24  C   UNL d   1      27.205 -16.747  -0.291  0.00  0.00     0.029 C 
BRANCH  24  25
ATOM     25  C   UNL d   1      25.898 -15.943  -0.332  0.00  0.00     0.040 C 
BRANCH  25  26
ATOM     26  C   UNL d   1      24.685 -16.830  -0.483  0.00  0.00    -0.058 A 
ATOM     27  C   UNL d   1      23.445 -16.326  -0.902  0.00  0.00     0.007 A 
ATOM     28  C   UNL d   1      22.305 -17.118  -0.860  0.00  0.00     0.001 A 
ATOM     29  C   UNL d   1      22.412 -18.460  -0.514  0.00  0.00     0.000 A 
ATOM     30  C   UNL d   1      23.652 -18.996  -0.168  0.00  0.00     0.001 A 
ATOM     31  C   UNL d   1      24.784 -18.184  -0.146  0.00  0.00     0.007 A 
ENDBRANCH  25  26
ENDBRANCH  24  25
ENDBRANCH  22  24
ENDBRANCH   1  22
TORSDOF 11
ENDMDL
MODEL 5
REMARK VINA RESULT:    -7.765      3.806      9.232
REMARK INTER + INTRA:         -13.458
REMARK INTER:                 -11.046
REMARK INTRA:                  -2.411
REMARK CONF_INDEPENDENT:        3.281
REMARK UNBOUND:                -2.411
REMARK  11 active torsions:
REMARK  status: ('A' for Active; 'I' for Inactive)
REMARK    1  A    between atoms: C_2  and  C_3 
REMARK    2  A    between atoms: C_2  and  N_11 
REMARK    3  A    between atoms: C_3  and  C_4 
REMARK    4  A    between atoms: C_4  and  C_5 
REMARK       I    between atoms: N_11  and  C_12 
REMARK       I    between atoms: C_12  and  N_14 
REMARK    5  A    between atoms: N_14  and  C_15 
REMARK    6  A    between atoms: C_16  and  C_15 
REMARK    7  A    between atoms: C_16  and  C_18 
REMARK    8  A    between atoms: C_16  and  O_17 
REMARK    9  A    between atoms: C_18  and  O_19 
REMARK   10  A    between atoms: O_19  and  C_20 
REMARK   11  A    between atoms: C_23  and  N_24 
ROOT
ATOM      1  N   UNL d   1      28.272 -14.916   2.213  0.00  0.00    -0.339 N 
ATOM      2  C   UNL d   1      28.053 -14.561   3.522  0.00  0.00     0.316 C 
ATOM      3  O   UNL d   1      27.029 -13.972   3.884  0.00  0.00    -0.247 OA
ATOM      4  N   UNL d   1      29.052 -14.875   4.429  0.00  0.00    -0.341 N 
ATOM      5  H   UNL d   1      29.131 -15.375   1.953  0.00  0.00     0.164 HD
ATOM      6  H   UNL d   1      29.794 -15.510   4.166  0.00  0.00     0.164 HD
ENDROOT
BRANCH   4   7
ATOM      7  C   UNL d   1      28.727 -14.601   5.836  0.00  0.00     0.158 C 
BRANCH   7   8
ATOM      8  C   UNL d   1      28.505 -13.181   6.412  0.00  0.00     0.160 C 
BRANCH   8   9
ATOM      9  C   UNL d   1      29.445 -12.077   5.954  0.00  0.00     0.209 C 
BRANCH   9  10
ATOM     10  O   UNL d   1      29.355 -11.937   4.544  0.00  0.00    -0.349 OA
BRANCH  10  11
ATOM     11  C   UNL d   1      28.520 -10.951   4.102  0.00  0.00     0.069 A 
ATOM     12  C   UNL d   1      27.743 -11.287   2.991  0.00  0.00     0.039 A 
ATOM     13  C   UNL d   1      26.934 -10.330   2.380  0.00  0.00     0.039 A 
ATOM     14  C   UNL d   1      26.857  -9.045   2.930  0.00  0.00     0.103 A 
ATOM     15  C   UNL d   1      27.639  -8.697   4.037  0.00  0.00     0.039 A 
ATOM     16  C   UNL d   1      28.479  -9.653   4.617  0.00  0.00     0.039 A 
BRANCH  14  17
ATOM     17  N   UNL d   1      25.906  -8.074   2.375  0.00  0.00    -0.116 N 
ATOM     18  O   UNL d   1      25.138  -8.461   1.485  0.00  0.00    -0.532 OA
ATOM     19  O   UNL d   1      25.908  -6.929   2.855  0.00  0.00    -0.532 OA
ENDBRANCH  14  17
ENDBRANCH  10  11
ENDBRANCH   9  10
ENDBRANCH   8   9
BRANCH   8  20
ATOM     20  O   UNL d   1      27.151 -12.745   6.228  0.00  0.00    -0.392 OA
ATOM     21  H   UNL d   1      27.064 -12.401   5.324  0.00  0.00     0.210 HD
ENDBRANCH   8  20
ENDBRANCH   7   8
ENDBRANCH   4   7
BRANCH   1  22
ATOM     22  C   UNL d   1      27.296 -14.571   1.145  0.00  0.00     0.082 C 
ATOM     23  C   UNL d   1      27.832 -13.507   0.182  0.00  0.00     0.032 C 
BRANCH  22  24
ATOM     24  C   UNL d   1      26.895 -15.818   0.349  0.00  0.00     0.029 C 
BRANCH  24  25
ATOM     25  C   UNL d   1      25.813 -15.592  -0.716  0.00  0.00     0.040 C 
BRANCH  25  26
ATOM     26  C   UNL d   1      24.726 -16.639  -0.659  0.00  0.00    -0.058 A 
ATOM     27  C   UNL d   1      23.379 -16.324  -0.888  0.00  0.00     0.007 A 
ATOM     28  C   UNL d   1      22.380 -17.259  -0.653  0.00  0.00     0.001 A 
ATOM     29  C   UNL d   1      22.724 -18.559  -0.303  0.00  0.00     0.000 A 
ATOM     30  C   UNL d   1      24.064 -18.910  -0.145  0.00  0.00     0.001 A 
ATOM     31  C   UNL d   1      25.063 -17.953  -0.316  0.00  0.00     0.007 A 
ENDBRANCH  25  26
ENDBRANCH  24  25
ENDBRANCH  22  24
ENDBRANCH   1  22
TORSDOF 11
ENDMDL
MODEL 6
REMARK VINA RESULT:    -7.513      6.649     10.601
REMARK INTER + INTRA:         -12.817
REMARK INTER:                 -10.795
REMARK INTRA:                  -2.022
REMARK CONF_INDEPENDENT:        3.281
REMARK UNBOUND:                -2.022
REMARK  11 active torsions:
REMARK  status: ('A' for Active; 'I' for Inactive)
REMARK    1  A    between atoms: C_2  and  C_3 
REMARK    2  A    between atoms: C_2  and  N_11 
REMARK    3  A    between atoms: C_3  and  C_4 
REMARK    4  A    between atoms: C_4  and  C_5 
REMARK       I    between atoms: N_11  and  C_12 
REMARK       I    between atoms: C_12  and  N_14 
REMARK    5  A    between atoms: N_14  and  C_15 
REMARK    6  A    between atoms: C_16  and  C_15 
REMARK    7  A    between atoms: C_16  and  C_18 
REMARK    8  A    between atoms: C_16  and  O_17 
REMARK    9  A    between atoms: C_18  and  O_19 
REMARK   10  A    between atoms: O_19  and  C_20 
REMARK   11  A    between atoms: C_23  and  N_24 
ROOT
ATOM      1  N   UNL d   1      24.239 -16.704  -1.333  0.00  0.00    -0.339 N 
ATOM      2  C   UNL d   1      25.142 -15.962  -2.055  0.00  0.00     0.316 C 
ATOM      3  O   UNL d   1      26.238 -16.415  -2.406  0.00  0.00    -0.247 OA
ATOM      4  N   UNL d   1      24.778 -14.660  -2.360  0.00  0.00    -0.341 N 
ATOM      5  H   UNL d   1      23.366 -16.292  -1.045  0.00  0.00     0.164 HD
ATOM      6  H   UNL d   1      23.821 -14.360  -2.232  0.00  0.00     0.164 HD
ENDROOT
BRANCH   4   7
ATOM      7  C   UNL d   1      25.707 -13.943  -3.245  0.00  0.00     0.158 C 
BRANCH   7   8
ATOM      8  C   UNL d   1      25.865 -14.240  -4.756  0.00  0.00     0.160 C 
BRANCH   8   9
ATOM      9  C   UNL d   1      27.228 -14.002  -5.385  0.00  0.00     0.209 C 
BRANCH   9  10
ATOM     10  O   UNL d   1      27.801 -15.248  -5.755  0.00  0.00    -0.349 OA
BRANCH  10  11
ATOM     11  C   UNL d   1      29.028 -15.179  -6.349  0.00  0.00     0.069 A 
ATOM     12  C   UNL d   1      29.827 -16.313  -6.188  0.00  0.00     0.039 A 
ATOM     13  C   UNL d   1      31.142 -16.322  -6.653  0.00  0.00     0.039 A 
ATOM     14  C   UNL d   1      31.633 -15.206  -7.341  0.00  0.00     0.103 A 
ATOM     15  C   UNL d   1      30.842 -14.062  -7.498  0.00  0.00     0.039 A 
ATOM     16  C   UNL d   1      29.539 -14.049  -6.991  0.00  0.00     0.039 A 
BRANCH  14  17
ATOM     17  N   UNL d   1      32.967 -15.258  -7.951  0.00  0.00    -0.116 N 
ATOM     18  O   UNL d   1      33.059 -15.714  -9.098  0.00  0.00    -0.532 OA
ATOM     19  O   UNL d   1      33.919 -14.812  -7.292  0.00  0.00    -0.532 OA
ENDBRANCH  14  17
ENDBRANCH  10  11
ENDBRANCH   9  10
ENDBRANCH   8   9
BRANCH   8  20
ATOM     20  O   UNL d   1      25.430 -15.568  -5.080  0.00  0.00    -0.392 OA
ATOM     21  H   UNL d   1      25.948 -16.194  -4.549  0.00  0.00     0.210 HD
ENDBRANCH   8  20
ENDBRANCH   7   8
ENDBRANCH   4   7
BRANCH   1  22
ATOM     22  C   UNL d   1      24.553 -18.091  -0.896  0.00  0.00     0.082 C 
ATOM     23  C   UNL d   1      25.372 -18.127   0.399  0.00  0.00     0.032 C 
BRANCH  22  24
ATOM     24  C   UNL d   1      23.269 -18.906  -0.704  0.00  0.00     0.029 C 
BRANCH  24  25
ATOM     25  C   UNL d   1      22.037 -18.093  -0.282  0.00  0.00     0.040 C 
BRANCH  25  26
ATOM     26  C   UNL d   1      20.864 -18.974   0.075  0.00  0.00    -0.058 A 
ATOM     27  C   UNL d   1      19.943 -19.410  -0.888  0.00  0.00     0.007 A 
ATOM     28  C   UNL d   1      18.778 -20.066  -0.512  0.00  0.00     0.001 A 
ATOM     29  C   UNL d   1      18.577 -20.400   0.821  0.00  0.00     0.000 A 
ATOM     30  C   UNL d   1      19.520 -20.039   1.783  0.00  0.00     0.001 A 
ATOM     31  C   UNL d   1      20.657 -19.323   1.414  0.00  0.00     0.007 A 
ENDBRANCH  25  26
ENDBRANCH  24  25
ENDBRANCH  22  24
ENDBRANCH   1  22
TORSDOF 11
ENDMDL
MODEL 7
REMARK VINA RESULT:    -6.999      6.078      9.557
REMARK INTER + INTRA:         -12.248
REMARK INTER:                 -10.280
REMARK INTRA:                  -1.967
REMARK CONF_INDEPENDENT:        3.281
REMARK UNBOUND:                -1.967
REMARK  11 active torsions:
REMARK  status: ('A' for Active; 'I' for Inactive)
REMARK    1  A    between atoms: C_2  and  C_3 
REMARK    2  A    between atoms: C_2  and  N_11 
REMARK    3  A    between atoms: C_3  and  C_4 
REMARK    4  A    between atoms: C_4  and  C_5 
REMARK       I    between atoms: N_11  and  C_12 
REMARK       I    between atoms: C_12  and  N_14 
REMARK    5  A    between atoms: N_14  and  C_15 
REMARK    6  A    between atoms: C_16  and  C_15 
REMARK    7  A    between atoms: C_16  and  C_18 
REMARK    8  A    between atoms: C_16  and  O_17 
REMARK    9  A    between atoms: C_18  and  O_19 
REMARK   10  A    between atoms: O_19  and  C_20 
REMARK   11  A    between atoms: C_23  and  N_24 
ROOT
ATOM      1  N   UNL d   1      28.180 -13.561  -5.723  0.00  0.00    -0.339 N 
ATOM      2  C   UNL d   1      27.388 -14.364  -4.938  0.00  0.00     0.316 C 
ATOM      3  O   UNL d   1      27.157 -15.544  -5.223  0.00  0.00    -0.247 OA
ATOM      4  N   UNL d   1      26.833 -13.782  -3.810  0.00  0.00    -0.341 N 
ATOM      5  H   UNL d   1      28.325 -12.596  -5.469  0.00  0.00     0.164 HD
ATOM      6  H   UNL d   1      27.168 -12.884  -3.488  0.00  0.00     0.164 HD
ENDROOT
BRANCH   4   7
ATOM      7  C   UNL d   1      26.104 -14.703  -2.927  0.00  0.00     0.158 C 
BRANCH   7   8
ATOM      8  C   UNL d   1      26.749 -15.447  -1.732  0.00  0.00     0.160 C 
BRANCH   8   9
ATOM      9  C   UNL d   1      25.920 -15.609  -0.468  0.00  0.00     0.209 C 
BRANCH   9  10
ATOM     10  O   UNL d   1      25.761 -16.992  -0.183  0.00  0.00    -0.349 OA
BRANCH  10  11
ATOM     11  C   UNL d   1      24.529 -17.512  -0.459  0.00  0.00     0.069 A 
ATOM     12  C   UNL d   1      23.531 -16.568  -0.710  0.00  0.00     0.039 A 
ATOM     13  C   UNL d   1      22.209 -16.970  -0.894  0.00  0.00     0.039 A 
ATOM     14  C   UNL d   1      21.901 -18.336  -0.889  0.00  0.00     0.103 A 
ATOM     15  C   UNL d   1      22.893 -19.288  -0.629  0.00  0.00     0.039 A 
ATOM     16  C   UNL d   1      24.208 -18.870  -0.403  0.00  0.00     0.039 A 
BRANCH  14  17
ATOM     17  N   UNL d   1      20.539 -18.774  -1.217  0.00  0.00    -0.116 N 
ATOM     18  O   UNL d   1      20.411 -19.713  -2.013  0.00  0.00    -0.532 OA
ATOM     19  O   UNL d   1      19.597 -18.197  -0.650  0.00  0.00    -0.532 OA
ENDBRANCH  14  17
ENDBRANCH  10  11
ENDBRANCH   9  10
ENDBRANCH   8   9
BRANCH   8  20
ATOM     20  O   UNL d   1      27.255 -16.731  -2.124  0.00  0.00    -0.392 OA
ATOM     21  H   UNL d   1      27.474 -17.228  -1.319  0.00  0.00     0.210 HD
ENDBRANCH   8  20
ENDBRANCH   7   8
ENDBRANCH   4   7
BRANCH   1  22
ATOM     22  C   UNL d   1      28.775 -14.064  -6.990  0.00  0.00     0.082 C 
ATOM     23  C   UNL d   1      28.575 -13.091  -8.158  0.00  0.00     0.032 C 
BRANCH  22  24
ATOM     24  C   UNL d   1      30.271 -14.344  -6.817  0.00  0.00     0.029 C 
BRANCH  24  25
ATOM     25  C   UNL d   1      30.641 -15.163  -5.573  0.00  0.00     0.040 C 
BRANCH  25  26
ATOM     26  C   UNL d   1      30.737 -16.641  -5.868  0.00  0.00    -0.058 A 
ATOM     27  C   UNL d   1      30.026 -17.595  -5.123  0.00  0.00     0.007 A 
ATOM     28  C   UNL d   1      30.267 -18.952  -5.292  0.00  0.00     0.001 A 
ATOM     29  C   UNL d   1      31.133 -19.377  -6.291  0.00  0.00     0.000 A 
ATOM     30  C   UNL d   1      31.791 -18.444  -7.092  0.00  0.00     0.001 A 
ATOM     31  C   UNL d   1      31.600 -17.080  -6.878  0.00  0.00     0.007 A 
ENDBRANCH  25  26
ENDBRANCH  24  25
ENDBRANCH  22  24
ENDBRANCH   1  22
TORSDOF 11
ENDMDL
MODEL 8
REMARK VINA RESULT:    -6.629      6.812     10.077
REMARK INTER + INTRA:         -12.341
REMARK INTER:                  -9.910
REMARK INTRA:                  -2.430
REMARK CONF_INDEPENDENT:        3.281
REMARK UNBOUND:                -2.430
REMARK  11 active torsions:
REMARK  status: ('A' for Active; 'I' for Inactive)
REMARK    1  A    between atoms: C_2  and  C_3 
REMARK    2  A    between atoms: C_2  and  N_11 
REMARK    3  A    between atoms: C_3  and  C_4 
REMARK    4  A    between atoms: C_4  and  C_5 
REMARK       I    between atoms: N_11  and  C_12 
REMARK       I    between atoms: C_12  and  N_14 
REMARK    5  A    between atoms: N_14  and  C_15 
REMARK    6  A    between atoms: C_16  and  C_15 
REMARK    7  A    between atoms: C_16  and  C_18 
REMARK    8  A    between atoms: C_16  and  O_17 
REMARK    9  A    between atoms: C_18  and  O_19 
REMARK   10  A    between atoms: O_19  and  C_20 
REMARK   11  A    between atoms: C_23  and  N_24 
ROOT
ATOM      1  N   UNL d   1      25.034 -13.226  -4.912  0.00  0.00    -0.339 N 
ATOM      2  C   UNL d   1      25.971 -12.234  -5.072  0.00  0.00     0.316 C 
ATOM      3  O   UNL d   1      27.125 -12.340  -4.643  0.00  0.00    -0.247 OA
ATOM      4  N   UNL d   1      25.557 -11.084  -5.725  0.00  0.00    -0.341 N 
ATOM      5  H   UNL d   1      24.096 -13.091  -5.255  0.00  0.00     0.164 HD
ATOM      6  H   UNL d   1      24.680 -11.076  -6.228  0.00  0.00     0.164 HD
ENDROOT
BRANCH   4   7
ATOM      7  C   UNL d   1      26.618 -10.103  -5.996  0.00  0.00     0.158 C 
BRANCH   7   8
ATOM      8  C   UNL d   1      27.408  -9.358  -4.894  0.00  0.00     0.160 C 
BRANCH   8   9
ATOM      9  C   UNL d   1      26.642  -8.891  -3.667  0.00  0.00     0.209 C 
BRANCH   9  10
ATOM     10  O   UNL d   1      26.982  -9.713  -2.559  0.00  0.00    -0.349 OA
BRANCH  10  11
ATOM     11  C   UNL d   1      26.751  -9.168  -1.329  0.00  0.00     0.069 A 
ATOM     12  C   UNL d   1      26.246  -7.866  -1.344  0.00  0.00     0.039 A 
ATOM     13  C   UNL d   1      26.073  -7.162  -0.153  0.00  0.00     0.039 A 
ATOM     14  C   UNL d   1      26.350  -7.795   1.065  0.00  0.00     0.103 A 
ATOM     15  C   UNL d   1      26.865  -9.096   1.088  0.00  0.00     0.039 A 
ATOM     16  C   UNL d   1      27.074  -9.778  -0.114  0.00  0.00     0.039 A 
BRANCH  14  17
ATOM     17  N   UNL d   1      26.043  -7.110   2.326  0.00  0.00    -0.116 N 
ATOM     18  O   UNL d   1      25.170  -6.232   2.308  0.00  0.00    -0.532 OA
ATOM     19  O   UNL d   1      26.654  -7.475   3.342  0.00  0.00    -0.532 OA
ENDBRANCH  14  17
ENDBRANCH  10  11
ENDBRANCH   9  10
ENDBRANCH   8   9
BRANCH   8  20
ATOM     20  O   UNL d   1      28.555 -10.108  -4.468  0.00  0.00    -0.392 OA
ATOM     21  H   UNL d   1      28.245 -10.854  -3.931  0.00  0.00     0.210 HD
ENDBRANCH   8  20
ENDBRANCH   7   8
ENDBRANCH   4   7
BRANCH   1  22
ATOM     22  C   UNL d   1      25.351 -14.475  -4.170  0.00  0.00     0.082 C 
ATOM     23  C   UNL d   1      26.686 -15.091  -4.602  0.00  0.00     0.032 C 
BRANCH  22  24
ATOM     24  C   UNL d   1      25.377 -14.221  -2.659  0.00  0.00     0.029 C 
BRANCH  24  25
ATOM     25  C   UNL d   1      26.240 -15.197  -1.848  0.00  0.00     0.040 C 
BRANCH  25  26
ATOM     26  C   UNL d   1      25.418 -16.283  -1.196  0.00  0.00    -0.058 A 
ATOM     27  C   UNL d   1      24.018 -16.305  -1.277  0.00  0.00     0.007 A 
ATOM     28  C   UNL d   1      23.276 -17.204  -0.523  0.00  0.00     0.001 A 
ATOM     29  C   UNL d   1      23.928 -18.172   0.230  0.00  0.00     0.000 A 
ATOM     30  C   UNL d   1      25.322 -18.213   0.262  0.00  0.00     0.001 A 
ATOM     31  C   UNL d   1      26.066 -17.268  -0.442  0.00  0.00     0.007 A 
ENDBRANCH  25  26
ENDBRANCH  24  25
ENDBRANCH  22  24
ENDBRANCH   1  22
TORSDOF 11
ENDMDL
MODEL 9
REMARK VINA RESULT:    -6.136      4.363      7.614
REMARK INTER + INTRA:         -12.905
REMARK INTER:                  -9.417
REMARK INTRA:                  -3.488
REMARK CONF_INDEPENDENT:        3.281
REMARK UNBOUND:                -3.488
REMARK  11 active torsions:
REMARK  status: ('A' for Active; 'I' for Inactive)
REMARK    1  A    between atoms: C_2  and  C_3 
REMARK    2  A    between atoms: C_2  and  N_11 
REMARK    3  A    between atoms: C_3  and  C_4 
REMARK    4  A    between atoms: C_4  and  C_5 
REMARK       I    between atoms: N_11  and  C_12 
REMARK       I    between atoms: C_12  and  N_14 
REMARK    5  A    between atoms: N_14  and  C_15 
REMARK    6  A    between atoms: C_16  and  C_15 
REMARK    7  A    between atoms: C_16  and  C_18 
REMARK    8  A    between atoms: C_16  and  O_17 
REMARK    9  A    between atoms: C_18  and  O_19 
REMARK   10  A    between atoms: O_19  and  C_20 
REMARK   11  A    between atoms: C_23  and  N_24 
ROOT
ATOM      1  N   UNL d   1      28.351 -16.284   0.578  0.00  0.00    -0.339 N 
ATOM      2  C   UNL d   1      27.857 -15.094   1.057  0.00  0.00     0.316 C 
ATOM      3  O   UNL d   1      26.947 -14.481   0.488  0.00  0.00    -0.247 OA
ATOM      4  N   UNL d   1      28.444 -14.592   2.207  0.00  0.00    -0.341 N 
ATOM      5  H   UNL d   1      29.110 -16.742   1.057  0.00  0.00     0.164 HD
ATOM      6  H   UNL d   1      29.052 -15.179   2.762  0.00  0.00     0.164 HD
ENDROOT
BRANCH   4   7
ATOM      7  C   UNL d   1      27.803 -13.392   2.763  0.00  0.00     0.158 C 
BRANCH   7   8
ATOM      8  C   UNL d   1      27.379 -12.168   1.915  0.00  0.00     0.160 C 
BRANCH   8   9
ATOM      9  C   UNL d   1      28.123 -11.917   0.613  0.00  0.00     0.209 C 
BRANCH   9  10
ATOM     10  O   UNL d   1      27.188 -11.605  -0.410  0.00  0.00    -0.349 OA
BRANCH  10  11
ATOM     11  C   UNL d   1      27.160 -12.470  -1.466  0.00  0.00     0.069 A 
ATOM     12  C   UNL d   1      25.909 -12.634  -2.064  0.00  0.00     0.039 A 
ATOM     13  C   UNL d   1      25.729 -13.573  -3.079  0.00  0.00     0.039 A 
ATOM     14  C   UNL d   1      26.831 -14.305  -3.539  0.00  0.00     0.103 A 
ATOM     15  C   UNL d   1      28.086 -14.153  -2.939  0.00  0.00     0.039 A 
ATOM     16  C   UNL d   1      28.246 -13.239  -1.893  0.00  0.00     0.039 A 
BRANCH  14  17
ATOM     17  N   UNL d   1      26.679 -15.195  -4.696  0.00  0.00    -0.116 N 
ATOM     18  O   UNL d   1      27.706 -15.553  -5.287  0.00  0.00    -0.532 OA
ATOM     19  O   UNL d   1      25.531 -15.561  -4.993  0.00  0.00    -0.532 OA
ENDBRANCH  14  17
ENDBRANCH  10  11
ENDBRANCH   9  10
ENDBRANCH   8   9
BRANCH   8  20
ATOM     20  O   UNL d   1      25.969 -12.172   1.652  0.00  0.00    -0.392 OA
ATOM     21  H   UNL d   1      25.819 -12.645   0.819  0.00  0.00     0.210 HD
ENDBRANCH   8  20
ENDBRANCH   7   8
ENDBRANCH   4   7
BRANCH   1  22
ATOM     22  C   UNL d   1      27.839 -16.881  -0.684  0.00  0.00     0.082 C 
ATOM     23  C   UNL d   1      28.944 -17.088  -1.725  0.00  0.00     0.032 C 
BRANCH  22  24
ATOM     24  C   UNL d   1      27.144 -18.220  -0.411  0.00  0.00     0.029 C 
BRANCH  24  25
ATOM     25  C   UNL d   1      26.107 -18.198   0.720  0.00  0.00     0.040 C 
BRANCH  25  26
ATOM     26  C   UNL d   1      24.736 -17.794   0.233  0.00  0.00    -0.058 A 
ATOM     27  C   UNL d   1      23.599 -18.577   0.480  0.00  0.00     0.007 A 
ATOM     28  C   UNL d   1      22.386 -18.282  -0.128  0.00  0.00     0.001 A 
ATOM     29  C   UNL d   1      22.265 -17.130  -0.896  0.00  0.00     0.000 A 
ATOM     30  C   UNL d   1      23.367 -16.299  -1.090  0.00  0.00     0.001 A 
ATOM     31  C   UNL d   1      24.601 -16.631  -0.534  0.00  0.00     0.007 A 
ENDBRANCH  25  26
ENDBRANCH  24  25
ENDBRANCH  22  24
ENDBRANCH   1  22
TORSDOF 11
ENDMDL
